@<TRIPOS>MOLECULE
3R210
167   169    1
SMALL
USER_CHARGES


@<TRIPOS>ATOM
      1 CA         -0.8491  -21.7319  -20.4442 C.3       0 UNK        -0.1975 
      2 C          -1.6681  -21.3547  -21.6679 C.2       0 UNK         0.4851 
      3 O          -1.4735  -20.2744  -22.2261 O.2       0 UNK        -0.5373 
      4 N          -2.5898  -22.2359  -22.0795 N.am      1 UNK        -0.4269 
      5 CA         -3.6218  -21.9963  -23.0978 C.3       1 UNK         0.0858 
      6 C6         -4.6033  -23.1880  -23.2328 C.3       15 UNK        -0.0912 
      7 S7         -5.3574  -23.6864  -21.6453 S.3       15 UNK        -0.2677 
      8 C8         -4.7338  -25.3866  -21.4407 C.3       15 UNK         0.0266 
      9 C9         -3.2744  -25.4125  -21.0098 C.ar      15 UNK        -0.0760 
     10 C10        -2.2564  -25.5227  -21.9613 C.ar      15 UNK        -0.0947 
     11 C11        -0.9148  -25.5356  -21.5691 C.ar      15 UNK        -0.0993 
     12 C12        -0.5928  -25.4714  -20.2108 C.ar      15 UNK        -0.0803 
     13 C13        -1.6037  -25.3767  -19.2486 C.ar      15 UNK        -0.0795 
     14 C14        -2.9415  -25.3410  -19.6539 C.ar      15 UNK        -0.0929 
     15 C15        -1.2505  -25.3065  -17.7721 C.3       15 UNK         0.0331 
     16 S16        -1.1223  -23.5806  -17.2202 S.3       15 UNK        -0.2758 
     17 C17        -0.4023  -23.8046  -15.5600 C.3       15 UNK        -0.0852 
     18 CA         -0.8195  -22.6784  -14.5821 C.3       14 UNK         0.1007 
     19 C          -0.3115  -22.9871  -13.1483 C.2       14 UNK         0.5569 
     20 N          -1.1691  -23.5130  -12.2836 N.am      14 UNK        -0.7337 
     21 O           0.8617  -22.8001  -12.8316 O.2       14 UNK        -0.4878 
     22 N          -0.3562  -21.3671  -15.0509 N.am      14 UNK        -0.4439 
     23 C          -0.7655  -20.1894  -14.5668 C.2       14 UNK         0.5091 
     24 O          -1.6550  -20.0633  -13.7223 O.2       14 UNK        -0.4959 
     25 CA         -0.0416  -18.9516  -15.1282 C.3       13 UNK         0.0318 
     26 CB         -0.5333  -17.6197  -14.5225 C.3       13 UNK        -0.2073 
     27 N           1.4139  -19.0829  -15.0120 N.am      13 UNK        -0.4257 
     28 C           2.1441  -19.2054  -13.8925 C.2       13 UNK         0.4924 
     29 O           1.6845  -19.1258  -12.7526 O.2       13 UNK        -0.5084 
     30 CA          3.6505  -19.4799  -14.0645 C.3       12 UNK         0.0313 
     31 CB          3.9435  -20.9654  -13.7975 C.3       12 UNK        -0.1943 
     32 N           4.1680  -19.1200  -15.3885 N.am      12 UNK        -0.4337 
     33 C           4.3396  -17.8650  -15.8285 C.2       12 UNK         0.5004 
     34 O           4.1619  -16.8643  -15.1330 O.2       12 UNK        -0.5267 
     35 CA          4.7412  -17.6956  -17.3052 C.3       11 UNK         0.0272 
     36 CB          6.2537  -17.8947  -17.4890 C.3       11 UNK        -0.1940 
     37 N           4.0089  -18.5972  -18.2004 N.am      11 UNK        -0.4444 
     38 C           2.6814  -18.5701  -18.3926 C.2       11 UNK         0.5049 
     39 O           1.9290  -17.7444  -17.8773 O.2       11 UNK        -0.5297 
     40 CA          2.0823  -19.6780  -19.2701 C.3       10 UNK         0.0249 
     41 CB          2.1862  -19.3167  -20.7602 C.3       10 UNK        -0.1948 
     42 N           2.7138  -20.9739  -19.0100 N.am      10 UNK        -0.4364 
     43 C           2.4927  -21.6989  -17.9032 C.2       10 UNK         0.5001 
     44 O           1.6833  -21.3811  -17.0323 O.2       10 UNK        -0.5400 
     45 CA          3.3482  -22.9620  -17.7035 C.3       9 UNK         0.0311 
     46 CB          2.6865  -24.1901  -18.3425 C.3       9 UNK        -0.1989 
     47 N           4.7105  -22.8135  -18.2193 N.am      9 UNK        -0.4550 
     48 C           5.6320  -22.0155  -17.6613 C.2       9 UNK         0.5066 
     49 O           5.4328  -21.3501  -16.6466 O.2       9 UNK        -0.5223 
     50 CA          6.9842  -21.8914  -18.3823 C.3       8 UNK         0.0310 
     51 CB          7.9508  -22.9853  -17.9032 C.3       8 UNK        -0.1932 
     52 N           6.8806  -21.9349  -19.8434 N.am      8 UNK        -0.4682 
     53 C           6.1376  -21.1093  -20.5933 C.2       8 UNK         0.5114 
     54 O           5.4375  -20.2106  -20.1266 O.2       8 UNK        -0.5193 
     55 CA          6.1530  -21.3320  -22.1138 C.3       7 UNK         0.0239 
     56 CB          7.3737  -22.1368  -22.6145 C.3       7 UNK        -0.1979 
     57 N           4.9138  -21.9427  -22.6029 N.am      7 UNK        -0.4220 
     58 C           4.3557  -23.1068  -22.2308 C.2       7 UNK         0.5041 
     59 O           4.7382  -23.7792  -21.2713 O.2       7 UNK        -0.5122 
     60 CA          3.1925  -23.6293  -23.1012 C.3       6 UNK         0.0837 
     61 C61         1.8209  -23.3165  -22.4581 C.3       15 UNK        -0.0804 
     62 S62         0.4442  -24.0161  -23.4253 S.3       15 UNK        -0.2975 
     63 C63         0.1764  -25.6263  -22.6228 C.3       15 UNK         0.0295 
     64 N           3.2881  -23.1084  -24.4706 N.am      6 UNK        -0.4741 
     65 C           4.0001  -23.6684  -25.4572 C.2       5 UNK         0.4908 
     66 O           4.6054  -24.7340  -25.3435 O.2       5 UNK        -0.4805 
     67 CA          4.0622  -22.9091  -26.7965 C.3       5 UNK         0.0460 
     68 CB          2.9897  -23.4264  -27.7646 C.3       5 UNK        -0.1872 
     69 N           3.9162  -21.4598  -26.6323 N.am      5 UNK        -0.4447 
     70 C           4.8884  -20.6638  -26.1611 C.2       4 UNK         0.5068 
     71 O           6.0270  -21.0561  -25.9072 O.2       4 UNK        -0.4946 
     72 CA          4.5425  -19.1859  -25.8978 C.3       4 UNK         0.0294 
     73 CB          4.9931  -18.3118  -27.0789 C.3       4 UNK        -0.2010 
     74 N           3.1273  -18.9229  -25.6196 N.am      4 UNK        -0.4319 
     75 C           2.4119  -19.4611  -24.6222 C.2       3 UNK         0.4893 
     76 O           2.8664  -20.2833  -23.8277 O.2       3 UNK        -0.4983 
     77 CA          0.9369  -19.0382  -24.4983 C.3       3 UNK         0.0236 
     78 CB          0.5738  -17.7777  -25.3157 C.3       3 UNK        -0.2013 
     79 N           0.0092  -20.1287  -24.8182 N.am      3 UNK        -0.4119 
     80 C          -0.0315  -20.8598  -25.9459 C.2       2 UNK         0.5059 
     81 O           0.8080  -20.7731  -26.8454 O.2       2 UNK        -0.5404 
     82 CA         -1.2147  -21.8327  -26.1218 C.3       2 UNK         0.0351 
     83 CB         -0.7972  -23.1544  -26.7910 C.3       2 UNK        -0.1983 
     84 N          -1.8954  -22.1231  -24.8563 N.am      2 UNK        -0.4416 
     85 C          -3.0754  -21.6051  -24.4875 C.2       1 UNK         0.5065 
     86 O          -3.7341  -20.8381  -25.1921 O.2       1 UNK        -0.5180 
     87 H87        -1.1078  -22.7237  -20.0812 H         1 UNK         0.0888 
     88 H88         0.2138  -21.7241  -20.6684 H         1 UNK         0.0888 
     89 H89        -1.0328  -21.0238  -19.6369 H         1 UNK         0.0888 
     90 H90        -2.6814  -23.1148  -21.5860 H         1 UNK         0.3090 
     91 H91        -4.1960  -21.1372  -22.7444 H         1 UNK         0.0820 
     92 H92        -5.4207  -22.9231  -23.9067 H         1 UNK         0.0756 
     93 H93        -4.1099  -24.0445  -23.6936 H         1 UNK         0.0756 
     94 H94        -5.3437  -25.8925  -20.6906 H         1 UNK         0.0713 
     95 H95        -4.8732  -25.9466  -22.3668 H         1 UNK         0.0713 
     96 H96        -2.5029  -25.5889  -23.0122 H         1 UNK         0.1477 
     97 H97         0.4430  -25.4898  -19.9018 H         1 UNK         0.1471 
     98 H98        -3.7243  -25.2563  -18.9121 H         1 UNK         0.1365 
     99 H99        -0.3067  -25.8219  -17.5873 H         1 UNK         0.0708 
    100 H100       -2.0068  -25.8226  -17.1786 H         1 UNK         0.0708 
    101 H101        0.6844  -23.8497  -15.6549 H         1 UNK         0.0838 
    102 H102       -0.7190  -24.7746  -15.1714 H         1 UNK         0.0838 
    103 H103       -1.9108  -22.6463  -14.5562 H         1 UNK         0.0499 
    104 H104       -2.1308  -23.6787  -12.5372 H         1 UNK         0.3449 
    105 H105       -0.8516  -23.7360  -11.3531 H         1 UNK         0.3449 
    106 H106        0.3867  -21.3819  -15.7484 H         1 UNK         0.3002 
    107 H107       -0.2587  -18.9265  -16.1972 H         1 UNK         0.0669 
    108 H108       -1.5980  -17.4774  -14.7109 H         1 UNK         0.0775 
    109 H109       -0.0094  -16.7704  -14.9614 H         1 UNK         0.0775 
    110 H110       -0.3876  -17.5827  -13.4425 H         1 UNK         0.0775 
    111 H111        1.9008  -19.1884  -15.8922 H         1 UNK         0.3032 
    112 H112        4.1817  -18.8863  -13.3177 H         1 UNK         0.0643 
    113 H113        3.4411  -21.6090  -14.5211 H         1 UNK         0.0815 
    114 H114        5.0120  -21.1761  -13.8449 H         1 UNK         0.0815 
    115 H115        3.5971  -21.2617  -12.8063 H         1 UNK         0.0815 
    116 H116        4.4343  -19.8930  -15.9960 H         1 UNK         0.3197 
    117 H117        4.4964  -16.6732  -17.6007 H         1 UNK         0.0703 
    118 H118        6.5500  -17.7615  -18.5298 H         1 UNK         0.0797 
    119 H119        6.8148  -17.1714  -16.8958 H         1 UNK         0.0797 
    120 H120        6.5718  -18.8879  -17.1737 H         1 UNK         0.0797 
    121 H121        4.5566  -19.2727  -18.7292 H         1 UNK         0.3176 
    122 H122        1.0226  -19.7562  -19.0178 H         1 UNK         0.0867 
    123 H123        3.2198  -19.2393  -21.0971 H         1 UNK         0.0783 
    124 H124        1.7082  -18.3570  -20.9601 H         1 UNK         0.0783 
    125 H125        1.6879  -20.0556  -21.3847 H         1 UNK         0.0783 
    126 H126        3.4670  -21.2458  -19.6272 H         1 UNK         0.3168 
    127 H127        3.4107  -23.1397  -16.6275 H         1 UNK         0.0809 
    128 H128        3.2091  -25.1068  -18.0693 H         1 UNK         0.0816 
    129 H129        2.6773  -24.1243  -19.4283 H         1 UNK         0.0816 
    130 H130        1.6548  -24.2947  -18.0094 H         1 UNK         0.0816 
    131 H131        4.9398  -23.2968  -19.0809 H         1 UNK         0.3110 
    132 H132        7.4080  -20.9217  -18.1156 H         1 UNK         0.0990 
    133 H133        8.0593  -22.9609  -16.8177 H         1 UNK         0.0820 
    134 H134        8.9456  -22.8514  -18.3285 H         1 UNK         0.0820 
    135 H135        7.5999  -23.9822  -18.1732 H         1 UNK         0.0820 
    136 H136        7.3974  -22.6635  -20.3142 H         1 UNK         0.3020 
    137 H137        6.2052  -20.3398  -22.5647 H         1 UNK         0.0805 
    138 H138        8.3092  -21.6884  -22.2769 H         1 UNK         0.0792 
    139 H139        7.3570  -23.1735  -22.2763 H         1 UNK         0.0792 
    140 H140        7.4049  -22.1524  -23.7042 H         1 UNK         0.0792 
    141 H141        4.4211  -21.4113  -23.3133 H         1 UNK         0.2973 
    142 H142        3.2997  -24.7160  -23.1337 H         1 UNK         0.1158 
    143 H143        1.6735  -22.2379  -22.3986 H         1 UNK         0.0925 
    144 H144        1.7630  -23.6931  -21.4375 H         1 UNK         0.0925 
    145 H145        1.1089  -25.9988  -22.1958 H         1 UNK         0.0808 
    146 H146       -0.1167  -26.3513  -23.3837 H         1 UNK         0.0808 
    147 H147        2.8478  -22.2110  -24.6309 H         1 UNK         0.2989 
    148 H148        5.0376  -23.1101  -27.2446 H         1 UNK         0.0422 
    149 H149        3.0736  -22.9509  -28.7418 H         1 UNK         0.0842 
    150 H150        1.9875  -23.2370  -27.3858 H         1 UNK         0.0842 
    151 H151        3.0845  -24.5023  -27.9167 H         1 UNK         0.0842 
    152 H152        2.9968  -21.0660  -26.8038 H         1 UNK         0.2937 
    153 H153        5.1053  -18.8804  -25.0134 H         1 UNK         0.0684 
    154 H154        4.8557  -17.2517  -26.8647 H         1 UNK         0.0783 
    155 H155        6.0522  -18.4615  -27.2946 H         1 UNK         0.0783 
    156 H156        4.4388  -18.5469  -27.9885 H         1 UNK         0.0783 
    157 H157        2.6558  -18.2873  -26.2464 H         1 UNK         0.2977 
    158 H158        0.7782  -18.8025  -23.4453 H         1 UNK         0.0679 
    159 H159       -0.4455  -17.4573  -25.0992 H         1 UNK         0.0811 
    160 H160        1.2274  -16.9405  -25.0660 H         1 UNK         0.0811 
    161 H161        0.6393  -17.9469  -26.3912 H         1 UNK         0.0811 
    162 H162       -0.6919  -20.3055  -24.1047 H         1 UNK         0.3066 
    163 H163       -1.9043  -21.3358  -26.8071 H         1 UNK         0.0854 
    164 H164       -1.6472  -23.8279  -26.9002 H         1 UNK         0.0774 
    165 H165       -0.4008  -22.9765  -27.7913 H         1 UNK         0.0774 
    166 H166       -0.0291  -23.6763  -26.2225 H         1 UNK         0.0774 
    167 H167       -1.4005  -22.7259  -24.2090 H         1 UNK         0.3137 
@<TRIPOS>BOND
     1    1    2 1    
     2    1   87 1    
     3    1   88 1    
     4    1   89 1    
     5    2    3 2    
     6    2    4 am   BACKBONE|DICT|INTERRES
     7    4    5 1    
     8    4   90 1    
     9    5    6 1    
    10    5   85 1    
    11    5   91 1    
    12    6    7 1    
    13    6   92 1    
    14    6   93 1    
    15    7    8 1    
    16    8    9 1    
    17    8   94 1    
    18    8   95 1    
    19    9   10 ar   
    20    9   14 ar   
    21   10   11 ar   
    22   10   96 1    
    23   11   12 ar   
    24   11   63 1    
    25   12   13 ar   
    26   12   97 1    
    27   13   14 ar   
    28   13   15 1    
    29   14   98 1    
    30   15   16 1    
    31   15   99 1    
    32   15  100 1    
    33   16   17 1    
    34   17   18 1    
    35   17  101 1    
    36   17  102 1    
    37   18   19 1    
    38   18   22 1    
    39   18  103 1    
    40   19   20 am   BACKBONE|DICT|INTERRES
    41   19   21 2    
    42   20  104 1    
    43   20  105 1    
    44   22   23 am   BACKBONE|DICT|INTERRES
    45   22  106 1    
    46   23   24 2    
    47   23   25 1    
    48   25   26 1    
    49   25   27 1    
    50   25  107 1    
    51   26  108 1    
    52   26  109 1    
    53   26  110 1    
    54   27   28 am   BACKBONE|DICT|INTERRES
    55   27  111 1    
    56   28   29 2    
    57   28   30 1    
    58   30   31 1    
    59   30   32 1    
    60   30  112 1    
    61   31  113 1    
    62   31  114 1    
    63   31  115 1    
    64   32   33 am   BACKBONE|DICT|INTERRES
    65   32  116 1    
    66   33   34 2    
    67   33   35 1    
    68   35   36 1    
    69   35   37 1    
    70   35  117 1    
    71   36  118 1    
    72   36  119 1    
    73   36  120 1    
    74   37   38 am   BACKBONE|DICT|INTERRES
    75   37  121 1    
    76   38   39 2    
    77   38   40 1    
    78   40   41 1    
    79   40   42 1    
    80   40  122 1    
    81   41  123 1    
    82   41  124 1    
    83   41  125 1    
    84   42   43 am   BACKBONE|DICT|INTERRES
    85   42  126 1    
    86   43   44 2    
    87   43   45 1    
    88   45   46 1    
    89   45   47 1    
    90   45  127 1    
    91   46  128 1    
    92   46  129 1    
    93   46  130 1    
    94   47   48 am   BACKBONE|DICT|INTERRES
    95   47  131 1    
    96   48   49 2    
    97   48   50 1    
    98   50   51 1    
    99   50   52 1    
   100   50  132 1    
   101   51  133 1    
   102   51  134 1    
   103   51  135 1    
   104   52   53 am   BACKBONE|DICT|INTERRES
   105   52  136 1    
   106   53   54 2    
   107   53   55 1    
   108   55   56 1    
   109   55   57 1    
   110   55  137 1    
   111   56  138 1    
   112   56  139 1    
   113   56  140 1    
   114   57   58 am   BACKBONE|DICT|INTERRES
   115   57  141 1    
   116   58   59 2    
   117   58   60 1    
   118   60   61 1    
   119   60   64 1    
   120   60  142 1    
   121   61   62 1    
   122   61  143 1    
   123   61  144 1    
   124   62   63 1    
   125   63  145 1    
   126   63  146 1    
   127   64   65 am   BACKBONE|DICT|INTERRES
   128   64  147 1    
   129   65   66 2    
   130   65   67 1    
   131   67   68 1    
   132   67   69 1    
   133   67  148 1    
   134   68  149 1    
   135   68  150 1    
   136   68  151 1    
   137   69   70 am   BACKBONE|DICT|INTERRES
   138   69  152 1    
   139   70   71 2    
   140   70   72 1    
   141   72   73 1    
   142   72   74 1    
   143   72  153 1    
   144   73  154 1    
   145   73  155 1    
   146   73  156 1    
   147   74   75 am   BACKBONE|DICT|INTERRES
   148   74  157 1    
   149   75   76 2    
   150   75   77 1    
   151   77   78 1    
   152   77   79 1    
   153   77  158 1    
   154   78  159 1    
   155   78  160 1    
   156   78  161 1    
   157   79   80 am   BACKBONE|DICT|INTERRES
   158   79  162 1    
   159   80   81 2    
   160   80   82 1    
   161   82   83 1    
   162   82   84 1    
   163   82  163 1    
   164   83  164 1    
   165   83  165 1    
   166   83  166 1    
   167   84   85 am   BACKBONE|DICT|INTERRES
   168   84  167 1    
   169   85   86 2    
@<TRIPOS>SUBSTRUCTURE
     1 UNK         1 GROUP             0       ****    0 ROOT    
