@<TRIPOS>MOLECULE
3R210
167   169    1
SMALL
USER_CHARGES


@<TRIPOS>ATOM
      1 CA         -3.1026  -25.2241  -27.3428 C.3       0 UNK        -0.1975 
      2 C          -2.5115  -24.2255  -26.3599 C.2       0 UNK         0.4851 
      3 O          -1.2992  -24.0204  -26.3535 O.2       0 UNK        -0.5373 
      4 N          -3.3605  -23.5806  -25.5481 N.am      1 UNK        -0.4269 
      5 CA         -2.9972  -22.6571  -24.4595 C.3       1 UNK         0.0858 
      6 C6         -4.2444  -22.2192  -23.6467 C.3       15 UNK        -0.0912 
      7 S7         -5.2274  -23.6410  -23.0489 S.3       15 UNK        -0.2677 
      8 C8         -5.0530  -23.5261  -21.2345 C.3       15 UNK         0.0266 
      9 C9         -3.6091  -23.5731  -20.7423 C.ar      15 UNK        -0.0760 
     10 C10        -2.6951  -24.4968  -21.2624 C.ar      15 UNK        -0.0947 
     11 C11        -1.3667  -24.5034  -20.8288 C.ar      15 UNK        -0.0993 
     12 C12        -0.9639  -23.6101  -19.8308 C.ar      15 UNK        -0.0803 
     13 C13        -1.8703  -22.6961  -19.2880 C.ar      15 UNK        -0.0795 
     14 C14        -3.1896  -22.6814  -19.7494 C.ar      15 UNK        -0.0929 
     15 C15        -1.4148  -21.6875  -18.2437 C.3       15 UNK         0.0331 
     16 S16        -1.7516  -22.2420  -16.5419 S.3       15 UNK        -0.2758 
     17 C17        -0.3158  -23.3169  -16.2019 C.3       15 UNK        -0.0852 
     18 CA          0.1757  -23.2247  -14.7311 C.3       14 UNK         0.1007 
     19 C           1.2955  -24.2681  -14.4663 C.2       14 UNK         0.5569 
     20 N           2.5634  -23.8751  -14.4234 N.am      14 UNK        -0.7337 
     21 O           1.0055  -25.4489  -14.2919 O.2       14 UNK        -0.4878 
     22 N           0.5734  -21.8577  -14.3524 N.am      14 UNK        -0.4439 
     23 C           0.3756  -21.3178  -13.1437 C.2       14 UNK         0.5091 
     24 O          -0.2083  -21.8949  -12.2236 O.2       14 UNK        -0.4959 
     25 CA          0.9030  -19.8827  -12.9399 C.3       13 UNK         0.0318 
     26 CB          0.6931  -19.3514  -11.5052 C.3       13 UNK        -0.2073 
     27 N           2.2972  -19.7102  -13.3645 N.am      13 UNK        -0.4257 
     28 C           3.3919  -20.3067  -12.8621 C.2       13 UNK         0.4924 
     29 O           3.3646  -21.0948  -11.9161 O.2       13 UNK        -0.5084 
     30 CA          4.7534  -19.9775  -13.5133 C.3       12 UNK         0.0313 
     31 CB          5.5616  -21.2564  -13.8001 C.3       12 UNK        -0.1943 
     32 N           4.6036  -19.2321  -14.7647 N.am      12 UNK        -0.4337 
     33 C           4.7845  -17.9135  -14.9224 C.2       12 UNK         0.5004 
     34 O           5.1978  -17.1690  -14.0329 O.2       12 UNK        -0.5267 
     35 CA          4.4115  -17.3051  -16.2920 C.3       11 UNK         0.0272 
     36 CB          5.6688  -17.0431  -17.1361 C.3       11 UNK        -0.1940 
     37 N           3.4661  -18.1181  -17.0653 N.am      11 UNK        -0.4444 
     38 C           2.2116  -18.3937  -16.6815 C.2       11 UNK         0.5049 
     39 O           1.6915  -17.9345  -15.6652 O.2       11 UNK        -0.5297 
     40 CA          1.4375  -19.4205  -17.5190 C.3       10 UNK         0.0249 
     41 CB          0.7553  -18.7287  -18.7116 C.3       10 UNK        -0.1948 
     42 N           2.2820  -20.5308  -17.9799 N.am      10 UNK        -0.4364 
     43 C           2.9364  -21.3851  -17.1797 C.2       10 UNK         0.5001 
     44 O           2.8559  -21.3497  -15.9538 O.2       10 UNK        -0.5400 
     45 CA          3.8583  -22.4300  -17.8301 C.3       9 UNK         0.0311 
     46 CB          3.0723  -23.6727  -18.2703 C.3       9 UNK        -0.1989 
     47 N           4.6117  -21.8850  -18.9594 N.am      9 UNK        -0.4550 
     48 C           5.5800  -20.9657  -18.8398 C.2       9 UNK         0.5066 
     49 O           5.9956  -20.5491  -17.7590 O.2       9 UNK        -0.5223 
     50 CA          6.1493  -20.3805  -20.1436 C.3       8 UNK         0.0310 
     51 CB          7.2480  -21.2878  -20.7188 C.3       8 UNK        -0.1932 
     52 N           5.1143  -20.1499  -21.1558 N.am      8 UNK        -0.4682 
     53 C           4.1002  -19.2839  -21.0131 C.2       8 UNK         0.5114 
     54 O           3.9777  -18.5343  -20.0435 O.2       8 UNK        -0.5193 
     55 CA          3.0144  -19.2967  -22.1045 C.3       7 UNK         0.0239 
     56 CB          3.4525  -18.4783  -23.3286 C.3       7 UNK        -0.1979 
     57 N           2.6491  -20.6553  -22.5179 N.am      7 UNK        -0.4220 
     58 C           2.0781  -21.5629  -21.7134 C.2       7 UNK         0.5041 
     59 O           1.7375  -21.3223  -20.5580 O.2       7 UNK        -0.5122 
     60 CA          1.9104  -22.9974  -22.2430 C.3       6 UNK         0.0837 
     61 C61         0.5547  -23.1851  -22.9564 C.3       15 UNK        -0.0804 
     62 S62         0.1163  -24.9471  -23.1561 S.3       15 UNK        -0.2975 
     63 C63        -0.3583  -25.4516  -21.4631 C.3       15 UNK         0.0295 
     64 N           3.0469  -23.4076  -23.0674 N.am      6 UNK        -0.4741 
     65 C           4.2666  -23.6729  -22.5834 C.2       5 UNK         0.4908 
     66 O           4.5482  -23.6381  -21.3862 O.2       5 UNK        -0.4805 
     67 CA          5.3625  -23.9882  -23.6151 C.3       5 UNK         0.0460 
     68 CB          5.3041  -25.4665  -24.0293 C.3       5 UNK        -0.1872 
     69 N           5.2703  -23.1378  -24.8050 N.am      5 UNK        -0.4447 
     70 C           5.4701  -21.8117  -24.8020 C.2       4 UNK         0.5068 
     71 O           5.8125  -21.1730  -23.8074 O.2       4 UNK        -0.4946 
     72 CA          5.1956  -21.0641  -26.1191 C.3       4 UNK         0.0294 
     73 CB          6.4415  -21.0818  -27.0184 C.3       4 UNK        -0.2010 
     74 N           4.0404  -21.5755  -26.8681 N.am      4 UNK        -0.4319 
     75 C           2.7846  -21.6254  -26.4012 C.2       3 UNK         0.4893 
     76 O           2.4673  -21.2995  -25.2567 O.2       3 UNK        -0.4983 
     77 CA          1.7222  -22.1924  -27.3570 C.3       3 UNK         0.0236 
     78 CB          1.7214  -23.7281  -27.2818 C.3       3 UNK        -0.2013 
     79 N           0.3721  -21.6912  -27.0683 N.am      3 UNK        -0.4119 
     80 C          -0.0047  -20.4067  -27.1895 C.2       2 UNK         0.5059 
     81 O           0.7475  -19.5197  -27.5989 O.2       2 UNK        -0.5404 
     82 CA         -1.4593  -20.0229  -26.8433 C.3       2 UNK         0.0351 
     83 CB         -2.2113  -19.5650  -28.1054 C.3       2 UNK        -0.1983 
     84 N          -2.2266  -21.0962  -26.2107 N.am      2 UNK        -0.4416 
     85 C          -2.1820  -21.4210  -24.9112 C.2       1 UNK         0.5065 
     86 O          -1.5275  -20.7923  -24.0792 O.2       1 UNK        -0.5180 
     87 H87        -4.1861  -25.2961  -27.2502 H         1 UNK         0.0888 
     88 H88        -2.8667  -24.9290  -28.3648 H         1 UNK         0.0888 
     89 H89        -2.6804  -26.2133  -27.1675 H         1 UNK         0.0888 
     90 H90        -4.3463  -23.7968  -25.6007 H         1 UNK         0.3090 
     91 H91        -2.3434  -23.2173  -23.7898 H         1 UNK         0.0820 
     92 H92        -3.9484  -21.6032  -22.7950 H         1 UNK         0.0756 
     93 H93        -4.8977  -21.5940  -24.2583 H         1 UNK         0.0756 
     94 H94        -5.5425  -22.6090  -20.9026 H         1 UNK         0.0713 
     95 H95        -5.6022  -24.3504  -20.7782 H         1 UNK         0.0713 
     96 H96        -3.0069  -25.1884  -22.0334 H         1 UNK         0.1477 
     97 H97         0.0614  -23.6059  -19.4922 H         1 UNK         0.1471 
     98 H98        -3.8882  -21.9662  -19.3367 H         1 UNK         0.1365 
     99 H99        -0.3515  -21.4871  -18.3645 H         1 UNK         0.0708 
    100 H100       -1.9227  -20.7362  -18.4088 H         1 UNK         0.0708 
    101 H101        0.4951  -23.0623  -16.8832 H         1 UNK         0.0838 
    102 H102       -0.6075  -24.3403  -16.4463 H         1 UNK         0.0838 
    103 H103       -0.6664  -23.5248  -14.1045 H         1 UNK         0.0499 
    104 H104        3.2874  -24.5499  -14.2379 H         1 UNK         0.3449 
    105 H105        2.7987  -22.9129  -14.6311 H         1 UNK         0.3449 
    106 H106        1.1746  -21.3752  -15.0119 H         1 UNK         0.3002 
    107 H107        0.3097  -19.2531  -13.6046 H         1 UNK         0.0669 
    108 H108       -0.3639  -19.3627  -11.2362 H         1 UNK         0.0775 
    109 H109        1.0395  -18.3224  -11.4095 H         1 UNK         0.0775 
    110 H110        1.2218  -19.9539  -10.7659 H         1 UNK         0.0775 
    111 H111        2.4180  -19.0838  -14.1536 H         1 UNK         0.3032 
    112 H112        5.3138  -19.3822  -12.7899 H         1 UNK         0.0643 
    113 H113        5.0358  -21.9239  -14.4829 H         1 UNK         0.0815 
    114 H114        6.5286  -21.0211  -14.2448 H         1 UNK         0.0815 
    115 H115        5.7558  -21.8145  -12.8833 H         1 UNK         0.0815 
    116 H116        4.2385  -19.7673  -15.5446 H         1 UNK         0.3197 
    117 H117        3.9305  -16.3444  -16.0966 H         1 UNK         0.0703 
    118 H118        6.2095  -17.9639  -17.3533 H         1 UNK         0.0797 
    119 H119        5.4189  -16.5697  -18.0859 H         1 UNK         0.0797 
    120 H120        6.3574  -16.3782  -16.6130 H         1 UNK         0.0797 
    121 H121        3.7945  -18.5001  -17.9477 H         1 UNK         0.3176 
    122 H122        0.6607  -19.8449  -16.8799 H         1 UNK         0.0867 
    123 H123        1.4743  -18.2129  -19.3470 H         1 UNK         0.0783 
    124 H124        0.0390  -17.9824  -18.3658 H         1 UNK         0.0783 
    125 H125        0.2095  -19.4332  -19.3375 H         1 UNK         0.0783 
    126 H126        2.3171  -20.6868  -18.9866 H         1 UNK         0.3168 
    127 H127        4.5794  -22.7449  -17.0726 H         1 UNK         0.0809 
    128 H128        3.7284  -24.4160  -18.7239 H         1 UNK         0.0816 
    129 H129        2.2988  -23.4251  -18.9939 H         1 UNK         0.0816 
    130 H130        2.5883  -24.1504  -17.4182 H         1 UNK         0.0816 
    131 H131        4.3779  -22.2287  -19.8845 H         1 UNK         0.3110 
    132 H132        6.5967  -19.4142  -19.9003 H         1 UNK         0.0990 
    133 H133        8.0423  -21.4487  -19.9888 H         1 UNK         0.0820 
    134 H134        7.7049  -20.8439  -21.6035 H         1 UNK         0.0820 
    135 H135        6.8598  -22.2668  -21.0003 H         1 UNK         0.0820 
    136 H136        5.1868  -20.6824  -22.0183 H         1 UNK         0.3020 
    137 H137        2.1198  -18.8294  -21.6881 H         1 UNK         0.0805 
    138 H138        4.3617  -18.8768  -23.7779 H         1 UNK         0.0792 
    139 H139        3.6536  -17.4428  -23.0513 H         1 UNK         0.0792 
    140 H140        2.6778  -18.4662  -24.0959 H         1 UNK         0.0792 
    141 H141        2.8233  -20.9113  -23.4875 H         1 UNK         0.2973 
    142 H142        1.9088  -23.6363  -21.3589 H         1 UNK         0.1158 
    143 H143        0.5769  -22.7229  -23.9448 H         1 UNK         0.0925 
    144 H144       -0.2501  -22.6783  -22.4211 H         1 UNK         0.0925 
    145 H145        0.5378  -25.5314  -20.8460 H         1 UNK         0.0808 
    146 H146       -0.7831  -26.4557  -21.5027 H         1 UNK         0.0808 
    147 H147        2.9000  -23.4121  -24.0657 H         1 UNK         0.2989 
    148 H148        6.3298  -23.8046  -23.1427 H         1 UNK         0.0422 
    149 H149        4.3657  -25.7128  -24.5278 H         1 UNK         0.0842 
    150 H150        5.3901  -26.1177  -23.1582 H         1 UNK         0.0842 
    151 H151        6.1210  -25.7224  -24.7042 H         1 UNK         0.0842 
    152 H152        4.9950  -23.5804  -25.6694 H         1 UNK         0.2937 
    153 H153        4.9791  -20.0252  -25.8631 H         1 UNK         0.0684 
    154 H154        6.2991  -20.4656  -27.9065 H         1 UNK         0.0783 
    155 H155        7.3100  -20.6867  -26.4891 H         1 UNK         0.0783 
    156 H156        6.6911  -22.0918  -27.3459 H         1 UNK         0.0783 
    157 H157        4.2170  -21.8788  -27.8153 H         1 UNK         0.2977 
    158 H158        1.9772  -21.8913  -28.3751 H         1 UNK         0.0679 
    159 H159        1.0041  -24.1581  -27.9813 H         1 UNK         0.0811 
    160 H160        2.7000  -24.1397  -27.5317 H         1 UNK         0.0811 
    161 H161        1.4626  -24.0817  -26.2824 H         1 UNK         0.0811 
    162 H162       -0.2955  -22.3768  -26.7252 H         1 UNK         0.3066 
    163 H163       -1.4090  -19.1772  -26.1538 H         1 UNK         0.0854 
    164 H164       -2.2881  -20.3653  -28.8425 H         1 UNK         0.0774 
    165 H165       -1.7002  -18.7289  -28.5849 H         1 UNK         0.0774 
    166 H166       -3.2205  -19.2287  -27.8664 H         1 UNK         0.0774 
    167 H167       -2.7828  -21.6772  -26.8212 H         1 UNK         0.3137 
@<TRIPOS>BOND
     1    1    2 1    
     2    1   87 1    
     3    1   88 1    
     4    1   89 1    
     5    2    3 2    
     6    2    4 am   BACKBONE|DICT|INTERRES
     7    4    5 1    
     8    4   90 1    
     9    5    6 1    
    10    5   85 1    
    11    5   91 1    
    12    6    7 1    
    13    6   92 1    
    14    6   93 1    
    15    7    8 1    
    16    8    9 1    
    17    8   94 1    
    18    8   95 1    
    19    9   10 ar   
    20    9   14 ar   
    21   10   11 ar   
    22   10   96 1    
    23   11   12 ar   
    24   11   63 1    
    25   12   13 ar   
    26   12   97 1    
    27   13   14 ar   
    28   13   15 1    
    29   14   98 1    
    30   15   16 1    
    31   15   99 1    
    32   15  100 1    
    33   16   17 1    
    34   17   18 1    
    35   17  101 1    
    36   17  102 1    
    37   18   19 1    
    38   18   22 1    
    39   18  103 1    
    40   19   20 am   BACKBONE|DICT|INTERRES
    41   19   21 2    
    42   20  104 1    
    43   20  105 1    
    44   22   23 am   BACKBONE|DICT|INTERRES
    45   22  106 1    
    46   23   24 2    
    47   23   25 1    
    48   25   26 1    
    49   25   27 1    
    50   25  107 1    
    51   26  108 1    
    52   26  109 1    
    53   26  110 1    
    54   27   28 am   BACKBONE|DICT|INTERRES
    55   27  111 1    
    56   28   29 2    
    57   28   30 1    
    58   30   31 1    
    59   30   32 1    
    60   30  112 1    
    61   31  113 1    
    62   31  114 1    
    63   31  115 1    
    64   32   33 am   BACKBONE|DICT|INTERRES
    65   32  116 1    
    66   33   34 2    
    67   33   35 1    
    68   35   36 1    
    69   35   37 1    
    70   35  117 1    
    71   36  118 1    
    72   36  119 1    
    73   36  120 1    
    74   37   38 am   BACKBONE|DICT|INTERRES
    75   37  121 1    
    76   38   39 2    
    77   38   40 1    
    78   40   41 1    
    79   40   42 1    
    80   40  122 1    
    81   41  123 1    
    82   41  124 1    
    83   41  125 1    
    84   42   43 am   BACKBONE|DICT|INTERRES
    85   42  126 1    
    86   43   44 2    
    87   43   45 1    
    88   45   46 1    
    89   45   47 1    
    90   45  127 1    
    91   46  128 1    
    92   46  129 1    
    93   46  130 1    
    94   47   48 am   BACKBONE|DICT|INTERRES
    95   47  131 1    
    96   48   49 2    
    97   48   50 1    
    98   50   51 1    
    99   50   52 1    
   100   50  132 1    
   101   51  133 1    
   102   51  134 1    
   103   51  135 1    
   104   52   53 am   BACKBONE|DICT|INTERRES
   105   52  136 1    
   106   53   54 2    
   107   53   55 1    
   108   55   56 1    
   109   55   57 1    
   110   55  137 1    
   111   56  138 1    
   112   56  139 1    
   113   56  140 1    
   114   57   58 am   BACKBONE|DICT|INTERRES
   115   57  141 1    
   116   58   59 2    
   117   58   60 1    
   118   60   61 1    
   119   60   64 1    
   120   60  142 1    
   121   61   62 1    
   122   61  143 1    
   123   61  144 1    
   124   62   63 1    
   125   63  145 1    
   126   63  146 1    
   127   64   65 am   BACKBONE|DICT|INTERRES
   128   64  147 1    
   129   65   66 2    
   130   65   67 1    
   131   67   68 1    
   132   67   69 1    
   133   67  148 1    
   134   68  149 1    
   135   68  150 1    
   136   68  151 1    
   137   69   70 am   BACKBONE|DICT|INTERRES
   138   69  152 1    
   139   70   71 2    
   140   70   72 1    
   141   72   73 1    
   142   72   74 1    
   143   72  153 1    
   144   73  154 1    
   145   73  155 1    
   146   73  156 1    
   147   74   75 am   BACKBONE|DICT|INTERRES
   148   74  157 1    
   149   75   76 2    
   150   75   77 1    
   151   77   78 1    
   152   77   79 1    
   153   77  158 1    
   154   78  159 1    
   155   78  160 1    
   156   78  161 1    
   157   79   80 am   BACKBONE|DICT|INTERRES
   158   79  162 1    
   159   80   81 2    
   160   80   82 1    
   161   82   83 1    
   162   82   84 1    
   163   82  163 1    
   164   83  164 1    
   165   83  165 1    
   166   83  166 1    
   167   84   85 am   BACKBONE|DICT|INTERRES
   168   84  167 1    
   169   85   86 2    
@<TRIPOS>SUBSTRUCTURE
     1 UNK         1 GROUP             0       ****    0 ROOT    
