
     RDKit          3D

 97 99  0  0  0  0  0  0  0  0999 V2000
   -7.3098   -0.6145   -1.6049 C   0  0  0  0  0  0  0  0  0  0  0  0
   -6.2730   -1.5905   -2.0644 C   0  0  0  0  0  0  0  0  0  0  0  0
   -6.5687   -2.3744   -3.0011 O   0  0  0  0  0  0  0  0  0  0  0  0
   -4.9393   -1.6425   -1.5127 N   0  0  0  0  0  0  0  0  0  0  0  0
   -4.4671   -1.0303   -0.2604 C   0  0  2  0  0  0  0  0  0  0  0  0
   -5.0550   -1.7474    0.9749 C   0  0  0  0  0  0  0  0  0  0  0  0
   -4.5371   -3.5074    1.0383 S   0  0  0  0  0  0  0  0  0  0  0  0
   -3.1906   -3.3433    2.2644 C   0  0  0  0  0  0  0  0  0  0  0  0
   -1.9087   -2.8775    1.6190 C   0  0  0  0  0  0  0  0  0  0  0  0
   -1.2820   -3.6822    0.6568 C   0  0  0  0  0  0  0  0  0  0  0  0
   -0.0659   -3.2837    0.0744 C   0  0  0  0  0  0  0  0  0  0  0  0
    0.5178   -2.0732    0.4601 C   0  0  0  0  0  0  0  0  0  0  0  0
   -0.0777   -1.2611    1.4349 C   0  0  0  0  0  0  0  0  0  0  0  0
   -1.2874   -1.6822    2.0299 C   0  0  0  0  0  0  0  0  0  0  0  0
    0.6604   -0.0306    1.9057 C   0  0  0  0  0  0  0  0  0  0  0  0
   -0.4307    1.3594    2.3686 S   0  0  0  0  0  0  0  0  0  0  0  0
   -1.2433    1.5237    0.7337 C   0  0  0  0  0  0  0  0  0  0  0  0
   -1.8559    2.9246    0.5439 C   0  0  1  0  0  0  0  0  0  0  0  0
   -2.7971    3.2465    1.6284 N   0  0  0  0  0  0  0  0  0  0  0  0
   -3.8781    2.3794    1.9843 C   0  0  0  0  0  0  0  0  0  0  0  0
   -3.7283    1.5767    2.9450 O   0  0  0  0  0  0  0  0  0  0  0  0
   -5.2094    2.4308    1.2776 C   0  0  1  0  0  0  0  0  0  0  0  0
   -5.3614    3.5835    0.2800 C   0  0  0  0  0  0  0  0  0  0  0  0
   -5.5219    1.1295    0.6745 N   0  0  0  0  0  0  0  0  0  0  0  0
   -4.6768    0.4658   -0.2823 C   0  0  0  0  0  0  0  0  0  0  0  0
   -4.0875    1.1349   -1.1739 O   0  0  0  0  0  0  0  0  0  0  0  0
   -0.7506    3.9492    0.4199 C   0  0  0  0  0  0  0  0  0  0  0  0
   -0.4541    4.6945    1.3916 O   0  0  0  0  0  0  0  0  0  0  0  0
    0.0178    4.0003   -0.7880 N   0  0  0  0  0  0  0  0  0  0  0  0
    1.4304    4.3837   -0.7933 C   0  0  2  0  0  0  0  0  0  0  0  0
    1.5586    5.9056   -0.7325 C   0  0  0  0  0  0  0  0  0  0  0  0
    2.1048    3.8512   -2.0438 C   0  0  0  0  0  0  0  0  0  0  0  0
    1.7550    4.3245   -3.1598 O   0  0  0  0  0  0  0  0  0  0  0  0
    3.0867    2.7919   -2.0283 N   0  0  0  0  0  0  0  0  0  0  0  0
    3.7639    2.2876   -0.8225 C   0  0  2  0  0  0  0  0  0  0  0  0
    4.7244    3.3440   -0.2570 C   0  0  0  0  0  0  0  0  0  0  0  0
    4.5163    1.0150   -1.1327 C   0  0  0  0  0  0  0  0  0  0  0  0
    5.4823    1.0303   -1.9499 O   0  0  0  0  0  0  0  0  0  0  0  0
    4.1496   -0.2149   -0.5009 N   0  0  0  0  0  0  0  0  0  0  0  0
    4.9246   -0.7303    0.6311 C   0  0  2  0  0  0  0  0  0  0  0  0
    6.3963   -0.9948    0.2557 C   0  0  0  0  0  0  0  0  0  0  0  0
    4.2621   -1.9466    1.2445 C   0  0  0  0  0  0  0  0  0  0  0  0
    3.7170   -1.8226    2.3691 O   0  0  0  0  0  0  0  0  0  0  0  0
    4.3157   -3.2591    0.6523 N   0  0  0  0  0  0  0  0  0  0  0  0
    4.0341   -3.5592   -0.7589 C   0  0  1  0  0  0  0  0  0  0  0  0
    5.3137   -3.5666   -1.5531 C   0  0  0  0  0  0  0  0  0  0  0  0
    6.4838   -4.2151   -1.0426 N   0  0  0  0  0  0  0  0  0  0  0  0
    5.3529   -3.0147   -2.6831 O   0  0  0  0  0  0  0  0  0  0  0  0
    3.3568   -4.9407   -0.9108 C   0  0  0  0  0  0  0  0  0  0  0  0
    1.8840   -5.1580    0.1705 S   0  0  0  0  0  0  0  0  0  0  0  0
    0.6878   -4.2059   -0.8423 C   0  0  0  0  0  0  0  0  0  0  0  0
   -7.5614   -0.7742   -0.5332 H   0  0  0  0  0  0  0  0  0  0  0  0
   -8.2513   -0.7548   -2.1909 H   0  0  0  0  0  0  0  0  0  0  0  0
   -6.9582    0.4254   -1.7646 H   0  0  0  0  0  0  0  0  0  0  0  0
   -4.2440   -2.2151   -2.0457 H   0  0  0  0  0  0  0  0  0  0  0  0
   -3.3637   -1.1790   -0.2025 H   0  0  0  0  0  0  0  0  0  0  0  0
   -6.1613   -1.7416    0.9385 H   0  0  0  0  0  0  0  0  0  0  0  0
   -4.7575   -1.2063    1.9006 H   0  0  0  0  0  0  0  0  0  0  0  0
   -3.4960   -2.6796    3.0978 H   0  0  0  0  0  0  0  0  0  0  0  0
   -3.0171   -4.3507    2.7024 H   0  0  0  0  0  0  0  0  0  0  0  0
   -1.7260   -4.6296    0.3900 H   0  0  0  0  0  0  0  0  0  0  0  0
    1.4642   -1.7884    0.0227 H   0  0  0  0  0  0  0  0  0  0  0  0
   -1.7466   -1.0907    2.8147 H   0  0  0  0  0  0  0  0  0  0  0  0
    1.2725   -0.3021    2.7865 H   0  0  0  0  0  0  0  0  0  0  0  0
    1.3445    0.3330    1.1140 H   0  0  0  0  0  0  0  0  0  0  0  0
   -2.0384    0.7552    0.6697 H   0  0  0  0  0  0  0  0  0  0  0  0
   -0.5141    1.3315   -0.0854 H   0  0  0  0  0  0  0  0  0  0  0  0
   -2.4161    2.9378   -0.4087 H   0  0  0  0  0  0  0  0  0  0  0  0
   -2.5796    4.0169    2.3081 H   0  0  0  0  0  0  0  0  0  0  0  0
   -5.9656    2.6235    2.0680 H   0  0  0  0  0  0  0  0  0  0  0  0
   -4.6638    3.5054   -0.5707 H   0  0  0  0  0  0  0  0  0  0  0  0
   -6.3964    3.5982   -0.1135 H   0  0  0  0  0  0  0  0  0  0  0  0
   -5.1795    4.5548    0.7904 H   0  0  0  0  0  0  0  0  0  0  0  0
   -6.2972    0.5910    1.1137 H   0  0  0  0  0  0  0  0  0  0  0  0
   -0.3974    3.5540   -1.6379 H   0  0  0  0  0  0  0  0  0  0  0  0
    1.8955    3.9589    0.1133 H   0  0  0  0  0  0  0  0  0  0  0  0
    2.6243    6.2126   -0.7792 H   0  0  0  0  0  0  0  0  0  0  0  0
    1.1307    6.2956    0.2102 H   0  0  0  0  0  0  0  0  0  0  0  0
    1.0074    6.3736   -1.5734 H   0  0  0  0  0  0  0  0  0  0  0  0
    3.2376    2.2845   -2.9222 H   0  0  0  0  0  0  0  0  0  0  0  0
    3.0028    2.0396   -0.0578 H   0  0  0  0  0  0  0  0  0  0  0  0
    5.4734    3.6287   -1.0197 H   0  0  0  0  0  0  0  0  0  0  0  0
    4.1742    4.2561    0.0498 H   0  0  0  0  0  0  0  0  0  0  0  0
    5.2533    2.9470    0.6351 H   0  0  0  0  0  0  0  0  0  0  0  0
    3.1330   -0.4336   -0.5240 H   0  0  0  0  0  0  0  0  0  0  0  0
    4.9461    0.0594    1.4188 H   0  0  0  0  0  0  0  0  0  0  0  0
    6.4992   -1.3524   -0.7847 H   0  0  0  0  0  0  0  0  0  0  0  0
    6.9722   -0.0550    0.3390 H   0  0  0  0  0  0  0  0  0  0  0  0
    6.8610   -1.7215    0.9437 H   0  0  0  0  0  0  0  0  0  0  0  0
    4.3039   -4.0579    1.3310 H   0  0  0  0  0  0  0  0  0  0  0  0
    3.3459   -2.7989   -1.1812 H   0  0  0  0  0  0  0  0  0  0  0  0
    7.3761   -4.1930   -1.5864 H   0  0  0  0  0  0  0  0  0  0  0  0
    6.5166   -4.5548   -0.0592 H   0  0  0  0  0  0  0  0  0  0  0  0
    3.0833   -5.1163   -1.9780 H   0  0  0  0  0  0  0  0  0  0  0  0
    4.0793   -5.7345   -0.6264 H   0  0  0  0  0  0  0  0  0  0  0  0
    1.1934   -3.6046   -1.6320 H   0  0  0  0  0  0  0  0  0  0  0  0
    0.0017   -4.9114   -1.3481 H   0  0  0  0  0  0  0  0  0  0  0  0
  1  2  1  0
  2  3  2  0
  2  4  1  0
  4  5  1  0
  5  6  1  0
  6  7  1  0
  7  8  1  0
  8  9  1  0
  9 10  1  0
 10 11  2  0
 11 12  1  0
 12 13  2  0
 13 14  1  0
 13 15  1  0
 15 16  1  0
 16 17  1  0
 17 18  1  0
 18 19  1  0
 19 20  1  0
 20 21  2  0
 20 22  1  0
 22 23  1  0
 22 24  1  0
 24 25  1  0
 25 26  2  0
 18 27  1  0
 27 28  2  0
 27 29  1  0
 29 30  1  0
 30 31  1  0
 30 32  1  0
 32 33  2  0
 32 34  1  0
 34 35  1  0
 35 36  1  0
 35 37  1  0
 37 38  2  0
 37 39  1  0
 39 40  1  0
 40 41  1  0
 40 42  1  0
 42 43  2  0
 42 44  1  0
 44 45  1  0
 45 46  1  0
 46 47  1  0
 46 48  2  0
 45 49  1  0
 49 50  1  0
 50 51  1  0
 25  5  1  0
 14  9  2  0
 51 11  1  0
  1 52  1  0
  1 53  1  0
  1 54  1  0
  4 55  1  0
  5 56  1  1
  6 57  1  0
  6 58  1  0
  8 59  1  0
  8 60  1  0
 10 61  1  0
 12 62  1  0
 14 63  1  0
 15 64  1  0
 15 65  1  0
 17 66  1  0
 17 67  1  0
 18 68  1  6
 19 69  1  0
 22 70  1  1
 23 71  1  0
 23 72  1  0
 23 73  1  0
 24 74  1  0
 29 75  1  0
 30 76  1  1
 31 77  1  0
 31 78  1  0
 31 79  1  0
 34 80  1  0
 35 81  1  1
 36 82  1  0
 36 83  1  0
 36 84  1  0
 39 85  1  0
 40 86  1  1
 41 87  1  0
 41 88  1  0
 41 89  1  0
 44 90  1  0
 45 91  1  6
 47 92  1  0
 47 93  1  0
 49 94  1  0
 49 95  1  0
 51 96  1  0
 51 97  1  0
M  END
