
     RDKit          3D

 97 99  0  0  0  0  0  0  0  0999 V2000
    7.4538   -0.1745    3.7323 C   0  0  0  0  0  0  0  0  0  0  0  0
    6.3693    0.0429    2.7266 C   0  0  0  0  0  0  0  0  0  0  0  0
    5.1720   -0.1797    3.0609 O   0  0  0  0  0  0  0  0  0  0  0  0
    6.6820    0.4923    1.4016 N   0  0  0  0  0  0  0  0  0  0  0  0
    5.6971    0.5161    0.3162 C   0  0  1  0  0  0  0  0  0  0  0  0
    5.6204    1.9235   -0.2860 C   0  0  0  0  0  0  0  0  0  0  0  0
    4.9361    3.1086    0.9358 S   0  0  0  0  0  0  0  0  0  0  0  0
    3.7873    3.9935   -0.1849 C   0  0  0  0  0  0  0  0  0  0  0  0
    2.3687    3.5264    0.0370 C   0  0  0  0  0  0  0  0  0  0  0  0
    1.3876    4.4243    0.4959 C   0  0  0  0  0  0  0  0  0  0  0  0
    0.0762    3.9899    0.7343 C   0  0  0  0  0  0  0  0  0  0  0  0
   -0.2519    2.6478    0.5121 C   0  0  0  0  0  0  0  0  0  0  0  0
    0.7029    1.7491    0.0201 C   0  0  0  0  0  0  0  0  0  0  0  0
    2.0111    2.1908   -0.2154 C   0  0  0  0  0  0  0  0  0  0  0  0
    0.3229    0.3158   -0.2133 C   0  0  0  0  0  0  0  0  0  0  0  0
    0.5144   -0.1378   -1.9801 S   0  0  0  0  0  0  0  0  0  0  0  0
   -0.3279   -1.7640   -1.8439 C   0  0  0  0  0  0  0  0  0  0  0  0
    0.6512   -2.9199   -2.1102 C   0  0  1  0  0  0  0  0  0  0  0  0
    1.7331   -2.9039   -1.1240 N   0  0  0  0  0  0  0  0  0  0  0  0
    3.1002   -2.7090   -1.5098 C   0  0  0  0  0  0  0  0  0  0  0  0
    3.4885   -3.0835   -2.6479 O   0  0  0  0  0  0  0  0  0  0  0  0
    4.0596   -2.0586   -0.5425 C   0  0  1  0  0  0  0  0  0  0  0  0
    4.4870   -3.0579    0.5320 C   0  0  0  0  0  0  0  0  0  0  0  0
    5.2478   -1.5362   -1.2356 N   0  0  0  0  0  0  0  0  0  0  0  0
    6.1044   -0.4777   -0.7534 C   0  0  0  0  0  0  0  0  0  0  0  0
    7.2501   -0.3571   -1.2674 O   0  0  0  0  0  0  0  0  0  0  0  0
   -0.0212   -4.2698   -2.1159 C   0  0  0  0  0  0  0  0  0  0  0  0
    0.4827   -5.1930   -2.8055 O   0  0  0  0  0  0  0  0  0  0  0  0
   -1.2439   -4.5188   -1.4097 N   0  0  0  0  0  0  0  0  0  0  0  0
   -1.3295   -4.4376    0.0522 C   0  0  2  0  0  0  0  0  0  0  0  0
   -1.1193   -5.8400    0.6381 C   0  0  0  0  0  0  0  0  0  0  0  0
   -2.6574   -3.8464    0.4849 C   0  0  0  0  0  0  0  0  0  0  0  0
   -3.0632   -4.0456    1.6602 O   0  0  0  0  0  0  0  0  0  0  0  0
   -3.4357   -3.0188   -0.4049 N   0  0  0  0  0  0  0  0  0  0  0  0
   -4.7932   -2.5687   -0.0763 C   0  0  2  0  0  0  0  0  0  0  0  0
   -5.8043   -3.6461   -0.4668 C   0  0  0  0  0  0  0  0  0  0  0  0
   -5.1109   -1.2710   -0.7781 C   0  0  0  0  0  0  0  0  0  0  0  0
   -4.9615   -1.1688   -2.0265 O   0  0  0  0  0  0  0  0  0  0  0  0
   -5.6222   -0.1604   -0.0352 N   0  0  0  0  0  0  0  0  0  0  0  0
   -4.7457    0.9516    0.3431 C   0  0  2  0  0  0  0  0  0  0  0  0
   -3.7920    0.5056    1.4539 C   0  0  0  0  0  0  0  0  0  0  0  0
   -5.5483    2.1527    0.8048 C   0  0  0  0  0  0  0  0  0  0  0  0
   -6.5394    1.9716    1.5665 O   0  0  0  0  0  0  0  0  0  0  0  0
   -5.2087    3.5052    0.4327 N   0  0  0  0  0  0  0  0  0  0  0  0
   -3.9456    3.8870   -0.2057 C   0  0  1  0  0  0  0  0  0  0  0  0
   -4.0644    3.7494   -1.6997 C   0  0  0  0  0  0  0  0  0  0  0  0
   -5.1257    4.3906   -2.4116 N   0  0  0  0  0  0  0  0  0  0  0  0
   -3.2236    3.0517   -2.3316 O   0  0  0  0  0  0  0  0  0  0  0  0
   -3.5495    5.3207    0.1910 C   0  0  0  0  0  0  0  0  0  0  0  0
   -1.8149    5.6864   -0.2853 S   0  0  0  0  0  0  0  0  0  0  0  0
   -0.9908    4.9539    1.1816 C   0  0  0  0  0  0  0  0  0  0  0  0
    7.2748    0.4702    4.6198 H   0  0  0  0  0  0  0  0  0  0  0  0
    8.4541    0.0640    3.3070 H   0  0  0  0  0  0  0  0  0  0  0  0
    7.4441   -1.2336    4.0525 H   0  0  0  0  0  0  0  0  0  0  0  0
    7.6668    0.7576    1.1780 H   0  0  0  0  0  0  0  0  0  0  0  0
    4.6921    0.2911    0.7170 H   0  0  0  0  0  0  0  0  0  0  0  0
    4.9887    1.8759   -1.1971 H   0  0  0  0  0  0  0  0  0  0  0  0
    6.6320    2.2752   -0.5837 H   0  0  0  0  0  0  0  0  0  0  0  0
    3.8785    5.0752    0.0481 H   0  0  0  0  0  0  0  0  0  0  0  0
    4.0687    3.8779   -1.2515 H   0  0  0  0  0  0  0  0  0  0  0  0
    1.6433    5.4639    0.6632 H   0  0  0  0  0  0  0  0  0  0  0  0
   -1.2488    2.2948    0.7255 H   0  0  0  0  0  0  0  0  0  0  0  0
    2.7457    1.4887   -0.5837 H   0  0  0  0  0  0  0  0  0  0  0  0
    0.9565   -0.3384    0.4258 H   0  0  0  0  0  0  0  0  0  0  0  0
   -0.7403    0.1615    0.0835 H   0  0  0  0  0  0  0  0  0  0  0  0
   -1.1478   -1.7754   -2.5989 H   0  0  0  0  0  0  0  0  0  0  0  0
   -0.7898   -1.8817   -0.8433 H   0  0  0  0  0  0  0  0  0  0  0  0
    1.0579   -2.7509   -3.1306 H   0  0  0  0  0  0  0  0  0  0  0  0
    1.4914   -2.8485   -0.1031 H   0  0  0  0  0  0  0  0  0  0  0  0
    3.4909   -1.2397   -0.0646 H   0  0  0  0  0  0  0  0  0  0  0  0
    3.6039   -3.4417    1.0904 H   0  0  0  0  0  0  0  0  0  0  0  0
    5.0310   -3.9095    0.0717 H   0  0  0  0  0  0  0  0  0  0  0  0
    5.1574   -2.5627    1.2638 H   0  0  0  0  0  0  0  0  0  0  0  0
    5.6642   -2.1363   -1.9880 H   0  0  0  0  0  0  0  0  0  0  0  0
   -1.9533   -5.1159   -1.8966 H   0  0  0  0  0  0  0  0  0  0  0  0
   -0.5256   -3.7893    0.4512 H   0  0  0  0  0  0  0  0  0  0  0  0
   -1.9595   -6.5106    0.3495 H   0  0  0  0  0  0  0  0  0  0  0  0
   -0.1757   -6.2778    0.2467 H   0  0  0  0  0  0  0  0  0  0  0  0
   -1.0377   -5.7944    1.7460 H   0  0  0  0  0  0  0  0  0  0  0  0
   -3.0532   -2.7851   -1.3479 H   0  0  0  0  0  0  0  0  0  0  0  0
   -4.8723   -2.3949    1.0198 H   0  0  0  0  0  0  0  0  0  0  0  0
   -5.5714   -4.5903    0.0668 H   0  0  0  0  0  0  0  0  0  0  0  0
   -6.8326   -3.3299   -0.1828 H   0  0  0  0  0  0  0  0  0  0  0  0
   -5.7704   -3.8348   -1.5616 H   0  0  0  0  0  0  0  0  0  0  0  0
   -6.6610   -0.0855    0.0756 H   0  0  0  0  0  0  0  0  0  0  0  0
   -4.1447    1.2316   -0.5442 H   0  0  0  0  0  0  0  0  0  0  0  0
   -4.3621    0.1167    2.3241 H   0  0  0  0  0  0  0  0  0  0  0  0
   -3.1716    1.3593    1.7986 H   0  0  0  0  0  0  0  0  0  0  0  0
   -3.1135   -0.2890    1.0732 H   0  0  0  0  0  0  0  0  0  0  0  0
   -5.8739    4.2622    0.7129 H   0  0  0  0  0  0  0  0  0  0  0  0
   -3.1494    3.2181    0.1607 H   0  0  0  0  0  0  0  0  0  0  0  0
   -5.2449    4.2251   -3.4346 H   0  0  0  0  0  0  0  0  0  0  0  0
   -5.8203    4.9886   -1.9073 H   0  0  0  0  0  0  0  0  0  0  0  0
   -4.2144    6.0542   -0.3076 H   0  0  0  0  0  0  0  0  0  0  0  0
   -3.6763    5.4670    1.2829 H   0  0  0  0  0  0  0  0  0  0  0  0
   -1.7112    4.4215    1.8419 H   0  0  0  0  0  0  0  0  0  0  0  0
   -0.5363    5.7732    1.7845 H   0  0  0  0  0  0  0  0  0  0  0  0
  1  2  1  0
  2  3  2  0
  2  4  1  0
  4  5  1  0
  5  6  1  0
  6  7  1  0
  7  8  1  0
  8  9  1  0
  9 10  1  0
 10 11  2  0
 11 12  1  0
 12 13  2  0
 13 14  1  0
 13 15  1  0
 15 16  1  0
 16 17  1  0
 17 18  1  0
 18 19  1  0
 19 20  1  0
 20 21  2  0
 20 22  1  0
 22 23  1  0
 22 24  1  0
 24 25  1  0
 25 26  2  0
 18 27  1  0
 27 28  2  0
 27 29  1  0
 29 30  1  0
 30 31  1  0
 30 32  1  0
 32 33  2  0
 32 34  1  0
 34 35  1  0
 35 36  1  0
 35 37  1  0
 37 38  2  0
 37 39  1  0
 39 40  1  0
 40 41  1  0
 40 42  1  0
 42 43  2  0
 42 44  1  0
 44 45  1  0
 45 46  1  0
 46 47  1  0
 46 48  2  0
 45 49  1  0
 49 50  1  0
 50 51  1  0
 25  5  1  0
 14  9  2  0
 51 11  1  0
  1 52  1  0
  1 53  1  0
  1 54  1  0
  4 55  1  0
  5 56  1  1
  6 57  1  0
  6 58  1  0
  8 59  1  0
  8 60  1  0
 10 61  1  0
 12 62  1  0
 14 63  1  0
 15 64  1  0
 15 65  1  0
 17 66  1  0
 17 67  1  0
 18 68  1  6
 19 69  1  0
 22 70  1  1
 23 71  1  0
 23 72  1  0
 23 73  1  0
 24 74  1  0
 29 75  1  0
 30 76  1  1
 31 77  1  0
 31 78  1  0
 31 79  1  0
 34 80  1  0
 35 81  1  1
 36 82  1  0
 36 83  1  0
 36 84  1  0
 39 85  1  0
 40 86  1  6
 41 87  1  0
 41 88  1  0
 41 89  1  0
 44 90  1  0
 45 91  1  1
 47 92  1  0
 47 93  1  0
 49 94  1  0
 49 95  1  0
 51 96  1  0
 51 97  1  0
M  END
