
     RDKit          3D

117119  0  0  0  0  0  0  0  0999 V2000
    9.8099   -3.5301    0.1687 C   0  0  0  0  0  0  0  0  0  0  0  0
    9.6144   -2.4883   -0.8918 C   0  0  0  0  0  0  0  0  0  0  0  0
   10.6329   -1.9180   -1.3715 O   0  0  0  0  0  0  0  0  0  0  0  0
    8.3138   -2.1368   -1.4037 N   0  0  0  0  0  0  0  0  0  0  0  0
    7.0137   -2.4537   -0.7882 C   0  0  1  0  0  0  0  0  0  0  0  0
    6.7403   -3.9780   -0.8273 C   0  0  0  0  0  0  0  0  0  0  0  0
    4.9817   -4.3265   -1.2128 S   0  0  0  0  0  0  0  0  0  0  0  0
    4.3676   -4.4605    0.5054 C   0  0  0  0  0  0  0  0  0  0  0  0
    2.9909   -3.8716    0.6086 C   0  0  0  0  0  0  0  0  0  0  0  0
    1.9059   -4.5041   -0.0138 C   0  0  0  0  0  0  0  0  0  0  0  0
    0.6083   -3.9912    0.1268 C   0  0  0  0  0  0  0  0  0  0  0  0
    0.3982   -2.8448    0.9024 C   0  0  0  0  0  0  0  0  0  0  0  0
    1.4759   -2.1759    1.5048 C   0  0  0  0  0  0  0  0  0  0  0  0
    2.7691   -2.7089    1.3666 C   0  0  0  0  0  0  0  0  0  0  0  0
    1.2683   -0.9617    2.3896 C   0  0  0  0  0  0  0  0  0  0  0  0
   -0.2397   -0.0034    1.9970 S   0  0  0  0  0  0  0  0  0  0  0  0
    0.3017    0.6198    0.3611 C   0  0  0  0  0  0  0  0  0  0  0  0
    0.2896    2.1521    0.2840 C   0  0  2  0  0  0  0  0  0  0  0  0
    1.0844    2.7260    1.3751 N   0  0  0  0  0  0  0  0  0  0  0  0
    2.4120    3.2511    1.2271 C   0  0  0  0  0  0  0  0  0  0  0  0
    2.8445    4.0546    2.0960 O   0  0  0  0  0  0  0  0  0  0  0  0
    3.3090    2.8485    0.0856 C   0  0  1  0  0  0  0  0  0  0  0  0
    3.3320    3.9424   -0.9813 C   0  0  0  0  0  0  0  0  0  0  0  0
    4.6628    2.6072    0.5804 N   0  0  0  0  0  0  0  0  0  0  0  0
    5.0861    1.2982    0.9658 C   0  0  0  0  0  0  0  0  0  0  0  0
    4.7908    0.8707    2.1167 O   0  0  0  0  0  0  0  0  0  0  0  0
    5.8400    0.4064    0.0102 C   0  0  1  0  0  0  0  0  0  0  0  0
    6.5918    1.2144   -1.0522 C   0  0  0  0  0  0  0  0  0  0  0  0
    6.8009   -0.4136    0.7538 N   0  0  0  0  0  0  0  0  0  0  0  0
    6.9138   -1.8296    0.5973 C   0  0  0  0  0  0  0  0  0  0  0  0
    7.0041   -2.5349    1.6342 O   0  0  0  0  0  0  0  0  0  0  0  0
   -1.1119    2.7078    0.3223 C   0  0  0  0  0  0  0  0  0  0  0  0
   -1.8605    2.4986    1.3175 O   0  0  0  0  0  0  0  0  0  0  0  0
   -1.5952    3.5018   -0.7689 N   0  0  0  0  0  0  0  0  0  0  0  0
   -1.8047    4.9434   -0.6388 C   0  0  2  0  0  0  0  0  0  0  0  0
   -0.4449    5.6562   -0.5885 C   0  0  0  0  0  0  0  0  0  0  0  0
   -2.6684    5.2810    0.5596 C   0  0  0  0  0  0  0  0  0  0  0  0
   -2.1193    5.5648    1.6616 O   0  0  0  0  0  0  0  0  0  0  0  0
   -4.1039    5.3334    0.4742 N   0  0  0  0  0  0  0  0  0  0  0  0
   -4.9222    4.4341   -0.3567 C   0  0  2  0  0  0  0  0  0  0  0  0
   -5.2349    5.0855   -1.7066 C   0  0  0  0  0  0  0  0  0  0  0  0
   -6.2263    4.1195    0.3508 C   0  0  0  0  0  0  0  0  0  0  0  0
   -6.9330    5.0793    0.7718 O   0  0  0  0  0  0  0  0  0  0  0  0
   -6.6772    2.7765    0.6014 N   0  0  0  0  0  0  0  0  0  0  0  0
   -6.4743    1.6465   -0.3060 C   0  0  2  0  0  0  0  0  0  0  0  0
   -7.5450    1.6799   -1.4056 C   0  0  0  0  0  0  0  0  0  0  0  0
   -6.5105    0.3655    0.4951 C   0  0  0  0  0  0  0  0  0  0  0  0
   -5.6355    0.1806    1.3840 O   0  0  0  0  0  0  0  0  0  0  0  0
   -7.5249   -0.6263    0.2847 N   0  0  0  0  0  0  0  0  0  0  0  0
   -7.2345   -1.7970   -0.5383 C   0  0  2  0  0  0  0  0  0  0  0  0
   -8.5305   -2.4009   -1.0751 C   0  0  0  0  0  0  0  0  0  0  0  0
   -6.4649   -2.8147    0.2531 C   0  0  0  0  0  0  0  0  0  0  0  0
   -6.7073   -2.9740    1.4772 O   0  0  0  0  0  0  0  0  0  0  0  0
   -5.3636   -3.4991   -0.3579 N   0  0  0  0  0  0  0  0  0  0  0  0
   -4.1769   -3.8376    0.4341 C   0  0  2  0  0  0  0  0  0  0  0  0
   -3.4190   -2.5692    0.7443 C   0  0  0  0  0  0  0  0  0  0  0  0
   -3.0009   -1.6879   -0.2992 N   0  0  0  0  0  0  0  0  0  0  0  0
   -3.1651   -2.2811    1.9423 O   0  0  0  0  0  0  0  0  0  0  0  0
   -3.3044   -4.8579   -0.3169 C   0  0  0  0  0  0  0  0  0  0  0  0
   -1.7741   -5.2590    0.6292 S   0  0  0  0  0  0  0  0  0  0  0  0
   -0.5538   -4.6292   -0.5944 C   0  0  0  0  0  0  0  0  0  0  0  0
    9.4266   -4.5127   -0.1820 H   0  0  0  0  0  0  0  0  0  0  0  0
    9.3113   -3.2392    1.1124 H   0  0  0  0  0  0  0  0  0  0  0  0
   10.8962   -3.6564    0.3844 H   0  0  0  0  0  0  0  0  0  0  0  0
    8.2990   -1.5381   -2.2609 H   0  0  0  0  0  0  0  0  0  0  0  0
    6.2361   -1.9709   -1.4226 H   0  0  0  0  0  0  0  0  0  0  0  0
    7.3273   -4.4273   -1.6519 H   0  0  0  0  0  0  0  0  0  0  0  0
    7.0573   -4.4975    0.0995 H   0  0  0  0  0  0  0  0  0  0  0  0
    4.3268   -5.5358    0.7834 H   0  0  0  0  0  0  0  0  0  0  0  0
    5.0468   -3.9553    1.2107 H   0  0  0  0  0  0  0  0  0  0  0  0
    2.0706   -5.4007   -0.6012 H   0  0  0  0  0  0  0  0  0  0  0  0
   -0.6107   -2.4835    1.0189 H   0  0  0  0  0  0  0  0  0  0  0  0
    3.6019   -2.2147    1.8505 H   0  0  0  0  0  0  0  0  0  0  0  0
    1.1855   -1.3031    3.4481 H   0  0  0  0  0  0  0  0  0  0  0  0
    2.1477   -0.2870    2.3248 H   0  0  0  0  0  0  0  0  0  0  0  0
   -0.3754    0.2064   -0.4047 H   0  0  0  0  0  0  0  0  0  0  0  0
    1.3142    0.2568    0.1133 H   0  0  0  0  0  0  0  0  0  0  0  0
    0.7318    2.4397   -0.6887 H   0  0  0  0  0  0  0  0  0  0  0  0
    0.6398    2.8241    2.3103 H   0  0  0  0  0  0  0  0  0  0  0  0
    2.9338    1.9082   -0.3720 H   0  0  0  0  0  0  0  0  0  0  0  0
    3.9932    3.6376   -1.8181 H   0  0  0  0  0  0  0  0  0  0  0  0
    2.3104    4.1104   -1.3828 H   0  0  0  0  0  0  0  0  0  0  0  0
    3.7095    4.8929   -0.5542 H   0  0  0  0  0  0  0  0  0  0  0  0
    5.2241    3.4194    0.9343 H   0  0  0  0  0  0  0  0  0  0  0  0
    5.0913   -0.2439   -0.4937 H   0  0  0  0  0  0  0  0  0  0  0  0
    7.1184    0.5272   -1.7539 H   0  0  0  0  0  0  0  0  0  0  0  0
    5.8866    1.8226   -1.6547 H   0  0  0  0  0  0  0  0  0  0  0  0
    7.3420    1.8824   -0.5807 H   0  0  0  0  0  0  0  0  0  0  0  0
    7.3167    0.0228    1.5523 H   0  0  0  0  0  0  0  0  0  0  0  0
   -1.4126    3.1473   -1.7349 H   0  0  0  0  0  0  0  0  0  0  0  0
   -2.3138    5.3125   -1.5482 H   0  0  0  0  0  0  0  0  0  0  0  0
    0.1223    5.4448   -1.5249 H   0  0  0  0  0  0  0  0  0  0  0  0
    0.1700    5.3106    0.2747 H   0  0  0  0  0  0  0  0  0  0  0  0
   -0.5862    6.7555   -0.5070 H   0  0  0  0  0  0  0  0  0  0  0  0
   -4.5810    5.9304    1.1869 H   0  0  0  0  0  0  0  0  0  0  0  0
   -4.3560    3.5020   -0.5344 H   0  0  0  0  0  0  0  0  0  0  0  0
   -4.3396    5.1077   -2.3540 H   0  0  0  0  0  0  0  0  0  0  0  0
   -5.5965    6.1284   -1.5719 H   0  0  0  0  0  0  0  0  0  0  0  0
   -6.0045    4.4964   -2.2511 H   0  0  0  0  0  0  0  0  0  0  0  0
   -7.4538    2.6784    1.2953 H   0  0  0  0  0  0  0  0  0  0  0  0
   -5.4780    1.7019   -0.7860 H   0  0  0  0  0  0  0  0  0  0  0  0
   -7.4704    2.6349   -1.9779 H   0  0  0  0  0  0  0  0  0  0  0  0
   -8.5677    1.6114   -0.9702 H   0  0  0  0  0  0  0  0  0  0  0  0
   -7.3830    0.8401   -2.1155 H   0  0  0  0  0  0  0  0  0  0  0  0
   -8.3071   -0.6646    0.9783 H   0  0  0  0  0  0  0  0  0  0  0  0
   -6.6106   -1.4740   -1.4109 H   0  0  0  0  0  0  0  0  0  0  0  0
   -9.2050   -2.7238   -0.2432 H   0  0  0  0  0  0  0  0  0  0  0  0
   -9.0599   -1.6396   -1.6937 H   0  0  0  0  0  0  0  0  0  0  0  0
   -8.3072   -3.2881   -1.7199 H   0  0  0  0  0  0  0  0  0  0  0  0
   -5.2279   -3.3431   -1.3765 H   0  0  0  0  0  0  0  0  0  0  0  0
   -4.4891   -4.3076    1.3908 H   0  0  0  0  0  0  0  0  0  0  0  0
   -3.1931   -1.9220   -1.2991 H   0  0  0  0  0  0  0  0  0  0  0  0
   -2.5616   -0.7726   -0.0588 H   0  0  0  0  0  0  0  0  0  0  0  0
   -3.0918   -4.5050   -1.3422 H   0  0  0  0  0  0  0  0  0  0  0  0
   -3.8809   -5.7934   -0.4197 H   0  0  0  0  0  0  0  0  0  0  0  0
   -0.9863   -3.8545   -1.2562 H   0  0  0  0  0  0  0  0  0  0  0  0
   -0.2147   -5.4786   -1.2293 H   0  0  0  0  0  0  0  0  0  0  0  0
  1  2  1  0
  2  3  2  0
  2  4  1  0
  4  5  1  0
  5  6  1  0
  6  7  1  0
  7  8  1  0
  8  9  1  0
  9 10  2  0
 10 11  1  0
 11 12  2  0
 12 13  1  0
 13 14  2  0
 13 15  1  0
 15 16  1  0
 16 17  1  0
 17 18  1  0
 18 19  1  0
 19 20  1  0
 20 21  2  0
 20 22  1  0
 22 23  1  0
 22 24  1  0
 24 25  1  0
 25 26  2  0
 25 27  1  0
 27 28  1  0
 27 29  1  0
 29 30  1  0
 30 31  2  0
 18 32  1  0
 32 33  2  0
 32 34  1  0
 34 35  1  0
 35 36  1  0
 35 37  1  0
 37 38  2  0
 37 39  1  0
 39 40  1  0
 40 41  1  0
 40 42  1  0
 42 43  2  0
 42 44  1  0
 44 45  1  0
 45 46  1  0
 45 47  1  0
 47 48  2  0
 47 49  1  0
 49 50  1  0
 50 51  1  0
 50 52  1  0
 52 53  2  0
 52 54  1  0
 54 55  1  0
 55 56  1  0
 56 57  1  0
 56 58  2  0
 55 59  1  0
 59 60  1  0
 60 61  1  0
 30  5  1  0
 14  9  1  0
 61 11  1  0
  1 62  1  0
  1 63  1  0
  1 64  1  0
  4 65  1  0
  5 66  1  6
  6 67  1  0
  6 68  1  0
  8 69  1  0
  8 70  1  0
 10 71  1  0
 12 72  1  0
 14 73  1  0
 15 74  1  0
 15 75  1  0
 17 76  1  0
 17 77  1  0
 18 78  1  6
 19 79  1  0
 22 80  1  6
 23 81  1  0
 23 82  1  0
 23 83  1  0
 24 84  1  0
 27 85  1  6
 28 86  1  0
 28 87  1  0
 28 88  1  0
 29 89  1  0
 34 90  1  0
 35 91  1  6
 36 92  1  0
 36 93  1  0
 36 94  1  0
 39 95  1  0
 40 96  1  6
 41 97  1  0
 41 98  1  0
 41 99  1  0
 44100  1  0
 45101  1  6
 46102  1  0
 46103  1  0
 46104  1  0
 49105  1  0
 50106  1  6
 51107  1  0
 51108  1  0
 51109  1  0
 54110  1  0
 55111  1  1
 57112  1  0
 57113  1  0
 59114  1  0
 59115  1  0
 61116  1  0
 61117  1  0
M  END
