
     RDKit          3D

137139  0  0  0  0  0  0  0  0999 V2000
  -10.7201    1.5258   -1.5701 C   0  0  0  0  0  0  0  0  0  0  0  0
   -9.9882    2.8317   -1.4704 C   0  0  0  0  0  0  0  0  0  0  0  0
  -10.6099    3.8975   -1.7208 O   0  0  0  0  0  0  0  0  0  0  0  0
   -8.5977    2.9016   -1.1157 N   0  0  0  0  0  0  0  0  0  0  0  0
   -7.7866    1.7277   -0.7625 C   0  0  1  0  0  0  0  0  0  0  0  0
   -6.2834    2.0502   -0.8729 C   0  0  0  0  0  0  0  0  0  0  0  0
   -5.7178    3.2965    0.3561 S   0  0  0  0  0  0  0  0  0  0  0  0
   -4.7464    2.1540    1.4036 C   0  0  0  0  0  0  0  0  0  0  0  0
   -3.3004    2.1672    0.9837 C   0  0  0  0  0  0  0  0  0  0  0  0
   -2.4570    3.1963    1.4254 C   0  0  0  0  0  0  0  0  0  0  0  0
   -1.0897    3.1693    1.1258 C   0  0  0  0  0  0  0  0  0  0  0  0
   -0.5671    2.0970    0.3877 C   0  0  0  0  0  0  0  0  0  0  0  0
   -1.4043    1.0856   -0.1088 C   0  0  0  0  0  0  0  0  0  0  0  0
   -2.7824    1.1443    0.1778 C   0  0  0  0  0  0  0  0  0  0  0  0
   -0.7757    0.0133   -0.9748 C   0  0  0  0  0  0  0  0  0  0  0  0
   -1.9072   -1.2966   -1.5837 S   0  0  0  0  0  0  0  0  0  0  0  0
   -2.0612   -2.1823    0.0103 C   0  0  0  0  0  0  0  0  0  0  0  0
   -2.8227   -3.5039   -0.1731 C   0  0  2  0  0  0  0  0  0  0  0  0
   -3.3809   -3.9162    1.1207 N   0  0  0  0  0  0  0  0  0  0  0  0
   -4.7804   -4.0355    1.4369 C   0  0  0  0  0  0  0  0  0  0  0  0
   -5.0963   -4.3283    2.6191 O   0  0  0  0  0  0  0  0  0  0  0  0
   -5.8782   -3.8547    0.4064 C   0  0  1  0  0  0  0  0  0  0  0  0
   -5.9855   -5.1011   -0.4756 C   0  0  0  0  0  0  0  0  0  0  0  0
   -7.1619   -3.6193    1.0740 N   0  0  0  0  0  0  0  0  0  0  0  0
   -7.6286   -2.2973    1.3762 C   0  0  0  0  0  0  0  0  0  0  0  0
   -7.8150   -1.9849    2.5831 O   0  0  0  0  0  0  0  0  0  0  0  0
   -7.9182   -1.2927    0.2756 C   0  0  1  0  0  0  0  0  0  0  0  0
   -8.8067   -1.9293   -0.7956 C   0  0  0  0  0  0  0  0  0  0  0  0
   -8.5992   -0.1183    0.8303 N   0  0  0  0  0  0  0  0  0  0  0  0
   -8.1716    1.2322    0.6133 C   0  0  0  0  0  0  0  0  0  0  0  0
   -8.2318    2.0467    1.5745 O   0  0  0  0  0  0  0  0  0  0  0  0
   -1.9091   -4.5701   -0.7327 C   0  0  0  0  0  0  0  0  0  0  0  0
   -1.5095   -4.4625   -1.9240 O   0  0  0  0  0  0  0  0  0  0  0  0
   -1.5123   -5.7102    0.0479 N   0  0  0  0  0  0  0  0  0  0  0  0
   -0.1086   -6.0647    0.2993 C   0  0  2  0  0  0  0  0  0  0  0  0
    0.4589   -5.1783    1.4104 C   0  0  0  0  0  0  0  0  0  0  0  0
    0.7141   -6.1033   -0.9754 C   0  0  0  0  0  0  0  0  0  0  0  0
    0.2408   -6.7269   -1.9625 O   0  0  0  0  0  0  0  0  0  0  0  0
    2.0759   -5.6456   -1.0512 N   0  0  0  0  0  0  0  0  0  0  0  0
    2.4884   -4.2326   -0.9665 C   0  0  2  0  0  0  0  0  0  0  0  0
    1.6406   -3.3544   -1.8927 C   0  0  0  0  0  0  0  0  0  0  0  0
    3.9508   -4.0896   -1.3407 C   0  0  0  0  0  0  0  0  0  0  0  0
    4.3440   -4.5904   -2.4321 O   0  0  0  0  0  0  0  0  0  0  0  0
    4.9156   -3.4176   -0.5075 N   0  0  0  0  0  0  0  0  0  0  0  0
    4.6203   -2.7079    0.7454 C   0  0  2  0  0  0  0  0  0  0  0  0
    3.7884   -1.4348    0.5059 C   0  0  0  0  0  0  0  0  0  0  0  0
    5.8965   -2.4050    1.5112 C   0  0  0  0  0  0  0  0  0  0  0  0
    6.0379   -2.9340    2.6472 O   0  0  0  0  0  0  0  0  0  0  0  0
    6.9501   -1.5474    1.0246 N   0  0  0  0  0  0  0  0  0  0  0  0
    7.0304   -0.9138   -0.2959 C   0  0  2  0  0  0  0  0  0  0  0  0
    8.2926   -1.4117   -1.0074 C   0  0  0  0  0  0  0  0  0  0  0  0
    6.9829    0.5872   -0.1196 C   0  0  0  0  0  0  0  0  0  0  0  0
    6.0232    1.0854    0.5263 O   0  0  0  0  0  0  0  0  0  0  0  0
    7.9863    1.4586   -0.6792 N   0  0  0  0  0  0  0  0  0  0  0  0
    8.7680    2.4088    0.1256 C   0  0  2  0  0  0  0  0  0  0  0  0
   10.0181    1.7042    0.6657 C   0  0  0  0  0  0  0  0  0  0  0  0
    7.9504    3.0407    1.2337 C   0  0  0  0  0  0  0  0  0  0  0  0
    8.1212    2.6660    2.4261 O   0  0  0  0  0  0  0  0  0  0  0  0
    6.9795    4.0680    0.9786 N   0  0  0  0  0  0  0  0  0  0  0  0
    6.5561    4.5249   -0.3522 C   0  0  2  0  0  0  0  0  0  0  0  0
    7.1177    5.9200   -0.6215 C   0  0  0  0  0  0  0  0  0  0  0  0
    5.0503    4.5411   -0.4525 C   0  0  0  0  0  0  0  0  0  0  0  0
    4.4914    3.8875   -1.3781 O   0  0  0  0  0  0  0  0  0  0  0  0
    4.2548    5.2763    0.4924 N   0  0  0  0  0  0  0  0  0  0  0  0
    2.9306    5.8402    0.1983 C   0  0  1  0  0  0  0  0  0  0  0  0
    3.0613    6.9321   -0.8349 C   0  0  0  0  0  0  0  0  0  0  0  0
    3.4073    8.2555   -0.4248 N   0  0  0  0  0  0  0  0  0  0  0  0
    2.9312    6.6810   -2.0625 O   0  0  0  0  0  0  0  0  0  0  0  0
    1.9122    4.7511   -0.1909 C   0  0  0  0  0  0  0  0  0  0  0  0
    0.1969    5.3480    0.0931 S   0  0  0  0  0  0  0  0  0  0  0  0
   -0.1972    4.3035    1.5478 C   0  0  0  0  0  0  0  0  0  0  0  0
  -11.7779    1.6972   -1.8630 H   0  0  0  0  0  0  0  0  0  0  0  0
  -10.2470    0.8813   -2.3420 H   0  0  0  0  0  0  0  0  0  0  0  0
  -10.7130    1.0044   -0.5923 H   0  0  0  0  0  0  0  0  0  0  0  0
   -8.1511    3.8478   -1.1238 H   0  0  0  0  0  0  0  0  0  0  0  0
   -7.9798    0.9309   -1.5084 H   0  0  0  0  0  0  0  0  0  0  0  0
   -5.6930    1.1104   -0.8176 H   0  0  0  0  0  0  0  0  0  0  0  0
   -6.0837    2.4716   -1.8805 H   0  0  0  0  0  0  0  0  0  0  0  0
   -5.1680    1.1282    1.3836 H   0  0  0  0  0  0  0  0  0  0  0  0
   -4.8281    2.4952    2.4576 H   0  0  0  0  0  0  0  0  0  0  0  0
   -2.8679    4.0059    2.0147 H   0  0  0  0  0  0  0  0  0  0  0  0
    0.4932    2.0600    0.1820 H   0  0  0  0  0  0  0  0  0  0  0  0
   -3.4633    0.4030   -0.2137 H   0  0  0  0  0  0  0  0  0  0  0  0
   -0.3491    0.5086   -1.8733 H   0  0  0  0  0  0  0  0  0  0  0  0
    0.0721   -0.4554   -0.4290 H   0  0  0  0  0  0  0  0  0  0  0  0
   -1.0576   -2.3723    0.4481 H   0  0  0  0  0  0  0  0  0  0  0  0
   -2.6195   -1.5415    0.7246 H   0  0  0  0  0  0  0  0  0  0  0  0
   -3.6293   -3.3443   -0.9129 H   0  0  0  0  0  0  0  0  0  0  0  0
   -2.7034   -4.0675    1.9046 H   0  0  0  0  0  0  0  0  0  0  0  0
   -5.6477   -2.9778   -0.2341 H   0  0  0  0  0  0  0  0  0  0  0  0
   -6.2156   -5.9953    0.1372 H   0  0  0  0  0  0  0  0  0  0  0  0
   -6.7944   -4.9639   -1.2264 H   0  0  0  0  0  0  0  0  0  0  0  0
   -5.0340   -5.2802   -1.0218 H   0  0  0  0  0  0  0  0  0  0  0  0
   -7.5698   -4.4044    1.6326 H   0  0  0  0  0  0  0  0  0  0  0  0
   -6.9574   -0.9904   -0.1906 H   0  0  0  0  0  0  0  0  0  0  0  0
   -8.2885   -2.7855   -1.2738 H   0  0  0  0  0  0  0  0  0  0  0  0
   -9.7634   -2.2819   -0.3493 H   0  0  0  0  0  0  0  0  0  0  0  0
   -9.0411   -1.1914   -1.5880 H   0  0  0  0  0  0  0  0  0  0  0  0
   -9.3995   -0.2710    1.4868 H   0  0  0  0  0  0  0  0  0  0  0  0
   -2.2132   -6.1233    0.6991 H   0  0  0  0  0  0  0  0  0  0  0  0
   -0.0988   -7.1044    0.6956 H   0  0  0  0  0  0  0  0  0  0  0  0
    1.5108   -5.4549    1.6347 H   0  0  0  0  0  0  0  0  0  0  0  0
   -0.1337   -5.3240    2.3415 H   0  0  0  0  0  0  0  0  0  0  0  0
    0.3886   -4.1081    1.1350 H   0  0  0  0  0  0  0  0  0  0  0  0
    2.7598   -6.3388   -1.4289 H   0  0  0  0  0  0  0  0  0  0  0  0
    2.3422   -3.8839    0.0634 H   0  0  0  0  0  0  0  0  0  0  0  0
    1.5523   -3.8159   -2.9011 H   0  0  0  0  0  0  0  0  0  0  0  0
    0.6310   -3.2161   -1.4593 H   0  0  0  0  0  0  0  0  0  0  0  0
    2.0943   -2.3439   -1.9967 H   0  0  0  0  0  0  0  0  0  0  0  0
    5.9157   -3.5300   -0.7910 H   0  0  0  0  0  0  0  0  0  0  0  0
    4.0231   -3.3854    1.3956 H   0  0  0  0  0  0  0  0  0  0  0  0
    4.0515   -0.9393   -0.4513 H   0  0  0  0  0  0  0  0  0  0  0  0
    3.9190   -0.7153    1.3387 H   0  0  0  0  0  0  0  0  0  0  0  0
    2.7069   -1.6810    0.4629 H   0  0  0  0  0  0  0  0  0  0  0  0
    7.7460   -1.3662    1.6802 H   0  0  0  0  0  0  0  0  0  0  0  0
    6.1760   -1.2015   -0.9298 H   0  0  0  0  0  0  0  0  0  0  0  0
    8.3018   -1.0734   -2.0643 H   0  0  0  0  0  0  0  0  0  0  0  0
    8.3067   -2.5221   -1.0134 H   0  0  0  0  0  0  0  0  0  0  0  0
    9.2078   -1.0524   -0.4890 H   0  0  0  0  0  0  0  0  0  0  0  0
    8.4259    1.1726   -1.5768 H   0  0  0  0  0  0  0  0  0  0  0  0
    9.1244    3.2244   -0.5346 H   0  0  0  0  0  0  0  0  0  0  0  0
    9.7372    0.8398    1.3078 H   0  0  0  0  0  0  0  0  0  0  0  0
   10.6357    2.4120    1.2587 H   0  0  0  0  0  0  0  0  0  0  0  0
   10.6346    1.3297   -0.1776 H   0  0  0  0  0  0  0  0  0  0  0  0
    6.6166    4.5754    1.8142 H   0  0  0  0  0  0  0  0  0  0  0  0
    6.9442    3.8496   -1.1421 H   0  0  0  0  0  0  0  0  0  0  0  0
    6.8215    6.2632   -1.6364 H   0  0  0  0  0  0  0  0  0  0  0  0
    8.2254    5.8925   -0.5766 H   0  0  0  0  0  0  0  0  0  0  0  0
    6.7423    6.6513    0.1273 H   0  0  0  0  0  0  0  0  0  0  0  0
    4.6720    5.5345    1.4123 H   0  0  0  0  0  0  0  0  0  0  0  0
    2.5610    6.3166    1.1329 H   0  0  0  0  0  0  0  0  0  0  0  0
    3.6077    8.4704    0.5779 H   0  0  0  0  0  0  0  0  0  0  0  0
    3.5452    9.0145   -1.1324 H   0  0  0  0  0  0  0  0  0  0  0  0
    2.0032    4.4830   -1.2629 H   0  0  0  0  0  0  0  0  0  0  0  0
    2.1241    3.8188    0.3754 H   0  0  0  0  0  0  0  0  0  0  0  0
    0.7091    3.9095    2.0548 H   0  0  0  0  0  0  0  0  0  0  0  0
   -0.7162    4.9450    2.2937 H   0  0  0  0  0  0  0  0  0  0  0  0
  1  2  1  0
  2  3  2  0
  2  4  1  0
  4  5  1  0
  5  6  1  0
  6  7  1  0
  7  8  1  0
  8  9  1  0
  9 10  2  0
 10 11  1  0
 11 12  2  0
 12 13  1  0
 13 14  2  0
 13 15  1  0
 15 16  1  0
 16 17  1  0
 17 18  1  0
 18 19  1  0
 19 20  1  0
 20 21  2  0
 20 22  1  0
 22 23  1  0
 22 24  1  0
 24 25  1  0
 25 26  2  0
 25 27  1  0
 27 28  1  0
 27 29  1  0
 29 30  1  0
 30 31  2  0
 18 32  1  0
 32 33  2  0
 32 34  1  0
 34 35  1  0
 35 36  1  0
 35 37  1  0
 37 38  2  0
 37 39  1  0
 39 40  1  0
 40 41  1  0
 40 42  1  0
 42 43  2  0
 42 44  1  0
 44 45  1  0
 45 46  1  0
 45 47  1  0
 47 48  2  0
 47 49  1  0
 49 50  1  0
 50 51  1  0
 50 52  1  0
 52 53  2  0
 52 54  1  0
 54 55  1  0
 55 56  1  0
 55 57  1  0
 57 58  2  0
 57 59  1  0
 59 60  1  0
 60 61  1  0
 60 62  1  0
 62 63  2  0
 62 64  1  0
 64 65  1  0
 65 66  1  0
 66 67  1  0
 66 68  2  0
 65 69  1  0
 69 70  1  0
 70 71  1  0
 30  5  1  0
 14  9  1  0
 71 11  1  0
  1 72  1  0
  1 73  1  0
  1 74  1  0
  4 75  1  0
  5 76  1  6
  6 77  1  0
  6 78  1  0
  8 79  1  0
  8 80  1  0
 10 81  1  0
 12 82  1  0
 14 83  1  0
 15 84  1  0
 15 85  1  0
 17 86  1  0
 17 87  1  0
 18 88  1  6
 19 89  1  0
 22 90  1  6
 23 91  1  0
 23 92  1  0
 23 93  1  0
 24 94  1  0
 27 95  1  6
 28 96  1  0
 28 97  1  0
 28 98  1  0
 29 99  1  0
 34100  1  0
 35101  1  1
 36102  1  0
 36103  1  0
 36104  1  0
 39105  1  0
 40106  1  1
 41107  1  0
 41108  1  0
 41109  1  0
 44110  1  0
 45111  1  1
 46112  1  0
 46113  1  0
 46114  1  0
 49115  1  0
 50116  1  6
 51117  1  0
 51118  1  0
 51119  1  0
 54120  1  0
 55121  1  6
 56122  1  0
 56123  1  0
 56124  1  0
 59125  1  0
 60126  1  6
 61127  1  0
 61128  1  0
 61129  1  0
 64130  1  0
 65131  1  1
 67132  1  0
 67133  1  0
 69134  1  0
 69135  1  0
 71136  1  0
 71137  1  0
M  END
