
     RDKit          3D

117119  0  0  0  0  0  0  0  0999 V2000
   -9.3580    3.6577    2.3125 C   0  0  0  0  0  0  0  0  0  0  0  0
   -8.7771    2.9095    1.1560 C   0  0  0  0  0  0  0  0  0  0  0  0
   -9.1383    3.2097   -0.0133 O   0  0  0  0  0  0  0  0  0  0  0  0
   -7.8175    1.8631    1.3844 N   0  0  0  0  0  0  0  0  0  0  0  0
   -6.9569    1.2639    0.3477 C   0  0  2  0  0  0  0  0  0  0  0  0
   -6.2226    2.3331   -0.4810 C   0  0  0  0  0  0  0  0  0  0  0  0
   -5.2736    3.4555    0.6103 S   0  0  0  0  0  0  0  0  0  0  0  0
   -4.1929    4.1724   -0.6841 C   0  0  0  0  0  0  0  0  0  0  0  0
   -2.7884    3.6642   -0.5108 C   0  0  0  0  0  0  0  0  0  0  0  0
   -1.7675    4.5192   -0.0616 C   0  0  0  0  0  0  0  0  0  0  0  0
   -0.4717    4.0179    0.1639 C   0  0  0  0  0  0  0  0  0  0  0  0
   -0.2000    2.6611   -0.0770 C   0  0  0  0  0  0  0  0  0  0  0  0
   -1.2008    1.8149   -0.5723 C   0  0  0  0  0  0  0  0  0  0  0  0
   -2.4910    2.3161   -0.7779 C   0  0  0  0  0  0  0  0  0  0  0  0
   -0.9189    0.3615   -0.8018 C   0  0  0  0  0  0  0  0  0  0  0  0
   -1.2993   -0.5818    0.7179 S   0  0  0  0  0  0  0  0  0  0  0  0
   -1.1769   -2.2012   -0.1197 C   0  0  0  0  0  0  0  0  0  0  0  0
   -1.3098   -3.3926    0.8425 C   0  0  2  0  0  0  0  0  0  0  0  0
   -2.5411   -3.2908    1.6344 N   0  0  0  0  0  0  0  0  0  0  0  0
   -3.7197   -4.0663    1.3682 C   0  0  0  0  0  0  0  0  0  0  0  0
   -4.4284   -4.4621    2.3360 O   0  0  0  0  0  0  0  0  0  0  0  0
   -4.1894   -4.3183   -0.0450 C   0  0  1  0  0  0  0  0  0  0  0  0
   -4.2439   -5.8215   -0.3387 C   0  0  0  0  0  0  0  0  0  0  0  0
   -5.4999   -3.6966   -0.2644 N   0  0  0  0  0  0  0  0  0  0  0  0
   -5.7244   -2.3158    0.0440 C   0  0  0  0  0  0  0  0  0  0  0  0
   -5.9950   -1.9863    1.2300 O   0  0  0  0  0  0  0  0  0  0  0  0
   -5.7324   -1.2544   -1.0217 C   0  0  1  0  0  0  0  0  0  0  0  0
   -5.1372   -1.7358   -2.3514 C   0  0  0  0  0  0  0  0  0  0  0  0
   -7.1097   -0.7919   -1.2288 N   0  0  0  0  0  0  0  0  0  0  0  0
   -7.7313    0.3109   -0.5389 C   0  0  0  0  0  0  0  0  0  0  0  0
   -8.9659    0.4939   -0.7046 O   0  0  0  0  0  0  0  0  0  0  0  0
   -0.0967   -3.4909    1.7514 C   0  0  0  0  0  0  0  0  0  0  0  0
   -0.0448   -2.7847    2.7949 O   0  0  0  0  0  0  0  0  0  0  0  0
    0.9967   -4.3739    1.4664 N   0  0  0  0  0  0  0  0  0  0  0  0
    1.2986   -4.9264    0.1402 C   0  0  2  0  0  0  0  0  0  0  0  0
    0.8135   -6.3801    0.0825 C   0  0  0  0  0  0  0  0  0  0  0  0
    2.7852   -4.8187   -0.1375 C   0  0  0  0  0  0  0  0  0  0  0  0
    3.3715   -5.7093   -0.8129 O   0  0  0  0  0  0  0  0  0  0  0  0
    3.5305   -3.6805    0.3314 N   0  0  0  0  0  0  0  0  0  0  0  0
    5.0000   -3.6427    0.3176 C   0  0  2  0  0  0  0  0  0  0  0  0
    5.5624   -4.6980    1.2802 C   0  0  0  0  0  0  0  0  0  0  0  0
    5.4914   -2.2588    0.6768 C   0  0  0  0  0  0  0  0  0  0  0  0
    5.9199   -2.0228    1.8368 O   0  0  0  0  0  0  0  0  0  0  0  0
    5.4262   -1.1971   -0.2873 N   0  0  0  0  0  0  0  0  0  0  0  0
    6.5869   -0.3958   -0.7046 C   0  0  2  0  0  0  0  0  0  0  0  0
    7.4960   -1.2345   -1.6142 C   0  0  0  0  0  0  0  0  0  0  0  0
    7.3529    0.1630    0.4851 C   0  0  0  0  0  0  0  0  0  0  0  0
    8.1481   -0.5883    1.1126 O   0  0  0  0  0  0  0  0  0  0  0  0
    7.1758    1.5091    0.9568 N   0  0  0  0  0  0  0  0  0  0  0  0
    6.8420    2.6610    0.1041 C   0  0  2  0  0  0  0  0  0  0  0  0
    7.9452    2.8763   -0.9403 C   0  0  0  0  0  0  0  0  0  0  0  0
    6.6981    3.9135    0.9498 C   0  0  0  0  0  0  0  0  0  0  0  0
    7.6462    4.2352    1.7210 O   0  0  0  0  0  0  0  0  0  0  0  0
    5.5293    4.7546    0.9158 N   0  0  0  0  0  0  0  0  0  0  0  0
    4.4326    4.6288   -0.0562 C   0  0  2  0  0  0  0  0  0  0  0  0
    4.9448    4.9106   -1.4493 C   0  0  0  0  0  0  0  0  0  0  0  0
    5.6269    6.1378   -1.7309 N   0  0  0  0  0  0  0  0  0  0  0  0
    4.7856    4.0573   -2.3636 O   0  0  0  0  0  0  0  0  0  0  0  0
    3.2804    5.5833    0.3006 C   0  0  0  0  0  0  0  0  0  0  0  0
    1.8134    5.2048   -0.7300 S   0  0  0  0  0  0  0  0  0  0  0  0
    0.6335    4.9134    0.6417 C   0  0  0  0  0  0  0  0  0  0  0  0
   -8.9584    3.2754    3.2747 H   0  0  0  0  0  0  0  0  0  0  0  0
  -10.4626    3.5561    2.3032 H   0  0  0  0  0  0  0  0  0  0  0  0
   -9.0940    4.7269    2.2303 H   0  0  0  0  0  0  0  0  0  0  0  0
   -7.6365    1.5823    2.3727 H   0  0  0  0  0  0  0  0  0  0  0  0
   -6.1862    0.6751    0.8796 H   0  0  0  0  0  0  0  0  0  0  0  0
   -6.9278    2.9359   -1.0923 H   0  0  0  0  0  0  0  0  0  0  0  0
   -5.5428    1.8214   -1.1835 H   0  0  0  0  0  0  0  0  0  0  0  0
   -4.5539    3.9427   -1.7104 H   0  0  0  0  0  0  0  0  0  0  0  0
   -4.2248    5.2763   -0.5707 H   0  0  0  0  0  0  0  0  0  0  0  0
   -1.9819    5.5606    0.1400 H   0  0  0  0  0  0  0  0  0  0  0  0
    0.7944    2.2748    0.1155 H   0  0  0  0  0  0  0  0  0  0  0  0
   -3.2633    1.6499   -1.1307 H   0  0  0  0  0  0  0  0  0  0  0  0
    0.1522    0.2098   -1.0689 H   0  0  0  0  0  0  0  0  0  0  0  0
   -1.5328   -0.0099   -1.6479 H   0  0  0  0  0  0  0  0  0  0  0  0
   -0.2099   -2.2546   -0.6591 H   0  0  0  0  0  0  0  0  0  0  0  0
   -1.9734   -2.2446   -0.8873 H   0  0  0  0  0  0  0  0  0  0  0  0
   -1.3679   -4.3118    0.2230 H   0  0  0  0  0  0  0  0  0  0  0  0
   -2.5256   -2.7514    2.5301 H   0  0  0  0  0  0  0  0  0  0  0  0
   -3.4798   -3.8758   -0.7673 H   0  0  0  0  0  0  0  0  0  0  0  0
   -3.2387   -6.2736   -0.1798 H   0  0  0  0  0  0  0  0  0  0  0  0
   -4.9849   -6.3254    0.3247 H   0  0  0  0  0  0  0  0  0  0  0  0
   -4.5458   -5.9824   -1.3989 H   0  0  0  0  0  0  0  0  0  0  0  0
   -6.3036   -4.2718   -0.6029 H   0  0  0  0  0  0  0  0  0  0  0  0
   -5.0829   -0.4260   -0.6744 H   0  0  0  0  0  0  0  0  0  0  0  0
   -4.0759   -2.0280   -2.2154 H   0  0  0  0  0  0  0  0  0  0  0  0
   -5.7089   -2.5988   -2.7543 H   0  0  0  0  0  0  0  0  0  0  0  0
   -5.1699   -0.9178   -3.1032 H   0  0  0  0  0  0  0  0  0  0  0  0
   -7.7356   -1.3932   -1.8118 H   0  0  0  0  0  0  0  0  0  0  0  0
    1.6516   -4.6028    2.2550 H   0  0  0  0  0  0  0  0  0  0  0  0
    0.7826   -4.3472   -0.6513 H   0  0  0  0  0  0  0  0  0  0  0  0
    1.3275   -6.9880    0.8617 H   0  0  0  0  0  0  0  0  0  0  0  0
    1.0212   -6.8289   -0.9133 H   0  0  0  0  0  0  0  0  0  0  0  0
   -0.2798   -6.4429    0.2560 H   0  0  0  0  0  0  0  0  0  0  0  0
    3.0019   -2.8582    0.7069 H   0  0  0  0  0  0  0  0  0  0  0  0
    5.3627   -3.8847   -0.7069 H   0  0  0  0  0  0  0  0  0  0  0  0
    5.2600   -5.7168    0.9722 H   0  0  0  0  0  0  0  0  0  0  0  0
    5.1932   -4.5226    2.3115 H   0  0  0  0  0  0  0  0  0  0  0  0
    6.6695   -4.6574    1.2908 H   0  0  0  0  0  0  0  0  0  0  0  0
    4.5702   -1.1547   -0.8950 H   0  0  0  0  0  0  0  0  0  0  0  0
    6.2122    0.4412   -1.3284 H   0  0  0  0  0  0  0  0  0  0  0  0
    6.9282   -1.5623   -2.5110 H   0  0  0  0  0  0  0  0  0  0  0  0
    8.3681   -0.6383   -1.9579 H   0  0  0  0  0  0  0  0  0  0  0  0
    7.8639   -2.1391   -1.0842 H   0  0  0  0  0  0  0  0  0  0  0  0
    7.4037    1.6720    1.9617 H   0  0  0  0  0  0  0  0  0  0  0  0
    5.8919    2.4521   -0.4228 H   0  0  0  0  0  0  0  0  0  0  0  0
    8.0171    2.0003   -1.6175 H   0  0  0  0  0  0  0  0  0  0  0  0
    7.7220    3.7652   -1.5659 H   0  0  0  0  0  0  0  0  0  0  0  0
    8.9293    3.0262   -0.4412 H   0  0  0  0  0  0  0  0  0  0  0  0
    5.4920    5.5254    1.6208 H   0  0  0  0  0  0  0  0  0  0  0  0
    4.0298    3.5939    0.0029 H   0  0  0  0  0  0  0  0  0  0  0  0
    5.7890    6.8452   -0.9790 H   0  0  0  0  0  0  0  0  0  0  0  0
    6.0025    6.3204   -2.6812 H   0  0  0  0  0  0  0  0  0  0  0  0
    3.0522    5.4798    1.3822 H   0  0  0  0  0  0  0  0  0  0  0  0
    3.5746    6.6394    0.1203 H   0  0  0  0  0  0  0  0  0  0  0  0
    1.1277    4.4106    1.5027 H   0  0  0  0  0  0  0  0  0  0  0  0
    0.2435    5.8946    0.9820 H   0  0  0  0  0  0  0  0  0  0  0  0
  1  2  1  0
  2  3  2  0
  2  4  1  0
  4  5  1  0
  5  6  1  0
  6  7  1  0
  7  8  1  0
  8  9  1  0
  9 10  2  0
 10 11  1  0
 11 12  2  0
 12 13  1  0
 13 14  2  0
 13 15  1  0
 15 16  1  0
 16 17  1  0
 17 18  1  0
 18 19  1  0
 19 20  1  0
 20 21  2  0
 20 22  1  0
 22 23  1  0
 22 24  1  0
 24 25  1  0
 25 26  2  0
 25 27  1  0
 27 28  1  0
 27 29  1  0
 29 30  1  0
 30 31  2  0
 18 32  1  0
 32 33  2  0
 32 34  1  0
 34 35  1  0
 35 36  1  0
 35 37  1  0
 37 38  2  0
 37 39  1  0
 39 40  1  0
 40 41  1  0
 40 42  1  0
 42 43  2  0
 42 44  1  0
 44 45  1  0
 45 46  1  0
 45 47  1  0
 47 48  2  0
 47 49  1  0
 49 50  1  0
 50 51  1  0
 50 52  1  0
 52 53  2  0
 52 54  1  0
 54 55  1  0
 55 56  1  0
 56 57  1  0
 56 58  2  0
 55 59  1  0
 59 60  1  0
 60 61  1  0
 30  5  1  0
 14  9  1  0
 61 11  1  0
  1 62  1  0
  1 63  1  0
  1 64  1  0
  4 65  1  0
  5 66  1  1
  6 67  1  0
  6 68  1  0
  8 69  1  0
  8 70  1  0
 10 71  1  0
 12 72  1  0
 14 73  1  0
 15 74  1  0
 15 75  1  0
 17 76  1  0
 17 77  1  0
 18 78  1  6
 19 79  1  0
 22 80  1  6
 23 81  1  0
 23 82  1  0
 23 83  1  0
 24 84  1  0
 27 85  1  1
 28 86  1  0
 28 87  1  0
 28 88  1  0
 29 89  1  0
 34 90  1  0
 35 91  1  6
 36 92  1  0
 36 93  1  0
 36 94  1  0
 39 95  1  0
 40 96  1  6
 41 97  1  0
 41 98  1  0
 41 99  1  0
 44100  1  0
 45101  1  6
 46102  1  0
 46103  1  0
 46104  1  0
 49105  1  0
 50106  1  6
 51107  1  0
 51108  1  0
 51109  1  0
 54110  1  0
 55111  1  6
 57112  1  0
 57113  1  0
 59114  1  0
 59115  1  0
 61116  1  0
 61117  1  0
M  END
