
     RDKit          3D

127129  0  0  0  0  0  0  0  0999 V2000
    9.7822    3.3458   -0.5652 C   0  0  0  0  0  0  0  0  0  0  0  0
    9.2720    3.0442    0.8125 C   0  0  0  0  0  0  0  0  0  0  0  0
    9.8725    3.5368    1.8077 O   0  0  0  0  0  0  0  0  0  0  0  0
    8.1398    2.1877    1.0433 N   0  0  0  0  0  0  0  0  0  0  0  0
    6.9498    2.0962    0.1898 C   0  0  1  0  0  0  0  0  0  0  0  0
    6.2356    3.4649    0.1215 C   0  0  0  0  0  0  0  0  0  0  0  0
    4.5955    3.3431   -0.6821 S   0  0  0  0  0  0  0  0  0  0  0  0
    3.6887    2.8089    0.8144 C   0  0  0  0  0  0  0  0  0  0  0  0
    2.2845    2.4015    0.4659 C   0  0  0  0  0  0  0  0  0  0  0  0
    1.2000    2.9011    1.2003 C   0  0  0  0  0  0  0  0  0  0  0  0
   -0.1073    2.4866    0.9091 C   0  0  0  0  0  0  0  0  0  0  0  0
   -0.3298    1.5865   -0.1482 C   0  0  0  0  0  0  0  0  0  0  0  0
    0.7526    1.0493   -0.8616 C   0  0  0  0  0  0  0  0  0  0  0  0
    2.0572    1.4482   -0.5393 C   0  0  0  0  0  0  0  0  0  0  0  0
    0.5356    0.0618   -1.9777 C   0  0  0  0  0  0  0  0  0  0  0  0
   -0.5448   -1.3248   -1.4774 S   0  0  0  0  0  0  0  0  0  0  0  0
    0.4975   -2.0094   -0.1242 C   0  0  0  0  0  0  0  0  0  0  0  0
    1.1980   -3.3261   -0.4979 C   0  0  2  0  0  0  0  0  0  0  0  0
    2.2869   -3.0707   -1.4445 N   0  0  0  0  0  0  0  0  0  0  0  0
    3.5646   -3.6968   -1.2826 C   0  0  0  0  0  0  0  0  0  0  0  0
    3.7621   -4.8364   -1.7914 O   0  0  0  0  0  0  0  0  0  0  0  0
    4.6450   -3.0256   -0.4698 C   0  0  1  0  0  0  0  0  0  0  0  0
    4.6985   -3.6257    0.9344 C   0  0  0  0  0  0  0  0  0  0  0  0
    5.9460   -3.2001   -1.1230 N   0  0  0  0  0  0  0  0  0  0  0  0
    6.8001   -2.1170   -1.5240 C   0  0  0  0  0  0  0  0  0  0  0  0
    7.3960   -2.1971   -2.6401 O   0  0  0  0  0  0  0  0  0  0  0  0
    7.1191   -0.9751   -0.5810 C   0  0  1  0  0  0  0  0  0  0  0  0
    8.0872   -1.4551    0.5023 C   0  0  0  0  0  0  0  0  0  0  0  0
    7.7208    0.1529   -1.3083 N   0  0  0  0  0  0  0  0  0  0  0  0
    7.2913    1.5147   -1.1671 C   0  0  0  0  0  0  0  0  0  0  0  0
    7.2543    2.2399   -2.1954 O   0  0  0  0  0  0  0  0  0  0  0  0
    0.2596   -4.3772   -1.0510 C   0  0  0  0  0  0  0  0  0  0  0  0
    0.0085   -4.4042   -2.2860 O   0  0  0  0  0  0  0  0  0  0  0  0
   -0.2809   -5.4094   -0.2157 N   0  0  0  0  0  0  0  0  0  0  0  0
   -1.1075   -5.1176    0.9596 C   0  0  2  0  0  0  0  0  0  0  0  0
   -0.2706   -5.2294    2.2389 C   0  0  0  0  0  0  0  0  0  0  0  0
   -2.2869   -6.0638    1.0187 C   0  0  0  0  0  0  0  0  0  0  0  0
   -2.1113   -7.2516    1.4003 O   0  0  0  0  0  0  0  0  0  0  0  0
   -3.6206   -5.6292    0.6939 N   0  0  0  0  0  0  0  0  0  0  0  0
   -4.0075   -5.0632   -0.6063 C   0  0  2  0  0  0  0  0  0  0  0  0
   -3.5404   -5.9748   -1.7515 C   0  0  0  0  0  0  0  0  0  0  0  0
   -3.5257   -3.6375   -0.7460 C   0  0  0  0  0  0  0  0  0  0  0  0
   -2.8614   -3.2968   -1.7616 O   0  0  0  0  0  0  0  0  0  0  0  0
   -3.7759   -2.6642    0.2781 N   0  0  0  0  0  0  0  0  0  0  0  0
   -5.1081   -2.1567    0.6357 C   0  0  2  0  0  0  0  0  0  0  0  0
   -5.8980   -3.1613    1.4781 C   0  0  0  0  0  0  0  0  0  0  0  0
   -5.8681   -1.7249   -0.5991 C   0  0  0  0  0  0  0  0  0  0  0  0
   -6.1610   -2.5803   -1.4820 O   0  0  0  0  0  0  0  0  0  0  0  0
   -6.1796   -0.3485   -0.8518 N   0  0  0  0  0  0  0  0  0  0  0  0
   -6.6630    0.5749    0.1752 C   0  0  2  0  0  0  0  0  0  0  0  0
   -8.0014    1.1684   -0.2673 C   0  0  0  0  0  0  0  0  0  0  0  0
   -5.6219    1.6334    0.4297 C   0  0  0  0  0  0  0  0  0  0  0  0
   -4.5383    1.3148    0.9867 O   0  0  0  0  0  0  0  0  0  0  0  0
   -5.8288    2.9930    0.0237 N   0  0  0  0  0  0  0  0  0  0  0  0
   -6.2051    4.0123    0.9993 C   0  0  2  0  0  0  0  0  0  0  0  0
   -7.1189    5.0496    0.3466 C   0  0  0  0  0  0  0  0  0  0  0  0
   -4.9693    4.6250    1.6054 C   0  0  0  0  0  0  0  0  0  0  0  0
   -4.4205    4.0507    2.5841 O   0  0  0  0  0  0  0  0  0  0  0  0
   -4.4196    5.8600    1.1210 N   0  0  0  0  0  0  0  0  0  0  0  0
   -3.3783    5.9579    0.0872 C   0  0  2  0  0  0  0  0  0  0  0  0
   -4.0151    6.1723   -1.2627 C   0  0  0  0  0  0  0  0  0  0  0  0
   -4.7489    7.3737   -1.5094 N   0  0  0  0  0  0  0  0  0  0  0  0
   -3.9084    5.3099   -2.1783 O   0  0  0  0  0  0  0  0  0  0  0  0
   -2.4144    4.7528    0.1104 C   0  0  0  0  0  0  0  0  0  0  0  0
   -1.4774    4.7447    1.6825 S   0  0  0  0  0  0  0  0  0  0  0  0
   -1.2437    2.9342    1.7838 C   0  0  0  0  0  0  0  0  0  0  0  0
    9.0003    3.8548   -1.1556 H   0  0  0  0  0  0  0  0  0  0  0  0
   10.6443    4.0351   -0.5054 H   0  0  0  0  0  0  0  0  0  0  0  0
   10.0933    2.4070   -1.0649 H   0  0  0  0  0  0  0  0  0  0  0  0
    8.0578    1.7752    2.0035 H   0  0  0  0  0  0  0  0  0  0  0  0
    6.2469    1.3995    0.6853 H   0  0  0  0  0  0  0  0  0  0  0  0
    6.8455    4.1932   -0.4477 H   0  0  0  0  0  0  0  0  0  0  0  0
    6.1137    3.8711    1.1462 H   0  0  0  0  0  0  0  0  0  0  0  0
    4.1900    1.9413    1.2848 H   0  0  0  0  0  0  0  0  0  0  0  0
    3.6872    3.6504    1.5427 H   0  0  0  0  0  0  0  0  0  0  0  0
    1.3750    3.5948    2.0135 H   0  0  0  0  0  0  0  0  0  0  0  0
   -1.3411    1.2786   -0.3924 H   0  0  0  0  0  0  0  0  0  0  0  0
    2.8983    1.0232   -1.0750 H   0  0  0  0  0  0  0  0  0  0  0  0
    0.0483    0.5850   -2.8260 H   0  0  0  0  0  0  0  0  0  0  0  0
    1.4991   -0.3475   -2.3486 H   0  0  0  0  0  0  0  0  0  0  0  0
   -0.1710   -2.1914    0.7416 H   0  0  0  0  0  0  0  0  0  0  0  0
    1.2617   -1.2847    0.2180 H   0  0  0  0  0  0  0  0  0  0  0  0
    1.6386   -3.7220    0.4374 H   0  0  0  0  0  0  0  0  0  0  0  0
    2.0598   -2.6734   -2.3866 H   0  0  0  0  0  0  0  0  0  0  0  0
    4.3924   -1.9440   -0.3856 H   0  0  0  0  0  0  0  0  0  0  0  0
    4.9222   -4.7137    0.8848 H   0  0  0  0  0  0  0  0  0  0  0  0
    5.4852   -3.1210    1.5339 H   0  0  0  0  0  0  0  0  0  0  0  0
    3.7302   -3.4827    1.4572 H   0  0  0  0  0  0  0  0  0  0  0  0
    6.2218   -4.1621   -1.4277 H   0  0  0  0  0  0  0  0  0  0  0  0
    6.1774   -0.6523   -0.1021 H   0  0  0  0  0  0  0  0  0  0  0  0
    9.0581   -1.7514    0.0477 H   0  0  0  0  0  0  0  0  0  0  0  0
    7.6590   -2.3208    1.0523 H   0  0  0  0  0  0  0  0  0  0  0  0
    8.2639   -0.6373    1.2351 H   0  0  0  0  0  0  0  0  0  0  0  0
    8.4829   -0.0402   -1.9974 H   0  0  0  0  0  0  0  0  0  0  0  0
   -0.2979   -6.3772   -0.6098 H   0  0  0  0  0  0  0  0  0  0  0  0
   -1.4876   -4.0822    0.8993 H   0  0  0  0  0  0  0  0  0  0  0  0
    0.2447   -6.2142    2.2905 H   0  0  0  0  0  0  0  0  0  0  0  0
   -0.9153   -5.1075    3.1350 H   0  0  0  0  0  0  0  0  0  0  0  0
    0.4950   -4.4276    2.2689 H   0  0  0  0  0  0  0  0  0  0  0  0
   -4.3965   -6.0052    1.2864 H   0  0  0  0  0  0  0  0  0  0  0  0
   -5.1128   -5.0430   -0.6690 H   0  0  0  0  0  0  0  0  0  0  0  0
   -3.9555   -5.6161   -2.7222 H   0  0  0  0  0  0  0  0  0  0  0  0
   -3.9025   -7.0107   -1.5791 H   0  0  0  0  0  0  0  0  0  0  0  0
   -2.4356   -5.9901   -1.8252 H   0  0  0  0  0  0  0  0  0  0  0  0
   -2.9605   -2.0837    0.5839 H   0  0  0  0  0  0  0  0  0  0  0  0
   -4.9491   -1.2680    1.2847 H   0  0  0  0  0  0  0  0  0  0  0  0
   -6.7627   -2.6496    1.9522 H   0  0  0  0  0  0  0  0  0  0  0  0
   -6.2978   -3.9937    0.8694 H   0  0  0  0  0  0  0  0  0  0  0  0
   -5.2479   -3.5756    2.2808 H   0  0  0  0  0  0  0  0  0  0  0  0
   -6.1801   -0.0272   -1.8478 H   0  0  0  0  0  0  0  0  0  0  0  0
   -6.8514    0.0285    1.1255 H   0  0  0  0  0  0  0  0  0  0  0  0
   -7.8813    1.7549   -1.2047 H   0  0  0  0  0  0  0  0  0  0  0  0
   -8.7333    0.3520   -0.4571 H   0  0  0  0  0  0  0  0  0  0  0  0
   -8.4045    1.8363    0.5258 H   0  0  0  0  0  0  0  0  0  0  0  0
   -5.4587    3.2841   -0.9100 H   0  0  0  0  0  0  0  0  0  0  0  0
   -6.7924    3.5362    1.8159 H   0  0  0  0  0  0  0  0  0  0  0  0
   -8.0647    4.5585    0.0170 H   0  0  0  0  0  0  0  0  0  0  0  0
   -7.3745    5.8498    1.0719 H   0  0  0  0  0  0  0  0  0  0  0  0
   -6.6360    5.4982   -0.5455 H   0  0  0  0  0  0  0  0  0  0  0  0
   -4.8604    6.7440    1.4670 H   0  0  0  0  0  0  0  0  0  0  0  0
   -2.7649    6.8641    0.2976 H   0  0  0  0  0  0  0  0  0  0  0  0
   -4.8915    8.0783   -0.7509 H   0  0  0  0  0  0  0  0  0  0  0  0
   -5.1664    7.5521   -2.4533 H   0  0  0  0  0  0  0  0  0  0  0  0
   -2.9812    3.8112   -0.0393 H   0  0  0  0  0  0  0  0  0  0  0  0
   -1.6755    4.8352   -0.7185 H   0  0  0  0  0  0  0  0  0  0  0  0
   -1.0005    2.6737    2.8371 H   0  0  0  0  0  0  0  0  0  0  0  0
   -2.1839    2.4028    1.5368 H   0  0  0  0  0  0  0  0  0  0  0  0
  1  2  1  0
  2  3  2  0
  2  4  1  0
  4  5  1  0
  5  6  1  0
  6  7  1  0
  7  8  1  0
  8  9  1  0
  9 10  2  0
 10 11  1  0
 11 12  2  0
 12 13  1  0
 13 14  2  0
 13 15  1  0
 15 16  1  0
 16 17  1  0
 17 18  1  0
 18 19  1  0
 19 20  1  0
 20 21  2  0
 20 22  1  0
 22 23  1  0
 22 24  1  0
 24 25  1  0
 25 26  2  0
 25 27  1  0
 27 28  1  0
 27 29  1  0
 29 30  1  0
 30 31  2  0
 18 32  1  0
 32 33  2  0
 32 34  1  0
 34 35  1  0
 35 36  1  0
 35 37  1  0
 37 38  2  0
 37 39  1  0
 39 40  1  0
 40 41  1  0
 40 42  1  0
 42 43  2  0
 42 44  1  0
 44 45  1  0
 45 46  1  0
 45 47  1  0
 47 48  2  0
 47 49  1  0
 49 50  1  0
 50 51  1  0
 50 52  1  0
 52 53  2  0
 52 54  1  0
 54 55  1  0
 55 56  1  0
 55 57  1  0
 57 58  2  0
 57 59  1  0
 59 60  1  0
 60 61  1  0
 61 62  1  0
 61 63  2  0
 60 64  1  0
 64 65  1  0
 65 66  1  0
 30  5  1  0
 14  9  1  0
 66 11  1  0
  1 67  1  0
  1 68  1  0
  1 69  1  0
  4 70  1  0
  5 71  1  1
  6 72  1  0
  6 73  1  0
  8 74  1  0
  8 75  1  0
 10 76  1  0
 12 77  1  0
 14 78  1  0
 15 79  1  0
 15 80  1  0
 17 81  1  0
 17 82  1  0
 18 83  1  1
 19 84  1  0
 22 85  1  1
 23 86  1  0
 23 87  1  0
 23 88  1  0
 24 89  1  0
 27 90  1  1
 28 91  1  0
 28 92  1  0
 28 93  1  0
 29 94  1  0
 34 95  1  0
 35 96  1  6
 36 97  1  0
 36 98  1  0
 36 99  1  0
 39100  1  0
 40101  1  1
 41102  1  0
 41103  1  0
 41104  1  0
 44105  1  0
 45106  1  1
 46107  1  0
 46108  1  0
 46109  1  0
 49110  1  0
 50111  1  1
 51112  1  0
 51113  1  0
 51114  1  0
 54115  1  0
 55116  1  1
 56117  1  0
 56118  1  0
 56119  1  0
 59120  1  0
 60121  1  1
 62122  1  0
 62123  1  0
 64124  1  0
 64125  1  0
 66126  1  0
 66127  1  0
M  END
