
     RDKit          3D

137139  0  0  0  0  0  0  0  0999 V2000
    9.5951    4.3908    0.8767 C   0  0  0  0  0  0  0  0  0  0  0  0
    9.2765    3.8113    2.2239 C   0  0  0  0  0  0  0  0  0  0  0  0
    9.9499    4.1350    3.2223 O   0  0  0  0  0  0  0  0  0  0  0  0
    8.2214    2.8195    2.3933 N   0  0  0  0  0  0  0  0  0  0  0  0
    7.4858    2.1904    1.3039 C   0  0  2  0  0  0  0  0  0  0  0  0
    5.9966    1.9725    1.7890 C   0  0  0  0  0  0  0  0  0  0  0  0
    4.8465    1.4436    0.4143 S   0  0  0  0  0  0  0  0  0  0  0  0
    4.8610    3.0197   -0.5330 C   0  0  0  0  0  0  0  0  0  0  0  0
    3.7573    2.9363   -1.5703 C   0  0  0  0  0  0  0  0  0  0  0  0
    2.7011    3.8057   -1.5208 C   0  0  0  0  0  0  0  0  0  0  0  0
    1.4580    3.4771   -2.0712 C   0  0  0  0  0  0  0  0  0  0  0  0
    1.3793    2.3190   -2.8856 C   0  0  0  0  0  0  0  0  0  0  0  0
    2.4035    1.4378   -2.9158 C   0  0  0  0  0  0  0  0  0  0  0  0
    3.6523    1.8291   -2.4439 C   0  0  0  0  0  0  0  0  0  0  0  0
    1.9063   -0.0178   -2.6612 C   0  0  0  0  0  0  0  0  0  0  0  0
    2.5458   -1.1481   -3.9237 S   0  0  0  0  0  0  0  0  0  0  0  0
    1.7837   -2.6490   -3.1656 C   0  0  0  0  0  0  0  0  0  0  0  0
    2.6440   -3.2587   -2.0470 C   0  0  2  0  0  0  0  0  0  0  0  0
    3.9229   -3.6785   -2.6531 N   0  0  0  0  0  0  0  0  0  0  0  0
    5.1369   -3.8977   -1.9063 C   0  0  0  0  0  0  0  0  0  0  0  0
    5.7145   -5.0550   -2.0218 O   0  0  0  0  0  0  0  0  0  0  0  0
    5.8919   -2.7951   -1.2400 C   0  0  1  0  0  0  0  0  0  0  0  0
    5.1720   -1.5100   -1.1296 C   0  0  0  0  0  0  0  0  0  0  0  0
    6.4312   -3.1628    0.0906 N   0  0  0  0  0  0  0  0  0  0  0  0
    7.4235   -2.3893    0.7300 C   0  0  0  0  0  0  0  0  0  0  0  0
    8.6328   -2.7791    0.6336 O   0  0  0  0  0  0  0  0  0  0  0  0
    7.1082   -1.3088    1.7420 C   0  0  1  0  0  0  0  0  0  0  0  0
    6.9073   -1.9207    3.1338 C   0  0  0  0  0  0  0  0  0  0  0  0
    8.1391   -0.2512    1.7540 N   0  0  0  0  0  0  0  0  0  0  0  0
    8.1308    0.8963    0.9040 C   0  0  0  0  0  0  0  0  0  0  0  0
    8.8069    0.8761   -0.1836 O   0  0  0  0  0  0  0  0  0  0  0  0
    1.9262   -4.4099   -1.4624 C   0  0  0  0  0  0  0  0  0  0  0  0
    1.2853   -5.2143   -2.1674 O   0  0  0  0  0  0  0  0  0  0  0  0
    1.8758   -4.5646   -0.0098 N   0  0  0  0  0  0  0  0  0  0  0  0
    0.6211   -4.4726    0.7264 C   0  0  2  0  0  0  0  0  0  0  0  0
    0.8619   -4.6377    2.2283 C   0  0  0  0  0  0  0  0  0  0  0  0
   -0.3106   -5.5892    0.2778 C   0  0  0  0  0  0  0  0  0  0  0  0
    0.1624   -6.6741   -0.1564 O   0  0  0  0  0  0  0  0  0  0  0  0
   -1.7534   -5.4007    0.2370 N   0  0  0  0  0  0  0  0  0  0  0  0
   -2.4695   -4.2213    0.7820 C   0  0  2  0  0  0  0  0  0  0  0  0
   -3.4126   -4.6338    1.9169 C   0  0  0  0  0  0  0  0  0  0  0  0
   -3.0176   -3.4670   -0.4317 C   0  0  0  0  0  0  0  0  0  0  0  0
   -2.1772   -2.9390   -1.2115 O   0  0  0  0  0  0  0  0  0  0  0  0
   -4.4311   -3.2309   -0.7219 N   0  0  0  0  0  0  0  0  0  0  0  0
   -5.6081   -3.9935   -0.2859 C   0  0  2  0  0  0  0  0  0  0  0  0
   -5.5607   -5.4745   -0.7281 C   0  0  0  0  0  0  0  0  0  0  0  0
   -6.8670   -3.3525   -0.8357 C   0  0  0  0  0  0  0  0  0  0  0  0
   -7.1059   -3.3597   -2.0746 O   0  0  0  0  0  0  0  0  0  0  0  0
   -7.8369   -2.8007    0.0490 N   0  0  0  0  0  0  0  0  0  0  0  0
   -7.5234   -1.7245    0.9817 C   0  0  2  0  0  0  0  0  0  0  0  0
   -7.3637   -2.2908    2.4131 C   0  0  0  0  0  0  0  0  0  0  0  0
   -8.6377   -0.6804    0.9366 C   0  0  0  0  0  0  0  0  0  0  0  0
   -9.8139   -1.0259    1.2226 O   0  0  0  0  0  0  0  0  0  0  0  0
   -8.3639    0.6726    0.4927 N   0  0  0  0  0  0  0  0  0  0  0  0
   -7.2323    1.4712    0.9566 C   0  0  2  0  0  0  0  0  0  0  0  0
   -7.6663    2.3396    2.1335 C   0  0  0  0  0  0  0  0  0  0  0  0
   -6.7741    2.2986   -0.2205 C   0  0  0  0  0  0  0  0  0  0  0  0
   -6.3577    1.6641   -1.2388 O   0  0  0  0  0  0  0  0  0  0  0  0
   -6.9296    3.7538   -0.2603 N   0  0  0  0  0  0  0  0  0  0  0  0
   -5.8197    4.7109   -0.4034 C   0  0  2  0  0  0  0  0  0  0  0  0
   -6.3130    6.1270   -0.0142 C   0  0  0  0  0  0  0  0  0  0  0  0
   -5.2312    4.6752   -1.8276 C   0  0  0  0  0  0  0  0  0  0  0  0
   -5.6520    3.7632   -2.6051 O   0  0  0  0  0  0  0  0  0  0  0  0
   -3.9720    5.3404   -2.1170 N   0  0  0  0  0  0  0  0  0  0  0  0
   -2.8400    5.4408   -1.2011 C   0  0  1  0  0  0  0  0  0  0  0  0
   -2.9843    6.5572   -0.1511 C   0  0  0  0  0  0  0  0  0  0  0  0
   -2.1347    6.6825    1.0053 N   0  0  0  0  0  0  0  0  0  0  0  0
   -3.8420    7.5171   -0.3425 O   0  0  0  0  0  0  0  0  0  0  0  0
   -2.4141    4.0271   -0.6750 C   0  0  0  0  0  0  0  0  0  0  0  0
   -1.3188    3.1905   -1.8748 S   0  0  0  0  0  0  0  0  0  0  0  0
    0.2399    4.2320   -1.7167 C   0  0  0  0  0  0  0  0  0  0  0  0
   10.0403    3.5624    0.2423 H   0  0  0  0  0  0  0  0  0  0  0  0
    8.6477    4.7189    0.4253 H   0  0  0  0  0  0  0  0  0  0  0  0
   10.2658    5.2277    0.9570 H   0  0  0  0  0  0  0  0  0  0  0  0
    7.8958    2.6466    3.3712 H   0  0  0  0  0  0  0  0  0  0  0  0
    7.4313    2.8572    0.4482 H   0  0  0  0  0  0  0  0  0  0  0  0
    5.9589    1.2201    2.6071 H   0  0  0  0  0  0  0  0  0  0  0  0
    5.5527    2.9252    2.1558 H   0  0  0  0  0  0  0  0  0  0  0  0
    4.4423    3.7162    0.3487 H   0  0  0  0  0  0  0  0  0  0  0  0
    5.7224    2.8088   -1.2010 H   0  0  0  0  0  0  0  0  0  0  0  0
    2.7399    4.6919   -0.9319 H   0  0  0  0  0  0  0  0  0  0  0  0
    0.4913    2.1904   -3.5364 H   0  0  0  0  0  0  0  0  0  0  0  0
    4.5236    1.1656   -2.6443 H   0  0  0  0  0  0  0  0  0  0  0  0
    0.7697   -0.0777   -2.5946 H   0  0  0  0  0  0  0  0  0  0  0  0
    2.3437   -0.2948   -1.6464 H   0  0  0  0  0  0  0  0  0  0  0  0
    0.7515   -2.3817   -2.7922 H   0  0  0  0  0  0  0  0  0  0  0  0
    1.6297   -3.3626   -3.9950 H   0  0  0  0  0  0  0  0  0  0  0  0
    2.8271   -2.4651   -1.3193 H   0  0  0  0  0  0  0  0  0  0  0  0
    3.8314   -4.3413   -3.4418 H   0  0  0  0  0  0  0  0  0  0  0  0
    6.7348   -2.6249   -1.9794 H   0  0  0  0  0  0  0  0  0  0  0  0
    4.5082   -1.4120   -0.2789 H   0  0  0  0  0  0  0  0  0  0  0  0
    5.9936   -0.7354   -0.9629 H   0  0  0  0  0  0  0  0  0  0  0  0
    4.6229   -1.1721   -2.0248 H   0  0  0  0  0  0  0  0  0  0  0  0
    6.2247   -4.1534    0.4358 H   0  0  0  0  0  0  0  0  0  0  0  0
    6.1233   -0.8303    1.4546 H   0  0  0  0  0  0  0  0  0  0  0  0
    6.5359   -1.1110    3.8280 H   0  0  0  0  0  0  0  0  0  0  0  0
    6.1348   -2.6829    3.0522 H   0  0  0  0  0  0  0  0  0  0  0  0
    7.8364   -2.3523    3.5109 H   0  0  0  0  0  0  0  0  0  0  0  0
    9.1057   -0.5633    2.0828 H   0  0  0  0  0  0  0  0  0  0  0  0
    2.5938   -5.2713    0.3530 H   0  0  0  0  0  0  0  0  0  0  0  0
    0.1732   -3.4811    0.5719 H   0  0  0  0  0  0  0  0  0  0  0  0
   -0.0405   -4.4294    2.8124 H   0  0  0  0  0  0  0  0  0  0  0  0
    1.2373   -5.6592    2.4834 H   0  0  0  0  0  0  0  0  0  0  0  0
    1.6738   -3.9399    2.5391 H   0  0  0  0  0  0  0  0  0  0  0  0
   -2.3151   -6.2091   -0.1310 H   0  0  0  0  0  0  0  0  0  0  0  0
   -1.8080   -3.5183    1.2596 H   0  0  0  0  0  0  0  0  0  0  0  0
   -2.8125   -5.0797    2.6933 H   0  0  0  0  0  0  0  0  0  0  0  0
   -3.9569   -3.7623    2.3257 H   0  0  0  0  0  0  0  0  0  0  0  0
   -4.1208   -5.4320    1.5897 H   0  0  0  0  0  0  0  0  0  0  0  0
   -4.6061   -2.5372   -1.4580 H   0  0  0  0  0  0  0  0  0  0  0  0
   -5.6540   -3.9795    0.8420 H   0  0  0  0  0  0  0  0  0  0  0  0
   -4.5314   -5.8984   -0.6464 H   0  0  0  0  0  0  0  0  0  0  0  0
   -5.8332   -5.5859   -1.8141 H   0  0  0  0  0  0  0  0  0  0  0  0
   -6.2317   -6.1064   -0.1191 H   0  0  0  0  0  0  0  0  0  0  0  0
   -8.8407   -2.9330   -0.2432 H   0  0  0  0  0  0  0  0  0  0  0  0
   -6.5321   -1.2598    0.6927 H   0  0  0  0  0  0  0  0  0  0  0  0
   -7.6443   -1.5519    3.1925 H   0  0  0  0  0  0  0  0  0  0  0  0
   -6.3260   -2.6058    2.6151 H   0  0  0  0  0  0  0  0  0  0  0  0
   -8.0216   -3.1940    2.5458 H   0  0  0  0  0  0  0  0  0  0  0  0
   -9.2070    1.1874    0.1302 H   0  0  0  0  0  0  0  0  0  0  0  0
   -6.3214    0.8450    1.2958 H   0  0  0  0  0  0  0  0  0  0  0  0
   -6.7502    2.8402    2.6044 H   0  0  0  0  0  0  0  0  0  0  0  0
   -8.1300    1.7476    2.9532 H   0  0  0  0  0  0  0  0  0  0  0  0
   -8.3650    3.1496    1.8787 H   0  0  0  0  0  0  0  0  0  0  0  0
   -7.9157    4.0638   -0.4292 H   0  0  0  0  0  0  0  0  0  0  0  0
   -5.0676    4.4579    0.3382 H   0  0  0  0  0  0  0  0  0  0  0  0
   -7.4124    6.0962    0.2584 H   0  0  0  0  0  0  0  0  0  0  0  0
   -5.8714    6.4696    0.9593 H   0  0  0  0  0  0  0  0  0  0  0  0
   -6.1861    6.9258   -0.7661 H   0  0  0  0  0  0  0  0  0  0  0  0
   -3.7464    5.3157   -3.1553 H   0  0  0  0  0  0  0  0  0  0  0  0
   -1.9591    5.8351   -1.7173 H   0  0  0  0  0  0  0  0  0  0  0  0
   -2.3415    7.2642    1.8931 H   0  0  0  0  0  0  0  0  0  0  0  0
   -1.2589    6.1172    1.0850 H   0  0  0  0  0  0  0  0  0  0  0  0
   -1.9085    4.0277    0.3193 H   0  0  0  0  0  0  0  0  0  0  0  0
   -3.2855    3.4360   -0.5031 H   0  0  0  0  0  0  0  0  0  0  0  0
    0.3762    4.3983   -0.5795 H   0  0  0  0  0  0  0  0  0  0  0  0
    0.1421    5.2424   -2.2051 H   0  0  0  0  0  0  0  0  0  0  0  0
  1  2  1  0
  2  3  2  0
  2  4  1  0
  4  5  1  0
  5  6  1  0
  6  7  1  0
  7  8  1  0
  8  9  1  0
  9 10  2  0
 10 11  1  0
 11 12  2  0
 12 13  1  0
 13 14  2  0
 13 15  1  0
 15 16  1  0
 16 17  1  0
 17 18  1  0
 18 19  1  0
 19 20  1  0
 20 21  2  0
 20 22  1  0
 22 23  1  0
 22 24  1  0
 24 25  1  0
 25 26  2  0
 25 27  1  0
 27 28  1  0
 27 29  1  0
 29 30  1  0
 30 31  2  0
 18 32  1  0
 32 33  2  0
 32 34  1  0
 34 35  1  0
 35 36  1  0
 35 37  1  0
 37 38  2  0
 37 39  1  0
 39 40  1  0
 40 41  1  0
 40 42  1  0
 42 43  2  0
 42 44  1  0
 44 45  1  0
 45 46  1  0
 45 47  1  0
 47 48  2  0
 47 49  1  0
 49 50  1  0
 50 51  1  0
 50 52  1  0
 52 53  2  0
 52 54  1  0
 54 55  1  0
 55 56  1  0
 55 57  1  0
 57 58  2  0
 57 59  1  0
 59 60  1  0
 60 61  1  0
 60 62  1  0
 62 63  2  0
 62 64  1  0
 64 65  1  0
 65 66  1  0
 66 67  1  0
 66 68  2  0
 65 69  1  0
 69 70  1  0
 70 71  1  0
 30  5  1  0
 14  9  1  0
 71 11  1  0
  1 72  1  0
  1 73  1  0
  1 74  1  0
  4 75  1  0
  5 76  1  6
  6 77  1  0
  6 78  1  0
  8 79  1  0
  8 80  1  0
 10 81  1  0
 12 82  1  0
 14 83  1  0
 15 84  1  0
 15 85  1  0
 17 86  1  0
 17 87  1  0
 18 88  1  1
 19 89  1  0
 22 90  1  6
 23 91  1  0
 23 92  1  0
 23 93  1  0
 24 94  1  0
 27 95  1  6
 28 96  1  0
 28 97  1  0
 28 98  1  0
 29 99  1  0
 34100  1  0
 35101  1  1
 36102  1  0
 36103  1  0
 36104  1  0
 39105  1  0
 40106  1  1
 41107  1  0
 41108  1  0
 41109  1  0
 44110  1  0
 45111  1  1
 46112  1  0
 46113  1  0
 46114  1  0
 49115  1  0
 50116  1  6
 51117  1  0
 51118  1  0
 51119  1  0
 54120  1  0
 55121  1  1
 56122  1  0
 56123  1  0
 56124  1  0
 59125  1  0
 60126  1  1
 61127  1  0
 61128  1  0
 61129  1  0
 64130  1  0
 65131  1  6
 67132  1  0
 67133  1  0
 69134  1  0
 69135  1  0
 71136  1  0
 71137  1  0
M  END
