
     RDKit          3D

117119  0  0  0  0  0  0  0  0999 V2000
    9.6409   -1.8739   -0.6488 C   0  0  0  0  0  0  0  0  0  0  0  0
    8.6680   -1.8009    0.4886 C   0  0  0  0  0  0  0  0  0  0  0  0
    9.1144   -1.8125    1.6686 O   0  0  0  0  0  0  0  0  0  0  0  0
    7.2498   -1.7139    0.2757 N   0  0  0  0  0  0  0  0  0  0  0  0
    6.5918   -1.7897   -1.0346 C   0  0  1  0  0  0  0  0  0  0  0  0
    5.9654   -3.1782   -1.2243 C   0  0  0  0  0  0  0  0  0  0  0  0
    4.6471   -3.5063    0.0109 S   0  0  0  0  0  0  0  0  0  0  0  0
    3.2806   -3.7845   -1.1624 C   0  0  0  0  0  0  0  0  0  0  0  0
    1.9847   -3.4200   -0.5048 C   0  0  0  0  0  0  0  0  0  0  0  0
    1.0627   -4.3999   -0.1080 C   0  0  0  0  0  0  0  0  0  0  0  0
   -0.1749   -4.0242    0.4380 C   0  0  0  0  0  0  0  0  0  0  0  0
   -0.4809   -2.6709    0.5895 C   0  0  0  0  0  0  0  0  0  0  0  0
    0.4428   -1.6881    0.2163 C   0  0  0  0  0  0  0  0  0  0  0  0
    1.6837   -2.0703   -0.3187 C   0  0  0  0  0  0  0  0  0  0  0  0
    0.1255   -0.2358    0.3930 C   0  0  0  0  0  0  0  0  0  0  0  0
   -0.1487    0.5300   -1.2458 S   0  0  0  0  0  0  0  0  0  0  0  0
   -0.5779    2.1765   -0.5783 C   0  0  0  0  0  0  0  0  0  0  0  0
    0.3471    3.2746   -1.1071 C   0  0  2  0  0  0  0  0  0  0  0  0
    1.7473    3.0023   -0.7141 N   0  0  0  0  0  0  0  0  0  0  0  0
    2.6152    3.9240   -0.0426 C   0  0  0  0  0  0  0  0  0  0  0  0
    2.7976    5.0783   -0.5366 O   0  0  0  0  0  0  0  0  0  0  0  0
    3.2860    3.5542    1.2588 C   0  0  1  0  0  0  0  0  0  0  0  0
    2.8431    2.1892    1.8158 C   0  0  0  0  0  0  0  0  0  0  0  0
    4.7505    3.6506    1.1474 N   0  0  0  0  0  0  0  0  0  0  0  0
    5.6233    2.5865    0.7374 C   0  0  0  0  0  0  0  0  0  0  0  0
    6.6489    2.3442    1.4350 O   0  0  0  0  0  0  0  0  0  0  0  0
    5.3938    1.7937   -0.5284 C   0  0  1  0  0  0  0  0  0  0  0  0
    6.4777    2.1583   -1.5507 C   0  0  0  0  0  0  0  0  0  0  0  0
    5.4236    0.3489   -0.2258 N   0  0  0  0  0  0  0  0  0  0  0  0
    5.5910   -0.6664   -1.2270 C   0  0  0  0  0  0  0  0  0  0  0  0
    4.9603   -0.5744   -2.3132 O   0  0  0  0  0  0  0  0  0  0  0  0
   -0.1515    4.6179   -0.6219 C   0  0  0  0  0  0  0  0  0  0  0  0
   -0.1410    5.6167   -1.3995 O   0  0  0  0  0  0  0  0  0  0  0  0
   -0.6925    4.7573    0.7011 N   0  0  0  0  0  0  0  0  0  0  0  0
   -2.0063    5.3677    0.9222 C   0  0  2  0  0  0  0  0  0  0  0  0
   -1.8215    6.7532    1.5366 C   0  0  0  0  0  0  0  0  0  0  0  0
   -2.8470    4.4885    1.8341 C   0  0  0  0  0  0  0  0  0  0  0  0
   -2.4106    4.2285    2.9873 O   0  0  0  0  0  0  0  0  0  0  0  0
   -4.1392    3.9626    1.4753 N   0  0  0  0  0  0  0  0  0  0  0  0
   -4.6868    3.9339    0.1183 C   0  0  2  0  0  0  0  0  0  0  0  0
   -5.3260    5.2981   -0.2201 C   0  0  0  0  0  0  0  0  0  0  0  0
   -5.6889    2.7967   -0.0236 C   0  0  0  0  0  0  0  0  0  0  0  0
   -6.7980    3.0016   -0.6057 O   0  0  0  0  0  0  0  0  0  0  0  0
   -5.3988    1.4703    0.4533 N   0  0  0  0  0  0  0  0  0  0  0  0
   -4.0859    0.8396    0.2383 C   0  0  2  0  0  0  0  0  0  0  0  0
   -3.8657    0.5641   -1.2539 C   0  0  0  0  0  0  0  0  0  0  0  0
   -3.9334   -0.4173    1.0668 C   0  0  0  0  0  0  0  0  0  0  0  0
   -3.3106   -0.3396    2.1649 O   0  0  0  0  0  0  0  0  0  0  0  0
   -4.3673   -1.7209    0.6274 N   0  0  0  0  0  0  0  0  0  0  0  0
   -5.6693   -1.9805   -0.0058 C   0  0  2  0  0  0  0  0  0  0  0  0
   -6.6552   -2.6084    1.0022 C   0  0  0  0  0  0  0  0  0  0  0  0
   -5.4787   -2.8589   -1.2167 C   0  0  0  0  0  0  0  0  0  0  0  0
   -5.4042   -2.3261   -2.3529 O   0  0  0  0  0  0  0  0  0  0  0  0
   -5.4969   -4.2973   -1.1178 N   0  0  0  0  0  0  0  0  0  0  0  0
   -4.4362   -5.0681   -0.4579 C   0  0  1  0  0  0  0  0  0  0  0  0
   -4.7775   -6.5332   -0.4799 C   0  0  0  0  0  0  0  0  0  0  0  0
   -4.8524   -7.2818    0.7314 N   0  0  0  0  0  0  0  0  0  0  0  0
   -4.9789   -7.1189   -1.5780 O   0  0  0  0  0  0  0  0  0  0  0  0
   -3.0780   -4.8156   -1.1471 C   0  0  0  0  0  0  0  0  0  0  0  0
   -1.7636   -5.9935   -0.6205 S   0  0  0  0  0  0  0  0  0  0  0  0
   -1.1703   -5.0721    0.8409 C   0  0  0  0  0  0  0  0  0  0  0  0
    9.4440   -2.7700   -1.2631 H   0  0  0  0  0  0  0  0  0  0  0  0
    9.5490   -0.9628   -1.2718 H   0  0  0  0  0  0  0  0  0  0  0  0
   10.6867   -1.9312   -0.2693 H   0  0  0  0  0  0  0  0  0  0  0  0
    6.6438   -1.7446    1.1249 H   0  0  0  0  0  0  0  0  0  0  0  0
    7.3389   -1.6553   -1.8503 H   0  0  0  0  0  0  0  0  0  0  0  0
    6.7558   -3.9495   -1.0995 H   0  0  0  0  0  0  0  0  0  0  0  0
    5.5895   -3.2779   -2.2602 H   0  0  0  0  0  0  0  0  0  0  0  0
    3.2865   -4.8482   -1.4921 H   0  0  0  0  0  0  0  0  0  0  0  0
    3.3967   -3.1668   -2.0716 H   0  0  0  0  0  0  0  0  0  0  0  0
    1.2880   -5.4506   -0.2648 H   0  0  0  0  0  0  0  0  0  0  0  0
   -1.4408   -2.3720    0.9885 H   0  0  0  0  0  0  0  0  0  0  0  0
    2.4105   -1.3090   -0.5959 H   0  0  0  0  0  0  0  0  0  0  0  0
   -0.7759   -0.1124    1.0241 H   0  0  0  0  0  0  0  0  0  0  0  0
    0.9790    0.2637    0.8969 H   0  0  0  0  0  0  0  0  0  0  0  0
   -0.5675    2.1777    0.5317 H   0  0  0  0  0  0  0  0  0  0  0  0
   -1.6141    2.4041   -0.8968 H   0  0  0  0  0  0  0  0  0  0  0  0
    0.2946    3.2687   -2.2272 H   0  0  0  0  0  0  0  0  0  0  0  0
    2.1367    2.0529   -0.9324 H   0  0  0  0  0  0  0  0  0  0  0  0
    2.9479    4.3182    1.9957 H   0  0  0  0  0  0  0  0  0  0  0  0
    3.0981    1.3615    1.1158 H   0  0  0  0  0  0  0  0  0  0  0  0
    3.3514    2.0032    2.7865 H   0  0  0  0  0  0  0  0  0  0  0  0
    1.7438    2.2102    1.9942 H   0  0  0  0  0  0  0  0  0  0  0  0
    5.1894    4.4442    1.6696 H   0  0  0  0  0  0  0  0  0  0  0  0
    4.4148    2.0619   -0.9820 H   0  0  0  0  0  0  0  0  0  0  0  0
    7.4694    1.7529   -1.2302 H   0  0  0  0  0  0  0  0  0  0  0  0
    6.2356    1.7244   -2.5499 H   0  0  0  0  0  0  0  0  0  0  0  0
    6.5528    3.2636   -1.6758 H   0  0  0  0  0  0  0  0  0  0  0  0
    5.1543    0.0316    0.7335 H   0  0  0  0  0  0  0  0  0  0  0  0
   -0.2176    4.2668    1.4872 H   0  0  0  0  0  0  0  0  0  0  0  0
   -2.5057    5.5089   -0.0437 H   0  0  0  0  0  0  0  0  0  0  0  0
   -1.3515    6.6618    2.5372 H   0  0  0  0  0  0  0  0  0  0  0  0
   -2.7988    7.2699    1.6382 H   0  0  0  0  0  0  0  0  0  0  0  0
   -1.1826    7.3778    0.8778 H   0  0  0  0  0  0  0  0  0  0  0  0
   -4.6890    3.5129    2.2424 H   0  0  0  0  0  0  0  0  0  0  0  0
   -3.8713    3.7271   -0.6022 H   0  0  0  0  0  0  0  0  0  0  0  0
   -4.6577    6.1322    0.0471 H   0  0  0  0  0  0  0  0  0  0  0  0
   -6.2718    5.4272    0.3475 H   0  0  0  0  0  0  0  0  0  0  0  0
   -5.5583    5.3637   -1.2965 H   0  0  0  0  0  0  0  0  0  0  0  0
   -6.1939    0.8985    0.8239 H   0  0  0  0  0  0  0  0  0  0  0  0
   -3.2863    1.5440    0.5726 H   0  0  0  0  0  0  0  0  0  0  0  0
   -4.7820    0.1719   -1.7271 H   0  0  0  0  0  0  0  0  0  0  0  0
   -3.5998    1.5053   -1.7856 H   0  0  0  0  0  0  0  0  0  0  0  0
   -3.0380   -0.1621   -1.4051 H   0  0  0  0  0  0  0  0  0  0  0  0
   -3.8765   -2.5478    1.0451 H   0  0  0  0  0  0  0  0  0  0  0  0
   -6.1326   -1.0302   -0.3636 H   0  0  0  0  0  0  0  0  0  0  0  0
   -7.6416   -2.7825    0.5106 H   0  0  0  0  0  0  0  0  0  0  0  0
   -6.7946   -1.9169    1.8568 H   0  0  0  0  0  0  0  0  0  0  0  0
   -6.2683   -3.5647    1.3906 H   0  0  0  0  0  0  0  0  0  0  0  0
   -6.1566   -4.7980   -1.7560 H   0  0  0  0  0  0  0  0  0  0  0  0
   -4.3639   -4.7530    0.6004 H   0  0  0  0  0  0  0  0  0  0  0  0
   -4.7498   -6.8125    1.6597 H   0  0  0  0  0  0  0  0  0  0  0  0
   -5.0711   -8.3025    0.6942 H   0  0  0  0  0  0  0  0  0  0  0  0
   -2.7430   -3.7786   -0.9654 H   0  0  0  0  0  0  0  0  0  0  0  0
   -3.1884   -4.9380   -2.2438 H   0  0  0  0  0  0  0  0  0  0  0  0
   -0.6878   -5.7992    1.5281 H   0  0  0  0  0  0  0  0  0  0  0  0
   -2.0290   -4.6365    1.3987 H   0  0  0  0  0  0  0  0  0  0  0  0
  1  2  1  0
  2  3  2  0
  2  4  1  0
  4  5  1  0
  5  6  1  0
  6  7  1  0
  7  8  1  0
  8  9  1  0
  9 10  2  0
 10 11  1  0
 11 12  2  0
 12 13  1  0
 13 14  2  0
 13 15  1  0
 15 16  1  0
 16 17  1  0
 17 18  1  0
 18 19  1  0
 19 20  1  0
 20 21  2  0
 20 22  1  0
 22 23  1  0
 22 24  1  0
 24 25  1  0
 25 26  2  0
 25 27  1  0
 27 28  1  0
 27 29  1  0
 29 30  1  0
 30 31  2  0
 18 32  1  0
 32 33  2  0
 32 34  1  0
 34 35  1  0
 35 36  1  0
 35 37  1  0
 37 38  2  0
 37 39  1  0
 39 40  1  0
 40 41  1  0
 40 42  1  0
 42 43  2  0
 42 44  1  0
 44 45  1  0
 45 46  1  0
 45 47  1  0
 47 48  2  0
 47 49  1  0
 49 50  1  0
 50 51  1  0
 50 52  1  0
 52 53  2  0
 52 54  1  0
 54 55  1  0
 55 56  1  0
 56 57  1  0
 56 58  2  0
 55 59  1  0
 59 60  1  0
 60 61  1  0
 30  5  1  0
 14  9  1  0
 61 11  1  0
  1 62  1  0
  1 63  1  0
  1 64  1  0
  4 65  1  0
  5 66  1  6
  6 67  1  0
  6 68  1  0
  8 69  1  0
  8 70  1  0
 10 71  1  0
 12 72  1  0
 14 73  1  0
 15 74  1  0
 15 75  1  0
 17 76  1  0
 17 77  1  0
 18 78  1  6
 19 79  1  0
 22 80  1  1
 23 81  1  0
 23 82  1  0
 23 83  1  0
 24 84  1  0
 27 85  1  6
 28 86  1  0
 28 87  1  0
 28 88  1  0
 29 89  1  0
 34 90  1  0
 35 91  1  6
 36 92  1  0
 36 93  1  0
 36 94  1  0
 39 95  1  0
 40 96  1  6
 41 97  1  0
 41 98  1  0
 41 99  1  0
 44100  1  0
 45101  1  1
 46102  1  0
 46103  1  0
 46104  1  0
 49105  1  0
 50106  1  6
 51107  1  0
 51108  1  0
 51109  1  0
 54110  1  0
 55111  1  1
 57112  1  0
 57113  1  0
 59114  1  0
 59115  1  0
 61116  1  0
 61117  1  0
M  END
