
     RDKit          3D

127129  0  0  0  0  0  0  0  0999 V2000
    9.7516   -3.3337   -0.7685 C   0  0  0  0  0  0  0  0  0  0  0  0
    9.1294   -3.5573    0.5792 C   0  0  0  0  0  0  0  0  0  0  0  0
    9.7046   -4.3289    1.3956 O   0  0  0  0  0  0  0  0  0  0  0  0
    7.9187   -2.9037    0.9835 N   0  0  0  0  0  0  0  0  0  0  0  0
    7.0881   -2.0720    0.0951 C   0  0  1  0  0  0  0  0  0  0  0  0
    6.1270   -2.9638   -0.7166 C   0  0  0  0  0  0  0  0  0  0  0  0
    5.2476   -1.9941   -1.9981 S   0  0  0  0  0  0  0  0  0  0  0  0
    3.9180   -3.2206   -2.2796 C   0  0  0  0  0  0  0  0  0  0  0  0
    2.8353   -3.2567   -1.2157 C   0  0  0  0  0  0  0  0  0  0  0  0
    1.8845   -4.2861   -1.2789 C   0  0  0  0  0  0  0  0  0  0  0  0
    0.8793   -4.3948   -0.3177 C   0  0  0  0  0  0  0  0  0  0  0  0
    0.8386   -3.4888    0.7408 C   0  0  0  0  0  0  0  0  0  0  0  0
    1.7306   -2.4065    0.7972 C   0  0  0  0  0  0  0  0  0  0  0  0
    2.7205   -2.3023   -0.1953 C   0  0  0  0  0  0  0  0  0  0  0  0
    1.6246   -1.4370    1.9496 C   0  0  0  0  0  0  0  0  0  0  0  0
    2.4964    0.1549    1.6968 S   0  0  0  0  0  0  0  0  0  0  0  0
    1.1810    0.9623    0.7173 C   0  0  0  0  0  0  0  0  0  0  0  0
    1.6493    2.3456    0.2558 C   0  0  2  0  0  0  0  0  0  0  0  0
    2.1122    3.1243    1.4150 N   0  0  0  0  0  0  0  0  0  0  0  0
    3.4683    3.5523    1.6541 C   0  0  0  0  0  0  0  0  0  0  0  0
    3.7913    3.8772    2.8215 O   0  0  0  0  0  0  0  0  0  0  0  0
    4.4772    3.7482    0.5434 C   0  0  1  0  0  0  0  0  0  0  0  0
    4.2163    5.1041   -0.1275 C   0  0  0  0  0  0  0  0  0  0  0  0
    5.8415    3.7242    1.0836 N   0  0  0  0  0  0  0  0  0  0  0  0
    6.8327    2.6820    0.8954 C   0  0  0  0  0  0  0  0  0  0  0  0
    7.9911    2.8949    1.3631 O   0  0  0  0  0  0  0  0  0  0  0  0
    6.5600    1.3578    0.2306 C   0  0  1  0  0  0  0  0  0  0  0  0
    7.4080    1.2484   -1.0346 C   0  0  0  0  0  0  0  0  0  0  0  0
    6.8604    0.2505    1.1580 N   0  0  0  0  0  0  0  0  0  0  0  0
    6.3374   -1.0632    0.9354 C   0  0  0  0  0  0  0  0  0  0  0  0
    5.2721   -1.3937    1.5159 O   0  0  0  0  0  0  0  0  0  0  0  0
    0.5584    3.1112   -0.4407 C   0  0  0  0  0  0  0  0  0  0  0  0
    0.7643    3.6012   -1.6045 O   0  0  0  0  0  0  0  0  0  0  0  0
   -0.6671    3.3962    0.2368 N   0  0  0  0  0  0  0  0  0  0  0  0
   -1.2525    4.7432    0.2945 C   0  0  2  0  0  0  0  0  0  0  0  0
   -0.1995    5.7892    0.6874 C   0  0  0  0  0  0  0  0  0  0  0  0
   -2.3704    4.7519    1.3176 C   0  0  0  0  0  0  0  0  0  0  0  0
   -2.0837    4.4980    2.5186 O   0  0  0  0  0  0  0  0  0  0  0  0
   -3.7437    4.9819    0.9741 N   0  0  0  0  0  0  0  0  0  0  0  0
   -4.2690    5.2258   -0.3771 C   0  0  2  0  0  0  0  0  0  0  0  0
   -4.1037    6.7068   -0.7341 C   0  0  0  0  0  0  0  0  0  0  0  0
   -5.7139    4.7755   -0.4372 C   0  0  0  0  0  0  0  0  0  0  0  0
   -6.6311    5.6323   -0.5286 O   0  0  0  0  0  0  0  0  0  0  0  0
   -6.0676    3.3826   -0.3306 N   0  0  0  0  0  0  0  0  0  0  0  0
   -5.1273    2.2522   -0.3232 C   0  0  2  0  0  0  0  0  0  0  0  0
   -5.3337    1.4277   -1.6006 C   0  0  0  0  0  0  0  0  0  0  0  0
   -5.3075    1.4529    0.9476 C   0  0  0  0  0  0  0  0  0  0  0  0
   -5.3541    2.0706    2.0464 O   0  0  0  0  0  0  0  0  0  0  0  0
   -5.2984    0.0221    0.9555 N   0  0  0  0  0  0  0  0  0  0  0  0
   -6.5110   -0.7792    0.7499 C   0  0  2  0  0  0  0  0  0  0  0  0
   -7.6819   -0.2329    1.5765 C   0  0  0  0  0  0  0  0  0  0  0  0
   -6.2516   -2.2200    1.1431 C   0  0  0  0  0  0  0  0  0  0  0  0
   -5.9692   -2.4743    2.3483 O   0  0  0  0  0  0  0  0  0  0  0  0
   -6.3454   -3.3199    0.2143 N   0  0  0  0  0  0  0  0  0  0  0  0
   -6.4561   -3.1806   -1.2407 C   0  0  2  0  0  0  0  0  0  0  0  0
   -7.9350   -3.0809   -1.6254 C   0  0  0  0  0  0  0  0  0  0  0  0
   -5.7737   -4.3464   -1.9353 C   0  0  0  0  0  0  0  0  0  0  0  0
   -6.4668   -5.2274   -2.5160 O   0  0  0  0  0  0  0  0  0  0  0  0
   -4.3406   -4.4873   -1.9296 N   0  0  0  0  0  0  0  0  0  0  0  0
   -3.4759   -3.9364   -0.8774 C   0  0  1  0  0  0  0  0  0  0  0  0
   -3.4920   -4.8236    0.3331 C   0  0  0  0  0  0  0  0  0  0  0  0
   -3.3632   -4.2516    1.6391 N   0  0  0  0  0  0  0  0  0  0  0  0
   -3.5890   -6.0755    0.1968 O   0  0  0  0  0  0  0  0  0  0  0  0
   -2.0444   -3.7094   -1.3963 C   0  0  0  0  0  0  0  0  0  0  0  0
   -1.1962   -5.2603   -1.9212 S   0  0  0  0  0  0  0  0  0  0  0  0
   -0.1525   -5.4885   -0.4323 C   0  0  0  0  0  0  0  0  0  0  0  0
   10.6813   -3.9334   -0.8685 H   0  0  0  0  0  0  0  0  0  0  0  0
    9.0418   -3.6435   -1.5647 H   0  0  0  0  0  0  0  0  0  0  0  0
    9.9942   -2.2609   -0.8876 H   0  0  0  0  0  0  0  0  0  0  0  0
    7.5454   -3.1288    1.9390 H   0  0  0  0  0  0  0  0  0  0  0  0
    7.7506   -1.5236   -0.6023 H   0  0  0  0  0  0  0  0  0  0  0  0
    6.7005   -3.7680   -1.2192 H   0  0  0  0  0  0  0  0  0  0  0  0
    5.4067   -3.4461   -0.0245 H   0  0  0  0  0  0  0  0  0  0  0  0
    4.3752   -4.2319   -2.3520 H   0  0  0  0  0  0  0  0  0  0  0  0
    3.4280   -2.9930   -3.2620 H   0  0  0  0  0  0  0  0  0  0  0  0
    1.9466   -5.0203   -2.0759 H   0  0  0  0  0  0  0  0  0  0  0  0
    0.0733   -3.5820    1.5036 H   0  0  0  0  0  0  0  0  0  0  0  0
    3.4050   -1.4680   -0.1712 H   0  0  0  0  0  0  0  0  0  0  0  0
    2.0577   -1.9222    2.8555 H   0  0  0  0  0  0  0  0  0  0  0  0
    0.5518   -1.2333    2.1728 H   0  0  0  0  0  0  0  0  0  0  0  0
    0.9378    0.3269   -0.1549 H   0  0  0  0  0  0  0  0  0  0  0  0
    0.2808    1.0386    1.3570 H   0  0  0  0  0  0  0  0  0  0  0  0
    2.4610    2.1855   -0.4772 H   0  0  0  0  0  0  0  0  0  0  0  0
    1.4225    3.2803    2.1865 H   0  0  0  0  0  0  0  0  0  0  0  0
    4.3763    3.0040   -0.2495 H   0  0  0  0  0  0  0  0  0  0  0  0
    4.9694    5.2826   -0.9235 H   0  0  0  0  0  0  0  0  0  0  0  0
    4.2814    5.9166    0.6292 H   0  0  0  0  0  0  0  0  0  0  0  0
    3.2051    5.1164   -0.5891 H   0  0  0  0  0  0  0  0  0  0  0  0
    6.1180    4.5363    1.6884 H   0  0  0  0  0  0  0  0  0  0  0  0
    5.4971    1.2666   -0.0757 H   0  0  0  0  0  0  0  0  0  0  0  0
    8.4832    1.1639   -0.7954 H   0  0  0  0  0  0  0  0  0  0  0  0
    7.0956    0.3760   -1.6405 H   0  0  0  0  0  0  0  0  0  0  0  0
    7.2575    2.1483   -1.6626 H   0  0  0  0  0  0  0  0  0  0  0  0
    7.0936    0.4817    2.1508 H   0  0  0  0  0  0  0  0  0  0  0  0
   -1.2121    2.5815    0.6199 H   0  0  0  0  0  0  0  0  0  0  0  0
   -1.6178    5.0194   -0.7145 H   0  0  0  0  0  0  0  0  0  0  0  0
    0.3092    5.5000    1.6336 H   0  0  0  0  0  0  0  0  0  0  0  0
    0.5614    5.8910   -0.1160 H   0  0  0  0  0  0  0  0  0  0  0  0
   -0.6864    6.7826    0.8211 H   0  0  0  0  0  0  0  0  0  0  0  0
   -4.4312    4.9569    1.7689 H   0  0  0  0  0  0  0  0  0  0  0  0
   -3.7133    4.6366   -1.1243 H   0  0  0  0  0  0  0  0  0  0  0  0
   -4.5111    6.9157   -1.7473 H   0  0  0  0  0  0  0  0  0  0  0  0
   -4.6210    7.3554    0.0039 H   0  0  0  0  0  0  0  0  0  0  0  0
   -3.0237    6.9860   -0.7457 H   0  0  0  0  0  0  0  0  0  0  0  0
   -7.0989    3.1565   -0.3241 H   0  0  0  0  0  0  0  0  0  0  0  0
   -4.0866    2.6078   -0.3187 H   0  0  0  0  0  0  0  0  0  0  0  0
   -6.4045    1.1045   -1.6844 H   0  0  0  0  0  0  0  0  0  0  0  0
   -5.0916    2.0509   -2.4796 H   0  0  0  0  0  0  0  0  0  0  0  0
   -4.6687    0.5242   -1.6074 H   0  0  0  0  0  0  0  0  0  0  0  0
   -4.4107   -0.4369    1.2565 H   0  0  0  0  0  0  0  0  0  0  0  0
   -6.8051   -0.7080   -0.3084 H   0  0  0  0  0  0  0  0  0  0  0  0
   -8.5607   -0.9151    1.4882 H   0  0  0  0  0  0  0  0  0  0  0  0
   -7.4051   -0.1358    2.6474 H   0  0  0  0  0  0  0  0  0  0  0  0
   -7.9848    0.7638    1.1870 H   0  0  0  0  0  0  0  0  0  0  0  0
   -6.3263   -4.2871    0.6302 H   0  0  0  0  0  0  0  0  0  0  0  0
   -5.9301   -2.2691   -1.5870 H   0  0  0  0  0  0  0  0  0  0  0  0
   -8.4999   -3.9643   -1.2468 H   0  0  0  0  0  0  0  0  0  0  0  0
   -8.3924   -2.1740   -1.1999 H   0  0  0  0  0  0  0  0  0  0  0  0
   -8.0378   -3.0358   -2.7357 H   0  0  0  0  0  0  0  0  0  0  0  0
   -3.9351   -5.2128   -2.5583 H   0  0  0  0  0  0  0  0  0  0  0  0
   -3.8508   -2.9282   -0.5748 H   0  0  0  0  0  0  0  0  0  0  0  0
   -3.3208   -3.2143    1.7839 H   0  0  0  0  0  0  0  0  0  0  0  0
   -3.3660   -4.8765    2.4725 H   0  0  0  0  0  0  0  0  0  0  0  0
   -1.4635   -3.1576   -0.6211 H   0  0  0  0  0  0  0  0  0  0  0  0
   -2.0943   -3.0338   -2.2858 H   0  0  0  0  0  0  0  0  0  0  0  0
   -0.7811   -5.5407    0.4751 H   0  0  0  0  0  0  0  0  0  0  0  0
    0.3749   -6.4624   -0.5185 H   0  0  0  0  0  0  0  0  0  0  0  0
  1  2  1  0
  2  3  2  0
  2  4  1  0
  4  5  1  0
  5  6  1  0
  6  7  1  0
  7  8  1  0
  8  9  1  0
  9 10  2  0
 10 11  1  0
 11 12  2  0
 12 13  1  0
 13 14  2  0
 13 15  1  0
 15 16  1  0
 16 17  1  0
 17 18  1  0
 18 19  1  0
 19 20  1  0
 20 21  2  0
 20 22  1  0
 22 23  1  0
 22 24  1  0
 24 25  1  0
 25 26  2  0
 25 27  1  0
 27 28  1  0
 27 29  1  0
 29 30  1  0
 30 31  2  0
 18 32  1  0
 32 33  2  0
 32 34  1  0
 34 35  1  0
 35 36  1  0
 35 37  1  0
 37 38  2  0
 37 39  1  0
 39 40  1  0
 40 41  1  0
 40 42  1  0
 42 43  2  0
 42 44  1  0
 44 45  1  0
 45 46  1  0
 45 47  1  0
 47 48  2  0
 47 49  1  0
 49 50  1  0
 50 51  1  0
 50 52  1  0
 52 53  2  0
 52 54  1  0
 54 55  1  0
 55 56  1  0
 55 57  1  0
 57 58  2  0
 57 59  1  0
 59 60  1  0
 60 61  1  0
 61 62  1  0
 61 63  2  0
 60 64  1  0
 64 65  1  0
 65 66  1  0
 30  5  1  0
 14  9  1  0
 66 11  1  0
  1 67  1  0
  1 68  1  0
  1 69  1  0
  4 70  1  0
  5 71  1  6
  6 72  1  0
  6 73  1  0
  8 74  1  0
  8 75  1  0
 10 76  1  0
 12 77  1  0
 14 78  1  0
 15 79  1  0
 15 80  1  0
 17 81  1  0
 17 82  1  0
 18 83  1  6
 19 84  1  0
 22 85  1  6
 23 86  1  0
 23 87  1  0
 23 88  1  0
 24 89  1  0
 27 90  1  6
 28 91  1  0
 28 92  1  0
 28 93  1  0
 29 94  1  0
 34 95  1  0
 35 96  1  6
 36 97  1  0
 36 98  1  0
 36 99  1  0
 39100  1  0
 40101  1  6
 41102  1  0
 41103  1  0
 41104  1  0
 44105  1  0
 45106  1  6
 46107  1  0
 46108  1  0
 46109  1  0
 49110  1  0
 50111  1  6
 51112  1  0
 51113  1  0
 51114  1  0
 54115  1  0
 55116  1  6
 56117  1  0
 56118  1  0
 56119  1  0
 59120  1  0
 60121  1  1
 62122  1  0
 62123  1  0
 64124  1  0
 64125  1  0
 66126  1  0
 66127  1  0
M  END
