
     RDKit          3D

147149  0  0  0  0  0  0  0  0999 V2000
  -11.4693    2.3128   -0.1037 C   0  0  0  0  0  0  0  0  0  0  0  0
  -10.0101    2.0583   -0.2957 C   0  0  0  0  0  0  0  0  0  0  0  0
   -9.4903    2.2985   -1.4175 O   0  0  0  0  0  0  0  0  0  0  0  0
   -9.2289    1.4986    0.7753 N   0  0  0  0  0  0  0  0  0  0  0  0
   -7.7622    1.3534    0.8089 C   0  0  2  0  0  0  0  0  0  0  0  0
   -7.0395    2.6988    1.0372 C   0  0  0  0  0  0  0  0  0  0  0  0
   -7.3423    4.0198   -0.2080 S   0  0  0  0  0  0  0  0  0  0  0  0
   -6.1208    3.5653   -1.5064 C   0  0  0  0  0  0  0  0  0  0  0  0
   -4.7290    3.3142   -0.9812 C   0  0  0  0  0  0  0  0  0  0  0  0
   -4.1403    4.1764   -0.0383 C   0  0  0  0  0  0  0  0  0  0  0  0
   -2.9085    3.8490    0.5516 C   0  0  0  0  0  0  0  0  0  0  0  0
   -2.2210    2.7033    0.1133 C   0  0  0  0  0  0  0  0  0  0  0  0
   -2.7393    1.9129   -0.9227 C   0  0  0  0  0  0  0  0  0  0  0  0
   -3.9971    2.2206   -1.4592 C   0  0  0  0  0  0  0  0  0  0  0  0
   -1.9589    0.7517   -1.4696 C   0  0  0  0  0  0  0  0  0  0  0  0
   -2.7891   -0.8321   -1.0871 S   0  0  0  0  0  0  0  0  0  0  0  0
   -2.0696   -0.9977    0.5807 C   0  0  0  0  0  0  0  0  0  0  0  0
   -2.6377   -2.2288    1.2951 C   0  0  2  0  0  0  0  0  0  0  0  0
   -4.0700   -2.0660    1.5397 N   0  0  0  0  0  0  0  0  0  0  0  0
   -4.9609   -3.1688    1.3666 C   0  0  0  0  0  0  0  0  0  0  0  0
   -4.8776   -4.1627    2.1400 O   0  0  0  0  0  0  0  0  0  0  0  0
   -5.9826   -3.1439    0.2630 C   0  0  1  0  0  0  0  0  0  0  0  0
   -5.9446   -4.4464   -0.5412 C   0  0  0  0  0  0  0  0  0  0  0  0
   -7.3214   -2.9425    0.8236 N   0  0  0  0  0  0  0  0  0  0  0  0
   -8.3227   -2.0680    0.2623 C   0  0  0  0  0  0  0  0  0  0  0  0
   -9.2969   -1.7203    0.9839 O   0  0  0  0  0  0  0  0  0  0  0  0
   -8.2667   -1.5861   -1.1781 C   0  0  1  0  0  0  0  0  0  0  0  0
   -9.5645   -1.9525   -1.8993 C   0  0  0  0  0  0  0  0  0  0  0  0
   -8.0534   -0.1399   -1.2524 N   0  0  0  0  0  0  0  0  0  0  0  0
   -7.2010    0.5383   -0.3293 C   0  0  0  0  0  0  0  0  0  0  0  0
   -5.9600    0.3237   -0.3742 O   0  0  0  0  0  0  0  0  0  0  0  0
   -1.9055   -2.4431    2.6048 C   0  0  0  0  0  0  0  0  0  0  0  0
   -2.2457   -1.7597    3.6069 O   0  0  0  0  0  0  0  0  0  0  0  0
   -0.7899   -3.3451    2.7268 N   0  0  0  0  0  0  0  0  0  0  0  0
   -0.3135   -4.2252    1.6501 C   0  0  2  0  0  0  0  0  0  0  0  0
   -1.1510   -5.5073    1.6256 C   0  0  0  0  0  0  0  0  0  0  0  0
    1.1479   -4.5478    1.8338 C   0  0  0  0  0  0  0  0  0  0  0  0
    1.5699   -4.9351    2.9564 O   0  0  0  0  0  0  0  0  0  0  0  0
    2.0843   -4.3929    0.7585 N   0  0  0  0  0  0  0  0  0  0  0  0
    1.8308   -4.9108   -0.5931 C   0  0  2  0  0  0  0  0  0  0  0  0
    1.9535   -6.4405   -0.6096 C   0  0  0  0  0  0  0  0  0  0  0  0
    2.7639   -4.2541   -1.5811 C   0  0  0  0  0  0  0  0  0  0  0  0
    2.4423   -3.1402   -2.0839 O   0  0  0  0  0  0  0  0  0  0  0  0
    3.9431   -4.9196   -2.0601 N   0  0  0  0  0  0  0  0  0  0  0  0
    5.2874   -4.7063   -1.5098 C   0  0  2  0  0  0  0  0  0  0  0  0
    5.5368   -5.6438   -0.3267 C   0  0  0  0  0  0  0  0  0  0  0  0
    5.5515   -3.2435   -1.2201 C   0  0  0  0  0  0  0  0  0  0  0  0
    5.5669   -2.4279   -2.1803 O   0  0  0  0  0  0  0  0  0  0  0  0
    5.8844   -2.7803    0.1009 N   0  0  0  0  0  0  0  0  0  0  0  0
    7.1219   -2.0242    0.3293 C   0  0  2  0  0  0  0  0  0  0  0  0
    8.2941   -3.0041    0.4121 C   0  0  0  0  0  0  0  0  0  0  0  0
    7.0393   -1.2343    1.6188 C   0  0  0  0  0  0  0  0  0  0  0  0
    6.5064   -1.7758    2.6246 O   0  0  0  0  0  0  0  0  0  0  0  0
    7.6396    0.0655    1.7844 N   0  0  0  0  0  0  0  0  0  0  0  0
    8.1058    0.9420    0.6952 C   0  0  2  0  0  0  0  0  0  0  0  0
    9.5193    0.5336    0.2667 C   0  0  0  0  0  0  0  0  0  0  0  0
    8.1090    2.4058    1.1252 C   0  0  0  0  0  0  0  0  0  0  0  0
    8.1007    2.6921    2.3523 O   0  0  0  0  0  0  0  0  0  0  0  0
    8.1539    3.4952    0.1820 N   0  0  0  0  0  0  0  0  0  0  0  0
    7.9874    3.3893   -1.2713 C   0  0  2  0  0  0  0  0  0  0  0  0
    9.2256    3.9814   -1.9472 C   0  0  0  0  0  0  0  0  0  0  0  0
    6.7382    4.1013   -1.7633 C   0  0  0  0  0  0  0  0  0  0  0  0
    6.5560    4.1843   -3.0093 O   0  0  0  0  0  0  0  0  0  0  0  0
    5.7691    4.7255   -0.8990 N   0  0  0  0  0  0  0  0  0  0  0  0
    5.1772    4.1168    0.3024 C   0  0  2  0  0  0  0  0  0  0  0  0
    4.7016    2.6909   -0.0006 C   0  0  0  0  0  0  0  0  0  0  0  0
    4.0698    5.0125    0.8329 C   0  0  0  0  0  0  0  0  0  0  0  0
    4.3719    6.1737    1.2153 O   0  0  0  0  0  0  0  0  0  0  0  0
    2.6918    4.5940    0.8644 N   0  0  0  0  0  0  0  0  0  0  0  0
    1.5841    5.5535    0.8574 C   0  0  1  0  0  0  0  0  0  0  0  0
    1.6655    6.4088   -0.3855 C   0  0  0  0  0  0  0  0  0  0  0  0
    1.9258    5.8142   -1.6596 N   0  0  0  0  0  0  0  0  0  0  0  0
    1.4904    7.6511   -0.3064 O   0  0  0  0  0  0  0  0  0  0  0  0
    0.2477    4.7980    0.9081 C   0  0  0  0  0  0  0  0  0  0  0  0
   -1.1732    5.9333    1.0745 S   0  0  0  0  0  0  0  0  0  0  0  0
   -2.3634    4.6825    1.6801 C   0  0  0  0  0  0  0  0  0  0  0  0
  -12.0580    1.6487   -0.7751 H   0  0  0  0  0  0  0  0  0  0  0  0
  -11.7699    2.1153    0.9513 H   0  0  0  0  0  0  0  0  0  0  0  0
  -11.6960    3.3716   -0.3422 H   0  0  0  0  0  0  0  0  0  0  0  0
   -9.7401    1.1722    1.6251 H   0  0  0  0  0  0  0  0  0  0  0  0
   -7.5196    0.7535    1.7149 H   0  0  0  0  0  0  0  0  0  0  0  0
   -5.9581    2.5290    1.1885 H   0  0  0  0  0  0  0  0  0  0  0  0
   -7.4093    3.1093    2.0040 H   0  0  0  0  0  0  0  0  0  0  0  0
   -6.0681    4.4094   -2.2246 H   0  0  0  0  0  0  0  0  0  0  0  0
   -6.5106    2.6883   -2.0638 H   0  0  0  0  0  0  0  0  0  0  0  0
   -4.6732    5.0634    0.2862 H   0  0  0  0  0  0  0  0  0  0  0  0
   -1.2823    2.4244    0.5770 H   0  0  0  0  0  0  0  0  0  0  0  0
   -4.4138    1.5882   -2.2395 H   0  0  0  0  0  0  0  0  0  0  0  0
   -0.9075    0.7461   -1.1050 H   0  0  0  0  0  0  0  0  0  0  0  0
   -1.9107    0.8552   -2.5772 H   0  0  0  0  0  0  0  0  0  0  0  0
   -0.9677   -1.1106    0.4781 H   0  0  0  0  0  0  0  0  0  0  0  0
   -2.2728   -0.0809    1.1781 H   0  0  0  0  0  0  0  0  0  0  0  0
   -2.4996   -3.0992    0.6286 H   0  0  0  0  0  0  0  0  0  0  0  0
   -4.4633   -1.1249    1.7906 H   0  0  0  0  0  0  0  0  0  0  0  0
   -5.7146   -2.3064   -0.4131 H   0  0  0  0  0  0  0  0  0  0  0  0
   -6.2103   -5.3100    0.0994 H   0  0  0  0  0  0  0  0  0  0  0  0
   -6.6723   -4.3947   -1.3787 H   0  0  0  0  0  0  0  0  0  0  0  0
   -4.9321   -4.6029   -0.9654 H   0  0  0  0  0  0  0  0  0  0  0  0
   -7.5674   -3.4390    1.7108 H   0  0  0  0  0  0  0  0  0  0  0  0
   -7.4486   -2.0887   -1.7297 H   0  0  0  0  0  0  0  0  0  0  0  0
  -10.4213   -1.3995   -1.4587 H   0  0  0  0  0  0  0  0  0  0  0  0
   -9.4854   -1.6875   -2.9746 H   0  0  0  0  0  0  0  0  0  0  0  0
   -9.7526   -3.0449   -1.8184 H   0  0  0  0  0  0  0  0  0  0  0  0
   -8.0828    0.2843   -2.2095 H   0  0  0  0  0  0  0  0  0  0  0  0
   -0.2910   -3.3526    3.6488 H   0  0  0  0  0  0  0  0  0  0  0  0
   -0.4169   -3.6987    0.6771 H   0  0  0  0  0  0  0  0  0  0  0  0
   -2.2332   -5.2594    1.6067 H   0  0  0  0  0  0  0  0  0  0  0  0
   -0.9496   -6.1267    2.5278 H   0  0  0  0  0  0  0  0  0  0  0  0
   -0.9211   -6.0908    0.7094 H   0  0  0  0  0  0  0  0  0  0  0  0
    3.0565   -4.1138    1.0091 H   0  0  0  0  0  0  0  0  0  0  0  0
    0.7978   -4.6637   -0.9108 H   0  0  0  0  0  0  0  0  0  0  0  0
    1.1833   -6.8962    0.0466 H   0  0  0  0  0  0  0  0  0  0  0  0
    1.8038   -6.8297   -1.6447 H   0  0  0  0  0  0  0  0  0  0  0  0
    2.9502   -6.7660   -0.2408 H   0  0  0  0  0  0  0  0  0  0  0  0
    3.8741   -5.4159   -2.9822 H   0  0  0  0  0  0  0  0  0  0  0  0
    6.0231   -5.0039   -2.2899 H   0  0  0  0  0  0  0  0  0  0  0  0
    6.5716   -5.5149    0.0548 H   0  0  0  0  0  0  0  0  0  0  0  0
    5.4264   -6.7004   -0.6575 H   0  0  0  0  0  0  0  0  0  0  0  0
    4.8251   -5.4674    0.4989 H   0  0  0  0  0  0  0  0  0  0  0  0
    5.4662   -3.2849    0.9129 H   0  0  0  0  0  0  0  0  0  0  0  0
    7.2901   -1.3481   -0.5280 H   0  0  0  0  0  0  0  0  0  0  0  0
    9.2414   -2.4684    0.6239 H   0  0  0  0  0  0  0  0  0  0  0  0
    8.4069   -3.5451   -0.5544 H   0  0  0  0  0  0  0  0  0  0  0  0
    8.1193   -3.7509    1.2156 H   0  0  0  0  0  0  0  0  0  0  0  0
    7.7406    0.3831    2.7758 H   0  0  0  0  0  0  0  0  0  0  0  0
    7.4079    0.8309   -0.1505 H   0  0  0  0  0  0  0  0  0  0  0  0
   10.1463    0.3212    1.1575 H   0  0  0  0  0  0  0  0  0  0  0  0
    9.4838   -0.3685   -0.3732 H   0  0  0  0  0  0  0  0  0  0  0  0
   10.0094    1.3355   -0.3216 H   0  0  0  0  0  0  0  0  0  0  0  0
    8.2770    4.4573    0.5736 H   0  0  0  0  0  0  0  0  0  0  0  0
    7.9233    2.3335   -1.5955 H   0  0  0  0  0  0  0  0  0  0  0  0
    9.3162    5.0668   -1.7089 H   0  0  0  0  0  0  0  0  0  0  0  0
    9.1667    3.8589   -3.0518 H   0  0  0  0  0  0  0  0  0  0  0  0
   10.1406    3.4621   -1.5942 H   0  0  0  0  0  0  0  0  0  0  0  0
    5.3022    5.5763   -1.2960 H   0  0  0  0  0  0  0  0  0  0  0  0
    5.9354    4.0664    1.1065 H   0  0  0  0  0  0  0  0  0  0  0  0
    5.5318    2.0737   -0.3878 H   0  0  0  0  0  0  0  0  0  0  0  0
    3.9042    2.7027   -0.7744 H   0  0  0  0  0  0  0  0  0  0  0  0
    4.3267    2.2013    0.9215 H   0  0  0  0  0  0  0  0  0  0  0  0
    2.4651    3.5761    0.8456 H   0  0  0  0  0  0  0  0  0  0  0  0
    1.6613    6.1956    1.7614 H   0  0  0  0  0  0  0  0  0  0  0  0
    1.9431    4.7744   -1.7674 H   0  0  0  0  0  0  0  0  0  0  0  0
    2.2580    6.3975   -2.4600 H   0  0  0  0  0  0  0  0  0  0  0  0
    0.1276    4.2004   -0.0204 H   0  0  0  0  0  0  0  0  0  0  0  0
    0.2760    4.1104    1.7799 H   0  0  0  0  0  0  0  0  0  0  0  0
   -3.1939    5.2202    2.1867 H   0  0  0  0  0  0  0  0  0  0  0  0
   -1.9022    4.0281    2.4477 H   0  0  0  0  0  0  0  0  0  0  0  0
  1  2  1  0
  2  3  2  0
  2  4  1  0
  4  5  1  0
  5  6  1  0
  6  7  1  0
  7  8  1  0
  8  9  1  0
  9 10  2  0
 10 11  1  0
 11 12  2  0
 12 13  1  0
 13 14  2  0
 13 15  1  0
 15 16  1  0
 16 17  1  0
 17 18  1  0
 18 19  1  0
 19 20  1  0
 20 21  2  0
 20 22  1  0
 22 23  1  0
 22 24  1  0
 24 25  1  0
 25 26  2  0
 25 27  1  0
 27 28  1  0
 27 29  1  0
 29 30  1  0
 30 31  2  0
 18 32  1  0
 32 33  2  0
 32 34  1  0
 34 35  1  0
 35 36  1  0
 35 37  1  0
 37 38  2  0
 37 39  1  0
 39 40  1  0
 40 41  1  0
 40 42  1  0
 42 43  2  0
 42 44  1  0
 44 45  1  0
 45 46  1  0
 45 47  1  0
 47 48  2  0
 47 49  1  0
 49 50  1  0
 50 51  1  0
 50 52  1  0
 52 53  2  0
 52 54  1  0
 54 55  1  0
 55 56  1  0
 55 57  1  0
 57 58  2  0
 57 59  1  0
 59 60  1  0
 60 61  1  0
 60 62  1  0
 62 63  2  0
 62 64  1  0
 64 65  1  0
 65 66  1  0
 65 67  1  0
 67 68  2  0
 67 69  1  0
 69 70  1  0
 70 71  1  0
 71 72  1  0
 71 73  2  0
 70 74  1  0
 74 75  1  0
 75 76  1  0
 30  5  1  0
 14  9  1  0
 76 11  1  0
  1 77  1  0
  1 78  1  0
  1 79  1  0
  4 80  1  0
  5 81  1  1
  6 82  1  0
  6 83  1  0
  8 84  1  0
  8 85  1  0
 10 86  1  0
 12 87  1  0
 14 88  1  0
 15 89  1  0
 15 90  1  0
 17 91  1  0
 17 92  1  0
 18 93  1  6
 19 94  1  0
 22 95  1  6
 23 96  1  0
 23 97  1  0
 23 98  1  0
 24 99  1  0
 27100  1  6
 28101  1  0
 28102  1  0
 28103  1  0
 29104  1  0
 34105  1  0
 35106  1  6
 36107  1  0
 36108  1  0
 36109  1  0
 39110  1  0
 40111  1  6
 41112  1  0
 41113  1  0
 41114  1  0
 44115  1  0
 45116  1  6
 46117  1  0
 46118  1  0
 46119  1  0
 49120  1  0
 50121  1  6
 51122  1  0
 51123  1  0
 51124  1  0
 54125  1  0
 55126  1  6
 56127  1  0
 56128  1  0
 56129  1  0
 59130  1  0
 60131  1  1
 61132  1  0
 61133  1  0
 61134  1  0
 64135  1  0
 65136  1  1
 66137  1  0
 66138  1  0
 66139  1  0
 69140  1  0
 70141  1  1
 72142  1  0
 72143  1  0
 74144  1  0
 74145  1  0
 76146  1  0
 76147  1  0
M  END
