
     RDKit          3D

157159  0  0  0  0  0  0  0  0999 V2000
  -11.7879    3.9300    2.7010 C   0  0  0  0  0  0  0  0  0  0  0  0
  -10.7113    3.8068    1.6714 C   0  0  0  0  0  0  0  0  0  0  0  0
   -9.9181    4.7727    1.4943 O   0  0  0  0  0  0  0  0  0  0  0  0
  -10.6050    2.6199    0.8708 N   0  0  0  0  0  0  0  0  0  0  0  0
   -9.3360    2.0265    0.4287 C   0  0  1  0  0  0  0  0  0  0  0  0
   -8.5940    2.9297   -0.5782 C   0  0  0  0  0  0  0  0  0  0  0  0
   -7.1406    2.0573   -1.2881 S   0  0  0  0  0  0  0  0  0  0  0  0
   -5.8735    3.0342   -0.4106 C   0  0  0  0  0  0  0  0  0  0  0  0
   -4.5166    2.4628   -0.7085 C   0  0  0  0  0  0  0  0  0  0  0  0
   -3.7913    2.9247   -1.8188 C   0  0  0  0  0  0  0  0  0  0  0  0
   -2.5300    2.3889   -2.1152 C   0  0  0  0  0  0  0  0  0  0  0  0
   -2.0139    1.3561   -1.3199 C   0  0  0  0  0  0  0  0  0  0  0  0
   -2.7115    0.8900   -0.1968 C   0  0  0  0  0  0  0  0  0  0  0  0
   -3.9630    1.4685    0.1166 C   0  0  0  0  0  0  0  0  0  0  0  0
   -2.0268   -0.1329    0.6889 C   0  0  0  0  0  0  0  0  0  0  0  0
   -3.1617   -0.9875    1.8488 S   0  0  0  0  0  0  0  0  0  0  0  0
   -2.8356   -2.7054    1.2988 C   0  0  0  0  0  0  0  0  0  0  0  0
   -3.4403   -3.0510   -0.0768 C   0  0  2  0  0  0  0  0  0  0  0  0
   -4.8792   -2.7198   -0.1133 N   0  0  0  0  0  0  0  0  0  0  0  0
   -5.8565   -3.3497   -0.9613 C   0  0  0  0  0  0  0  0  0  0  0  0
   -5.4923   -4.0589   -1.9398 O   0  0  0  0  0  0  0  0  0  0  0  0
   -7.3218   -3.0979   -0.6999 C   0  0  1  0  0  0  0  0  0  0  0  0
   -8.2355   -4.0869   -1.4328 C   0  0  0  0  0  0  0  0  0  0  0  0
   -7.5758   -3.1941    0.7482 N   0  0  0  0  0  0  0  0  0  0  0  0
   -7.6954   -2.0682    1.6309 C   0  0  0  0  0  0  0  0  0  0  0  0
   -7.1518   -2.1372    2.7620 O   0  0  0  0  0  0  0  0  0  0  0  0
   -8.5718   -0.8797    1.2916 C   0  0  1  0  0  0  0  0  0  0  0  0
  -10.0226   -1.2076    1.6620 C   0  0  0  0  0  0  0  0  0  0  0  0
   -8.1325    0.3349    2.0030 N   0  0  0  0  0  0  0  0  0  0  0  0
   -8.4780    1.6842    1.6307 C   0  0  0  0  0  0  0  0  0  0  0  0
   -8.0464    2.6287    2.3448 O   0  0  0  0  0  0  0  0  0  0  0  0
   -3.2009   -4.5295   -0.3265 C   0  0  0  0  0  0  0  0  0  0  0  0
   -3.9463   -5.3629    0.2603 O   0  0  0  0  0  0  0  0  0  0  0  0
   -2.0831   -5.0369   -1.0868 N   0  0  0  0  0  0  0  0  0  0  0  0
   -1.3171   -4.3065   -2.1009 C   0  0  2  0  0  0  0  0  0  0  0  0
   -1.4100   -5.0391   -3.4452 C   0  0  0  0  0  0  0  0  0  0  0  0
    0.1198   -4.1971   -1.6649 C   0  0  0  0  0  0  0  0  0  0  0  0
    0.6255   -3.0509   -1.4840 O   0  0  0  0  0  0  0  0  0  0  0  0
    0.8989   -5.3747   -1.4100 N   0  0  0  0  0  0  0  0  0  0  0  0
    2.3497   -5.3405   -1.1926 C   0  0  2  0  0  0  0  0  0  0  0  0
    3.0683   -5.1347   -2.5307 C   0  0  0  0  0  0  0  0  0  0  0  0
    2.8106   -6.6229   -0.5486 C   0  0  0  0  0  0  0  0  0  0  0  0
    2.4980   -7.7306   -1.0648 O   0  0  0  0  0  0  0  0  0  0  0  0
    3.5648   -6.6116    0.6713 N   0  0  0  0  0  0  0  0  0  0  0  0
    4.8112   -5.8486    0.8052 C   0  0  2  0  0  0  0  0  0  0  0  0
    5.9713   -6.6670    0.2295 C   0  0  0  0  0  0  0  0  0  0  0  0
    5.0636   -5.5169    2.2579 C   0  0  0  0  0  0  0  0  0  0  0  0
    4.7412   -6.3496    3.1475 O   0  0  0  0  0  0  0  0  0  0  0  0
    5.6325   -4.2603    2.6675 N   0  0  0  0  0  0  0  0  0  0  0  0
    6.7983   -3.6679    1.9973 C   0  0  2  0  0  0  0  0  0  0  0  0
    8.0623   -4.4102    2.4593 C   0  0  0  0  0  0  0  0  0  0  0  0
    6.9202   -2.1896    2.3212 C   0  0  0  0  0  0  0  0  0  0  0  0
    6.0691   -1.6306    3.0601 O   0  0  0  0  0  0  0  0  0  0  0  0
    8.0266   -1.4154    1.8355 N   0  0  0  0  0  0  0  0  0  0  0  0
    8.3556   -1.3051    0.4117 C   0  0  2  0  0  0  0  0  0  0  0  0
    9.8571   -1.5671    0.2232 C   0  0  0  0  0  0  0  0  0  0  0  0
    7.9122    0.0549   -0.0933 C   0  0  0  0  0  0  0  0  0  0  0  0
    6.7201    0.4043    0.1033 O   0  0  0  0  0  0  0  0  0  0  0  0
    8.8175    0.9670   -0.7436 N   0  0  0  0  0  0  0  0  0  0  0  0
    8.5977    2.4196   -0.7296 C   0  0  2  0  0  0  0  0  0  0  0  0
    9.6562    3.1127   -1.5982 C   0  0  0  0  0  0  0  0  0  0  0  0
    8.6773    2.9285    0.6947 C   0  0  0  0  0  0  0  0  0  0  0  0
    9.7332    2.7087    1.3494 O   0  0  0  0  0  0  0  0  0  0  0  0
    7.5901    3.6028    1.3629 N   0  0  0  0  0  0  0  0  0  0  0  0
    6.5725    4.4312    0.6896 C   0  0  2  0  0  0  0  0  0  0  0  0
    7.2243    5.7250    0.1967 C   0  0  0  0  0  0  0  0  0  0  0  0
    5.4059    4.7512    1.6157 C   0  0  0  0  0  0  0  0  0  0  0  0
    5.5150    4.5255    2.8516 O   0  0  0  0  0  0  0  0  0  0  0  0
    4.1754    5.3378    1.1449 N   0  0  0  0  0  0  0  0  0  0  0  0
    3.7961    5.5383   -0.2613 C   0  0  2  0  0  0  0  0  0  0  0  0
    3.4902    7.0161   -0.5096 C   0  0  0  0  0  0  0  0  0  0  0  0
    2.6133    4.6655   -0.5860 C   0  0  0  0  0  0  0  0  0  0  0  0
    2.7997    3.5347   -1.1125 O   0  0  0  0  0  0  0  0  0  0  0  0
    1.2830    5.0608   -0.2287 N   0  0  0  0  0  0  0  0  0  0  0  0
    0.4211    5.7821   -1.1697 C   0  0  2  0  0  0  0  0  0  0  0  0
   -0.1128    7.0304   -0.5178 C   0  0  0  0  0  0  0  0  0  0  0  0
   -0.8828    6.9621    0.6852 N   0  0  0  0  0  0  0  0  0  0  0  0
    0.1133    8.1529   -1.0427 O   0  0  0  0  0  0  0  0  0  0  0  0
   -0.7309    4.8858   -1.6439 C   0  0  0  0  0  0  0  0  0  0  0  0
   -0.0947    3.5424   -2.7109 S   0  0  0  0  0  0  0  0  0  0  0  0
   -1.7249    2.9294   -3.2659 C   0  0  0  0  0  0  0  0  0  0  0  0
  -12.4628    4.7682    2.4327 H   0  0  0  0  0  0  0  0  0  0  0  0
  -12.3843    2.9938    2.7692 H   0  0  0  0  0  0  0  0  0  0  0  0
  -11.3252    4.1321    3.6912 H   0  0  0  0  0  0  0  0  0  0  0  0
  -11.4684    2.0407    0.7478 H   0  0  0  0  0  0  0  0  0  0  0  0
   -9.5942    1.1096   -0.1294 H   0  0  0  0  0  0  0  0  0  0  0  0
   -8.2935    3.8927   -0.1228 H   0  0  0  0  0  0  0  0  0  0  0  0
   -9.2849    3.1565   -1.4197 H   0  0  0  0  0  0  0  0  0  0  0  0
   -5.9287    4.0901   -0.7507 H   0  0  0  0  0  0  0  0  0  0  0  0
   -6.0627    3.0185    0.6841 H   0  0  0  0  0  0  0  0  0  0  0  0
   -4.2081    3.7012   -2.4488 H   0  0  0  0  0  0  0  0  0  0  0  0
   -1.0433    0.9322   -1.5643 H   0  0  0  0  0  0  0  0  0  0  0  0
   -4.5145    1.1662    0.9960 H   0  0  0  0  0  0  0  0  0  0  0  0
   -1.2525    0.3897    1.2961 H   0  0  0  0  0  0  0  0  0  0  0  0
   -1.4903   -0.8624    0.0438 H   0  0  0  0  0  0  0  0  0  0  0  0
   -1.7388   -2.8816    1.2823 H   0  0  0  0  0  0  0  0  0  0  0  0
   -3.2676   -3.3752    2.0725 H   0  0  0  0  0  0  0  0  0  0  0  0
   -2.9479   -2.4186   -0.8386 H   0  0  0  0  0  0  0  0  0  0  0  0
   -5.2070   -1.8561    0.3816 H   0  0  0  0  0  0  0  0  0  0  0  0
   -7.5446   -2.0894   -1.0872 H   0  0  0  0  0  0  0  0  0  0  0  0
   -8.0281   -5.1283   -1.1091 H   0  0  0  0  0  0  0  0  0  0  0  0
   -8.0937   -4.0125   -2.5326 H   0  0  0  0  0  0  0  0  0  0  0  0
   -9.2972   -3.8578   -1.2060 H   0  0  0  0  0  0  0  0  0  0  0  0
   -7.3873   -4.1223    1.1918 H   0  0  0  0  0  0  0  0  0  0  0  0
   -8.4993   -0.7018    0.2019 H   0  0  0  0  0  0  0  0  0  0  0  0
  -10.3435   -2.1521    1.1664 H   0  0  0  0  0  0  0  0  0  0  0  0
  -10.7004   -0.3987    1.3250 H   0  0  0  0  0  0  0  0  0  0  0  0
  -10.1206   -1.3187    2.7646 H   0  0  0  0  0  0  0  0  0  0  0  0
   -7.5903    0.2318    2.8926 H   0  0  0  0  0  0  0  0  0  0  0  0
   -1.8751   -6.0525   -0.9711 H   0  0  0  0  0  0  0  0  0  0  0  0
   -1.7205   -3.2932   -2.2746 H   0  0  0  0  0  0  0  0  0  0  0  0
   -1.0472   -6.0868   -3.3549 H   0  0  0  0  0  0  0  0  0  0  0  0
   -0.8014   -4.5118   -4.2144 H   0  0  0  0  0  0  0  0  0  0  0  0
   -2.4654   -5.0579   -3.7846 H   0  0  0  0  0  0  0  0  0  0  0  0
    0.3994   -6.2941   -1.3651 H   0  0  0  0  0  0  0  0  0  0  0  0
    2.5934   -4.4908   -0.5208 H   0  0  0  0  0  0  0  0  0  0  0  0
    4.1703   -5.1154   -2.3786 H   0  0  0  0  0  0  0  0  0  0  0  0
    2.7628   -4.1693   -2.9839 H   0  0  0  0  0  0  0  0  0  0  0  0
    2.8181   -5.9565   -3.2393 H   0  0  0  0  0  0  0  0  0  0  0  0
    3.4626   -7.4596    1.2734 H   0  0  0  0  0  0  0  0  0  0  0  0
    4.7336   -4.9027    0.2318 H   0  0  0  0  0  0  0  0  0  0  0  0
    6.1800   -7.5543    0.8724 H   0  0  0  0  0  0  0  0  0  0  0  0
    6.8905   -6.0424    0.1606 H   0  0  0  0  0  0  0  0  0  0  0  0
    5.7237   -7.0135   -0.7958 H   0  0  0  0  0  0  0  0  0  0  0  0
    5.4921   -4.0141    3.6740 H   0  0  0  0  0  0  0  0  0  0  0  0
    6.6929   -3.7762    0.8987 H   0  0  0  0  0  0  0  0  0  0  0  0
    8.2193   -4.2655    3.5489 H   0  0  0  0  0  0  0  0  0  0  0  0
    7.9617   -5.4976    2.2616 H   0  0  0  0  0  0  0  0  0  0  0  0
    8.9530   -4.0427    1.9157 H   0  0  0  0  0  0  0  0  0  0  0  0
    8.4200   -0.6864    2.4739 H   0  0  0  0  0  0  0  0  0  0  0  0
    7.8061   -2.0738   -0.1675 H   0  0  0  0  0  0  0  0  0  0  0  0
   10.4643   -0.7656    0.6933 H   0  0  0  0  0  0  0  0  0  0  0  0
   10.1453   -2.5288    0.6903 H   0  0  0  0  0  0  0  0  0  0  0  0
   10.1060   -1.6397   -0.8556 H   0  0  0  0  0  0  0  0  0  0  0  0
    9.7135    0.6036   -1.1362 H   0  0  0  0  0  0  0  0  0  0  0  0
    7.6099    2.6274   -1.1787 H   0  0  0  0  0  0  0  0  0  0  0  0
   10.6831    2.8442   -1.2570 H   0  0  0  0  0  0  0  0  0  0  0  0
    9.5401    2.8003   -2.6588 H   0  0  0  0  0  0  0  0  0  0  0  0
    9.5477    4.2135   -1.5460 H   0  0  0  0  0  0  0  0  0  0  0  0
    7.7025    3.7047    2.3980 H   0  0  0  0  0  0  0  0  0  0  0  0
    6.1552    3.8646   -0.1634 H   0  0  0  0  0  0  0  0  0  0  0  0
    7.7988    6.2044    1.0224 H   0  0  0  0  0  0  0  0  0  0  0  0
    6.4739    6.4532   -0.1651 H   0  0  0  0  0  0  0  0  0  0  0  0
    7.9132    5.5095   -0.6435 H   0  0  0  0  0  0  0  0  0  0  0  0
    3.4637    5.5992    1.8686 H   0  0  0  0  0  0  0  0  0  0  0  0
    4.6183    5.2542   -0.9452 H   0  0  0  0  0  0  0  0  0  0  0  0
    3.1836    7.1800   -1.5642 H   0  0  0  0  0  0  0  0  0  0  0  0
    2.6868    7.3723    0.1672 H   0  0  0  0  0  0  0  0  0  0  0  0
    4.3937    7.6307   -0.3166 H   0  0  0  0  0  0  0  0  0  0  0  0
    0.8743    4.6534    0.6426 H   0  0  0  0  0  0  0  0  0  0  0  0
    1.0137    6.0879   -2.0593 H   0  0  0  0  0  0  0  0  0  0  0  0
   -1.2040    7.8393    1.1503 H   0  0  0  0  0  0  0  0  0  0  0  0
   -1.0829    6.0435    1.1421 H   0  0  0  0  0  0  0  0  0  0  0  0
   -1.4539    5.4931   -2.2260 H   0  0  0  0  0  0  0  0  0  0  0  0
   -1.2569    4.4523   -0.7628 H   0  0  0  0  0  0  0  0  0  0  0  0
   -1.5594    2.1180   -3.9998 H   0  0  0  0  0  0  0  0  0  0  0  0
   -2.2591    3.7509   -3.7925 H   0  0  0  0  0  0  0  0  0  0  0  0
  1  2  1  0
  2  3  2  0
  2  4  1  0
  4  5  1  0
  5  6  1  0
  6  7  1  0
  7  8  1  0
  8  9  1  0
  9 10  2  0
 10 11  1  0
 11 12  2  0
 12 13  1  0
 13 14  2  0
 13 15  1  0
 15 16  1  0
 16 17  1  0
 17 18  1  0
 18 19  1  0
 19 20  1  0
 20 21  2  0
 20 22  1  0
 22 23  1  0
 22 24  1  0
 24 25  1  0
 25 26  2  0
 25 27  1  0
 27 28  1  0
 27 29  1  0
 29 30  1  0
 30 31  2  0
 18 32  1  0
 32 33  2  0
 32 34  1  0
 34 35  1  0
 35 36  1  0
 35 37  1  0
 37 38  2  0
 37 39  1  0
 39 40  1  0
 40 41  1  0
 40 42  1  0
 42 43  2  0
 42 44  1  0
 44 45  1  0
 45 46  1  0
 45 47  1  0
 47 48  2  0
 47 49  1  0
 49 50  1  0
 50 51  1  0
 50 52  1  0
 52 53  2  0
 52 54  1  0
 54 55  1  0
 55 56  1  0
 55 57  1  0
 57 58  2  0
 57 59  1  0
 59 60  1  0
 60 61  1  0
 60 62  1  0
 62 63  2  0
 62 64  1  0
 64 65  1  0
 65 66  1  0
 65 67  1  0
 67 68  2  0
 67 69  1  0
 69 70  1  0
 70 71  1  0
 70 72  1  0
 72 73  2  0
 72 74  1  0
 74 75  1  0
 75 76  1  0
 76 77  1  0
 76 78  2  0
 75 79  1  0
 79 80  1  0
 80 81  1  0
 30  5  1  0
 14  9  1  0
 81 11  1  0
  1 82  1  0
  1 83  1  0
  1 84  1  0
  4 85  1  0
  5 86  1  6
  6 87  1  0
  6 88  1  0
  8 89  1  0
  8 90  1  0
 10 91  1  0
 12 92  1  0
 14 93  1  0
 15 94  1  0
 15 95  1  0
 17 96  1  0
 17 97  1  0
 18 98  1  6
 19 99  1  0
 22100  1  6
 23101  1  0
 23102  1  0
 23103  1  0
 24104  1  0
 27105  1  6
 28106  1  0
 28107  1  0
 28108  1  0
 29109  1  0
 34110  1  0
 35111  1  6
 36112  1  0
 36113  1  0
 36114  1  0
 39115  1  0
 40116  1  1
 41117  1  0
 41118  1  0
 41119  1  0
 44120  1  0
 45121  1  6
 46122  1  0
 46123  1  0
 46124  1  0
 49125  1  0
 50126  1  6
 51127  1  0
 51128  1  0
 51129  1  0
 54130  1  0
 55131  1  6
 56132  1  0
 56133  1  0
 56134  1  0
 59135  1  0
 60136  1  6
 61137  1  0
 61138  1  0
 61139  1  0
 64140  1  0
 65141  1  6
 66142  1  0
 66143  1  0
 66144  1  0
 69145  1  0
 70146  1  6
 71147  1  0
 71148  1  0
 71149  1  0
 74150  1  0
 75151  1  6
 77152  1  0
 77153  1  0
 79154  1  0
 79155  1  0
 81156  1  0
 81157  1  0
M  END
