
     RDKit          3D

147149  0  0  0  0  0  0  0  0999 V2000
    9.3427    0.8726    3.5462 C   0  0  0  0  0  0  0  0  0  0  0  0
    9.8265    1.9140    2.5906 C   0  0  0  0  0  0  0  0  0  0  0  0
   10.8822    2.5519    2.8589 O   0  0  0  0  0  0  0  0  0  0  0  0
    9.1456    2.1896    1.3536 N   0  0  0  0  0  0  0  0  0  0  0  0
    8.0204    1.3939    0.8475 C   0  0  1  0  0  0  0  0  0  0  0  0
    7.0606    2.2829    0.0502 C   0  0  0  0  0  0  0  0  0  0  0  0
    6.3829    3.6124    1.1160 S   0  0  0  0  0  0  0  0  0  0  0  0
    4.8521    2.7422    1.6119 C   0  0  0  0  0  0  0  0  0  0  0  0
    3.8111    2.8922    0.5403 C   0  0  0  0  0  0  0  0  0  0  0  0
    3.3479    4.1654    0.1872 C   0  0  0  0  0  0  0  0  0  0  0  0
    2.4082    4.3263   -0.8409 C   0  0  0  0  0  0  0  0  0  0  0  0
    1.8743    3.1939   -1.4706 C   0  0  0  0  0  0  0  0  0  0  0  0
    2.2666    1.9042   -1.0771 C   0  0  0  0  0  0  0  0  0  0  0  0
    3.2700    1.7621   -0.0965 C   0  0  0  0  0  0  0  0  0  0  0  0
    1.6949    0.7253   -1.8174 C   0  0  0  0  0  0  0  0  0  0  0  0
    1.5464   -0.7850   -0.7834 S   0  0  0  0  0  0  0  0  0  0  0  0
    2.3052   -1.8960   -2.0202 C   0  0  0  0  0  0  0  0  0  0  0  0
    2.1800   -3.3728   -1.6187 C   0  0  2  0  0  0  0  0  0  0  0  0
    2.9745   -4.1757   -2.5541 N   0  0  0  0  0  0  0  0  0  0  0  0
    4.3889   -4.4215   -2.4471 C   0  0  0  0  0  0  0  0  0  0  0  0
    4.9428   -5.1091   -3.3452 O   0  0  0  0  0  0  0  0  0  0  0  0
    5.2139   -3.9901   -1.2455 C   0  0  1  0  0  0  0  0  0  0  0  0
    5.3308   -5.1756   -0.2710 C   0  0  0  0  0  0  0  0  0  0  0  0
    6.5551   -3.5575   -1.6629 N   0  0  0  0  0  0  0  0  0  0  0  0
    7.5163   -3.0194   -0.7422 C   0  0  0  0  0  0  0  0  0  0  0  0
    8.6724   -3.5296   -0.7168 O   0  0  0  0  0  0  0  0  0  0  0  0
    7.1992   -1.8397    0.1592 C   0  0  1  0  0  0  0  0  0  0  0  0
    6.6094   -2.2945    1.4961 C   0  0  0  0  0  0  0  0  0  0  0  0
    8.4187   -1.0729    0.4070 N   0  0  0  0  0  0  0  0  0  0  0  0
    8.5533    0.2856   -0.0089 C   0  0  0  0  0  0  0  0  0  0  0  0
    9.2024    0.5489   -1.0556 O   0  0  0  0  0  0  0  0  0  0  0  0
    0.7339   -3.8559   -1.6547 C   0  0  0  0  0  0  0  0  0  0  0  0
   -0.0647   -3.3345   -2.4772 O   0  0  0  0  0  0  0  0  0  0  0  0
    0.2569   -4.9499   -0.8469 N   0  0  0  0  0  0  0  0  0  0  0  0
    1.0120   -5.6203    0.2212 C   0  0  2  0  0  0  0  0  0  0  0  0
    1.8571   -6.7438   -0.3965 C   0  0  0  0  0  0  0  0  0  0  0  0
    0.0729   -6.1753    1.2822 C   0  0  0  0  0  0  0  0  0  0  0  0
    0.3563   -7.2719    1.8395 O   0  0  0  0  0  0  0  0  0  0  0  0
   -1.1437   -5.5131    1.6829 N   0  0  0  0  0  0  0  0  0  0  0  0
   -1.3696   -4.0581    1.6797 C   0  0  2  0  0  0  0  0  0  0  0  0
   -0.3545   -3.3469    2.5846 C   0  0  0  0  0  0  0  0  0  0  0  0
   -2.7846   -3.7875    2.1525 C   0  0  0  0  0  0  0  0  0  0  0  0
   -3.0218   -3.8124    3.3935 O   0  0  0  0  0  0  0  0  0  0  0  0
   -3.8919   -3.6263    1.2457 N   0  0  0  0  0  0  0  0  0  0  0  0
   -3.8150   -3.7549   -0.2137 C   0  0  2  0  0  0  0  0  0  0  0  0
   -3.5590   -2.3952   -0.8735 C   0  0  0  0  0  0  0  0  0  0  0  0
   -5.0496   -4.4323   -0.7759 C   0  0  0  0  0  0  0  0  0  0  0  0
   -4.9539   -5.6358   -1.1407 O   0  0  0  0  0  0  0  0  0  0  0  0
   -6.2985   -3.7516   -0.9932 N   0  0  0  0  0  0  0  0  0  0  0  0
   -6.9547   -2.9169    0.0207 C   0  0  2  0  0  0  0  0  0  0  0  0
   -7.6430   -3.8128    1.0583 C   0  0  0  0  0  0  0  0  0  0  0  0
   -7.9893   -2.0068   -0.6030 C   0  0  0  0  0  0  0  0  0  0  0  0
   -8.5420   -2.3296   -1.6873 O   0  0  0  0  0  0  0  0  0  0  0  0
   -8.4801   -0.8581    0.0991 N   0  0  0  0  0  0  0  0  0  0  0  0
   -7.6079    0.1388    0.7372 C   0  0  2  0  0  0  0  0  0  0  0  0
   -7.5996   -0.0916    2.2507 C   0  0  0  0  0  0  0  0  0  0  0  0
   -8.1075    1.5403    0.4265 C   0  0  0  0  0  0  0  0  0  0  0  0
   -9.1338    1.6907   -0.2934 O   0  0  0  0  0  0  0  0  0  0  0  0
   -7.5016    2.7069    0.9996 N   0  0  0  0  0  0  0  0  0  0  0  0
   -6.0574    2.8774    1.1722 C   0  0  2  0  0  0  0  0  0  0  0  0
   -5.7757    3.6245    2.4771 C   0  0  0  0  0  0  0  0  0  0  0  0
   -5.4782    3.6432    0.0112 C   0  0  0  0  0  0  0  0  0  0  0  0
   -4.4578    3.1938   -0.5744 O   0  0  0  0  0  0  0  0  0  0  0  0
   -6.0448    4.9041   -0.3908 N   0  0  0  0  0  0  0  0  0  0  0  0
   -5.2192    5.9915   -0.9314 C   0  0  2  0  0  0  0  0  0  0  0  0
   -6.0819    7.2275   -1.2034 C   0  0  0  0  0  0  0  0  0  0  0  0
   -4.5315    5.5696   -2.2089 C   0  0  0  0  0  0  0  0  0  0  0  0
   -5.2276    5.1094   -3.1508 O   0  0  0  0  0  0  0  0  0  0  0  0
   -3.1055    5.6432   -2.3727 N   0  0  0  0  0  0  0  0  0  0  0  0
   -2.1687    6.1171   -1.3464 C   0  0  2  0  0  0  0  0  0  0  0  0
   -2.3360    7.6002   -1.1395 C   0  0  0  0  0  0  0  0  0  0  0  0
   -2.3697    8.4980   -2.2489 N   0  0  0  0  0  0  0  0  0  0  0  0
   -2.4366    8.0595    0.0286 O   0  0  0  0  0  0  0  0  0  0  0  0
   -0.7198    5.7947   -1.7449 C   0  0  0  0  0  0  0  0  0  0  0  0
    0.4302    6.1474   -0.3621 S   0  0  0  0  0  0  0  0  0  0  0  0
    1.9575    5.7012   -1.2531 C   0  0  0  0  0  0  0  0  0  0  0  0
    8.3290    1.1272    3.9119 H   0  0  0  0  0  0  0  0  0  0  0  0
   10.0276    0.7922    4.4188 H   0  0  0  0  0  0  0  0  0  0  0  0
    9.3130   -0.1151    3.0386 H   0  0  0  0  0  0  0  0  0  0  0  0
    9.6108    2.8508    0.6916 H   0  0  0  0  0  0  0  0  0  0  0  0
    7.4470    0.9565    1.6913 H   0  0  0  0  0  0  0  0  0  0  0  0
    6.2432    1.6668   -0.3866 H   0  0  0  0  0  0  0  0  0  0  0  0
    7.6005    2.7624   -0.7918 H   0  0  0  0  0  0  0  0  0  0  0  0
    4.4764    3.1956    2.5535 H   0  0  0  0  0  0  0  0  0  0  0  0
    5.0714    1.6735    1.8256 H   0  0  0  0  0  0  0  0  0  0  0  0
    3.7594    5.0433    0.6735 H   0  0  0  0  0  0  0  0  0  0  0  0
    1.1580    3.3117   -2.2716 H   0  0  0  0  0  0  0  0  0  0  0  0
    3.6269    0.7744    0.1652 H   0  0  0  0  0  0  0  0  0  0  0  0
    2.3291    0.5578   -2.7199 H   0  0  0  0  0  0  0  0  0  0  0  0
    0.6643    0.9613   -2.1780 H   0  0  0  0  0  0  0  0  0  0  0  0
    3.3823   -1.6270   -2.1016 H   0  0  0  0  0  0  0  0  0  0  0  0
    1.8380   -1.7360   -3.0166 H   0  0  0  0  0  0  0  0  0  0  0  0
    2.5774   -3.4836   -0.5931 H   0  0  0  0  0  0  0  0  0  0  0  0
    2.5161   -4.4626   -3.4496 H   0  0  0  0  0  0  0  0  0  0  0  0
    4.7260   -3.1393   -0.7391 H   0  0  0  0  0  0  0  0  0  0  0  0
    5.9794   -4.9258    0.5881 H   0  0  0  0  0  0  0  0  0  0  0  0
    4.3311   -5.4464    0.1240 H   0  0  0  0  0  0  0  0  0  0  0  0
    5.7694   -6.0607   -0.7878 H   0  0  0  0  0  0  0  0  0  0  0  0
    6.9323   -3.8888   -2.5825 H   0  0  0  0  0  0  0  0  0  0  0  0
    6.4433   -1.1982   -0.3542 H   0  0  0  0  0  0  0  0  0  0  0  0
    6.4860   -1.4193    2.1655 H   0  0  0  0  0  0  0  0  0  0  0  0
    7.2754   -3.0335    1.9884 H   0  0  0  0  0  0  0  0  0  0  0  0
    5.6043   -2.7409    1.3625 H   0  0  0  0  0  0  0  0  0  0  0  0
    9.2497   -1.5436    0.8340 H   0  0  0  0  0  0  0  0  0  0  0  0
   -0.6825   -5.3344   -1.0954 H   0  0  0  0  0  0  0  0  0  0  0  0
    1.6780   -4.9026    0.7395 H   0  0  0  0  0  0  0  0  0  0  0  0
    1.1952   -7.5515   -0.7819 H   0  0  0  0  0  0  0  0  0  0  0  0
    2.5474   -7.1730    0.3626 H   0  0  0  0  0  0  0  0  0  0  0  0
    2.4587   -6.3667   -1.2429 H   0  0  0  0  0  0  0  0  0  0  0  0
   -1.8290   -6.1100    2.1994 H   0  0  0  0  0  0  0  0  0  0  0  0
   -1.2429   -3.6497    0.6628 H   0  0  0  0  0  0  0  0  0  0  0  0
    0.6527   -3.3605    2.1209 H   0  0  0  0  0  0  0  0  0  0  0  0
   -0.6482   -2.2851    2.7296 H   0  0  0  0  0  0  0  0  0  0  0  0
   -0.2982   -3.8463    3.5785 H   0  0  0  0  0  0  0  0  0  0  0  0
   -4.8190   -3.4767    1.7000 H   0  0  0  0  0  0  0  0  0  0  0  0
   -2.9641   -4.4165   -0.4801 H   0  0  0  0  0  0  0  0  0  0  0  0
   -2.5494   -2.0252   -0.6000 H   0  0  0  0  0  0  0  0  0  0  0  0
   -4.3056   -1.6404   -0.5451 H   0  0  0  0  0  0  0  0  0  0  0  0
   -3.6013   -2.4866   -1.9800 H   0  0  0  0  0  0  0  0  0  0  0  0
   -6.9260   -4.1984   -1.7048 H   0  0  0  0  0  0  0  0  0  0  0  0
   -6.2061   -2.2827    0.5243 H   0  0  0  0  0  0  0  0  0  0  0  0
   -6.9369   -4.5755    1.4441 H   0  0  0  0  0  0  0  0  0  0  0  0
   -8.0047   -3.2048    1.9147 H   0  0  0  0  0  0  0  0  0  0  0  0
   -8.5125   -4.3368    0.6028 H   0  0  0  0  0  0  0  0  0  0  0  0
   -9.5134   -0.7655    0.1969 H   0  0  0  0  0  0  0  0  0  0  0  0
   -6.5760    0.0413    0.3406 H   0  0  0  0  0  0  0  0  0  0  0  0
   -6.9758    0.6676    2.7698 H   0  0  0  0  0  0  0  0  0  0  0  0
   -8.6338   -0.0403    2.6560 H   0  0  0  0  0  0  0  0  0  0  0  0
   -7.1734   -1.0857    2.4853 H   0  0  0  0  0  0  0  0  0  0  0  0
   -8.1139    3.5483    1.1024 H   0  0  0  0  0  0  0  0  0  0  0  0
   -5.5509    1.8908    1.2405 H   0  0  0  0  0  0  0  0  0  0  0  0
   -6.1835    3.0537    3.3393 H   0  0  0  0  0  0  0  0  0  0  0  0
   -6.2426    4.6337    2.4706 H   0  0  0  0  0  0  0  0  0  0  0  0
   -4.6796    3.7399    2.6258 H   0  0  0  0  0  0  0  0  0  0  0  0
   -6.9795    5.1526   -0.0064 H   0  0  0  0  0  0  0  0  0  0  0  0
   -4.4980    6.2734   -0.1489 H   0  0  0  0  0  0  0  0  0  0  0  0
   -5.4512    8.0572   -1.5927 H   0  0  0  0  0  0  0  0  0  0  0  0
   -6.8790    7.0001   -1.9448 H   0  0  0  0  0  0  0  0  0  0  0  0
   -6.5604    7.5732   -0.2587 H   0  0  0  0  0  0  0  0  0  0  0  0
   -2.7174    5.2575   -3.2670 H   0  0  0  0  0  0  0  0  0  0  0  0
   -2.3715    5.5714   -0.3956 H   0  0  0  0  0  0  0  0  0  0  0  0
   -2.4382    9.5287   -2.0885 H   0  0  0  0  0  0  0  0  0  0  0  0
   -2.3164    8.1407   -3.2295 H   0  0  0  0  0  0  0  0  0  0  0  0
   -0.4327    6.3877   -2.6417 H   0  0  0  0  0  0  0  0  0  0  0  0
   -0.6495    4.7169   -1.9949 H   0  0  0  0  0  0  0  0  0  0  0  0
    1.8344    5.7574   -2.3513 H   0  0  0  0  0  0  0  0  0  0  0  0
    2.7338    6.4481   -0.9862 H   0  0  0  0  0  0  0  0  0  0  0  0
  1  2  1  0
  2  3  2  0
  2  4  1  0
  4  5  1  0
  5  6  1  0
  6  7  1  0
  7  8  1  0
  8  9  1  0
  9 10  2  0
 10 11  1  0
 11 12  2  0
 12 13  1  0
 13 14  2  0
 13 15  1  0
 15 16  1  0
 16 17  1  0
 17 18  1  0
 18 19  1  0
 19 20  1  0
 20 21  2  0
 20 22  1  0
 22 23  1  0
 22 24  1  0
 24 25  1  0
 25 26  2  0
 25 27  1  0
 27 28  1  0
 27 29  1  0
 29 30  1  0
 30 31  2  0
 18 32  1  0
 32 33  2  0
 32 34  1  0
 34 35  1  0
 35 36  1  0
 35 37  1  0
 37 38  2  0
 37 39  1  0
 39 40  1  0
 40 41  1  0
 40 42  1  0
 42 43  2  0
 42 44  1  0
 44 45  1  0
 45 46  1  0
 45 47  1  0
 47 48  2  0
 47 49  1  0
 49 50  1  0
 50 51  1  0
 50 52  1  0
 52 53  2  0
 52 54  1  0
 54 55  1  0
 55 56  1  0
 55 57  1  0
 57 58  2  0
 57 59  1  0
 59 60  1  0
 60 61  1  0
 60 62  1  0
 62 63  2  0
 62 64  1  0
 64 65  1  0
 65 66  1  0
 65 67  1  0
 67 68  2  0
 67 69  1  0
 69 70  1  0
 70 71  1  0
 71 72  1  0
 71 73  2  0
 70 74  1  0
 74 75  1  0
 75 76  1  0
 30  5  1  0
 14  9  1  0
 76 11  1  0
  1 77  1  0
  1 78  1  0
  1 79  1  0
  4 80  1  0
  5 81  1  1
  6 82  1  0
  6 83  1  0
  8 84  1  0
  8 85  1  0
 10 86  1  0
 12 87  1  0
 14 88  1  0
 15 89  1  0
 15 90  1  0
 17 91  1  0
 17 92  1  0
 18 93  1  1
 19 94  1  0
 22 95  1  1
 23 96  1  0
 23 97  1  0
 23 98  1  0
 24 99  1  0
 27100  1  6
 28101  1  0
 28102  1  0
 28103  1  0
 29104  1  0
 34105  1  0
 35106  1  1
 36107  1  0
 36108  1  0
 36109  1  0
 39110  1  0
 40111  1  6
 41112  1  0
 41113  1  0
 41114  1  0
 44115  1  0
 45116  1  1
 46117  1  0
 46118  1  0
 46119  1  0
 49120  1  0
 50121  1  1
 51122  1  0
 51123  1  0
 51124  1  0
 54125  1  0
 55126  1  6
 56127  1  0
 56128  1  0
 56129  1  0
 59130  1  0
 60131  1  1
 61132  1  0
 61133  1  0
 61134  1  0
 64135  1  0
 65136  1  1
 66137  1  0
 66138  1  0
 66139  1  0
 69140  1  0
 70141  1  1
 72142  1  0
 72143  1  0
 74144  1  0
 74145  1  0
 76146  1  0
 76147  1  0
M  END
