
     RDKit          3D

137139  0  0  0  0  0  0  0  0999 V2000
   11.4977    1.5616    1.3368 C   0  0  0  0  0  0  0  0  0  0  0  0
   10.3693    1.7555    0.3701 C   0  0  0  0  0  0  0  0  0  0  0  0
   10.6299    2.0971   -0.8110 O   0  0  0  0  0  0  0  0  0  0  0  0
    9.0072    1.5976    0.8134 N   0  0  0  0  0  0  0  0  0  0  0  0
    7.8277    1.5943   -0.0618 C   0  0  1  0  0  0  0  0  0  0  0  0
    7.7067    2.8954   -0.8838 C   0  0  0  0  0  0  0  0  0  0  0  0
    6.1268    2.9802   -1.8131 S   0  0  0  0  0  0  0  0  0  0  0  0
    5.1020    3.6225   -0.4434 C   0  0  0  0  0  0  0  0  0  0  0  0
    3.6471    3.3526   -0.7021 C   0  0  0  0  0  0  0  0  0  0  0  0
    2.7068    4.4025   -0.6973 C   0  0  0  0  0  0  0  0  0  0  0  0
    1.3303    4.1284   -0.7891 C   0  0  0  0  0  0  0  0  0  0  0  0
    0.9045    2.7905   -0.8476 C   0  0  0  0  0  0  0  0  0  0  0  0
    1.8274    1.7356   -0.8540 C   0  0  0  0  0  0  0  0  0  0  0  0
    3.1976    2.0282   -0.8129 C   0  0  0  0  0  0  0  0  0  0  0  0
    1.3275    0.3189   -0.9330 C   0  0  0  0  0  0  0  0  0  0  0  0
    2.1882   -0.7811    0.2551 S   0  0  0  0  0  0  0  0  0  0  0  0
    1.2530   -2.2942   -0.2043 C   0  0  0  0  0  0  0  0  0  0  0  0
    2.1784   -3.5159   -0.2814 C   0  0  2  0  0  0  0  0  0  0  0  0
    3.2903   -3.2348   -1.1964 N   0  0  0  0  0  0  0  0  0  0  0  0
    4.5160   -3.9805   -1.1794 C   0  0  0  0  0  0  0  0  0  0  0  0
    5.0708   -4.2745   -2.2701 O   0  0  0  0  0  0  0  0  0  0  0  0
    5.1860   -4.3702    0.1170 C   0  0  1  0  0  0  0  0  0  0  0  0
    4.8922   -5.8407    0.4338 C   0  0  0  0  0  0  0  0  0  0  0  0
    6.6319   -4.1402    0.0069 N   0  0  0  0  0  0  0  0  0  0  0  0
    7.2126   -2.8401   -0.2206 C   0  0  0  0  0  0  0  0  0  0  0  0
    8.3885   -2.7743   -0.6736 O   0  0  0  0  0  0  0  0  0  0  0  0
    6.4833   -1.5651    0.1405 C   0  0  1  0  0  0  0  0  0  0  0  0
    6.9031   -1.1133    1.5436 C   0  0  0  0  0  0  0  0  0  0  0  0
    6.6993   -0.5425   -0.8994 N   0  0  0  0  0  0  0  0  0  0  0  0
    7.8140    0.3618   -0.9324 C   0  0  0  0  0  0  0  0  0  0  0  0
    8.7196    0.1931   -1.7941 O   0  0  0  0  0  0  0  0  0  0  0  0
    1.4318   -4.7352   -0.7756 C   0  0  0  0  0  0  0  0  0  0  0  0
    1.4577   -5.0141   -2.0056 O   0  0  0  0  0  0  0  0  0  0  0  0
    0.7119   -5.6127    0.1080 N   0  0  0  0  0  0  0  0  0  0  0  0
    0.0372   -5.1795    1.3363 C   0  0  2  0  0  0  0  0  0  0  0  0
   -0.2836   -6.3976    2.2095 C   0  0  0  0  0  0  0  0  0  0  0  0
   -1.2448   -4.4346    1.0228 C   0  0  0  0  0  0  0  0  0  0  0  0
   -1.8920   -3.8859    1.9600 O   0  0  0  0  0  0  0  0  0  0  0  0
   -1.7316   -4.3201   -0.3189 N   0  0  0  0  0  0  0  0  0  0  0  0
   -2.8823   -5.0943   -0.7774 C   0  0  2  0  0  0  0  0  0  0  0  0
   -2.3969   -6.2751   -1.6280 C   0  0  0  0  0  0  0  0  0  0  0  0
   -3.8098   -4.1988   -1.5688 C   0  0  0  0  0  0  0  0  0  0  0  0
   -3.5263   -3.9279   -2.7698 O   0  0  0  0  0  0  0  0  0  0  0  0
   -5.0017   -3.6302   -1.0075 N   0  0  0  0  0  0  0  0  0  0  0  0
   -5.3534   -3.6532    0.4151 C   0  0  2  0  0  0  0  0  0  0  0  0
   -6.3062   -4.8212    0.6798 C   0  0  0  0  0  0  0  0  0  0  0  0
   -5.9162   -2.2966    0.7882 C   0  0  0  0  0  0  0  0  0  0  0  0
   -5.1302   -1.3161    0.8335 O   0  0  0  0  0  0  0  0  0  0  0  0
   -7.3191   -2.0807    1.0288 N   0  0  0  0  0  0  0  0  0  0  0  0
   -7.9184   -0.7474    0.8763 C   0  0  2  0  0  0  0  0  0  0  0  0
   -9.3726   -0.7656    1.3545 C   0  0  0  0  0  0  0  0  0  0  0  0
   -7.8621   -0.3314   -0.5780 C   0  0  0  0  0  0  0  0  0  0  0  0
   -8.2358   -1.1574   -1.4556 O   0  0  0  0  0  0  0  0  0  0  0  0
   -7.3673    0.9476   -1.0128 N   0  0  0  0  0  0  0  0  0  0  0  0
   -7.4947    2.1944   -0.2421 C   0  0  2  0  0  0  0  0  0  0  0  0
   -8.8215    2.8710   -0.6151 C   0  0  0  0  0  0  0  0  0  0  0  0
   -6.3041    3.1024   -0.5157 C   0  0  0  0  0  0  0  0  0  0  0  0
   -5.3611    2.6994   -1.2528 O   0  0  0  0  0  0  0  0  0  0  0  0
   -6.2129    4.3981    0.0993 N   0  0  0  0  0  0  0  0  0  0  0  0
   -4.9213    4.9766    0.4924 C   0  0  2  0  0  0  0  0  0  0  0  0
   -4.6094    4.5647    1.9343 C   0  0  0  0  0  0  0  0  0  0  0  0
   -4.9347    6.4879    0.3823 C   0  0  0  0  0  0  0  0  0  0  0  0
   -5.9783    7.1156    0.7119 O   0  0  0  0  0  0  0  0  0  0  0  0
   -3.7919    7.2390   -0.0619 N   0  0  0  0  0  0  0  0  0  0  0  0
   -2.4113    6.7483   -0.0837 C   0  0  2  0  0  0  0  0  0  0  0  0
   -1.5526    7.6892    0.7324 C   0  0  0  0  0  0  0  0  0  0  0  0
   -1.7473    7.7907    2.1450 N   0  0  0  0  0  0  0  0  0  0  0  0
   -0.6656    8.4043    0.1869 O   0  0  0  0  0  0  0  0  0  0  0  0
   -1.9347    6.6051   -1.5538 C   0  0  0  0  0  0  0  0  0  0  0  0
   -1.0309    5.0426   -1.8776 S   0  0  0  0  0  0  0  0  0  0  0  0
    0.3177    5.2358   -0.6480 C   0  0  0  0  0  0  0  0  0  0  0  0
   11.1361    1.1361    2.2906 H   0  0  0  0  0  0  0  0  0  0  0  0
   12.2438    0.8625    0.9016 H   0  0  0  0  0  0  0  0  0  0  0  0
   11.9830    2.5356    1.5382 H   0  0  0  0  0  0  0  0  0  0  0  0
    8.8424    1.4379    1.8329 H   0  0  0  0  0  0  0  0  0  0  0  0
    6.9360    1.5536    0.5863 H   0  0  0  0  0  0  0  0  0  0  0  0
    7.7986    3.7768   -0.2132 H   0  0  0  0  0  0  0  0  0  0  0  0
    8.5238    2.9682   -1.6316 H   0  0  0  0  0  0  0  0  0  0  0  0
    5.3636    3.1248    0.5070 H   0  0  0  0  0  0  0  0  0  0  0  0
    5.2976    4.7133   -0.3317 H   0  0  0  0  0  0  0  0  0  0  0  0
    3.0398    5.4166   -0.5501 H   0  0  0  0  0  0  0  0  0  0  0  0
   -0.1615    2.5675   -0.8543 H   0  0  0  0  0  0  0  0  0  0  0  0
    3.9196    1.2214   -0.8064 H   0  0  0  0  0  0  0  0  0  0  0  0
    1.4782   -0.0585   -1.9609 H   0  0  0  0  0  0  0  0  0  0  0  0
    0.2436    0.2837   -0.7013 H   0  0  0  0  0  0  0  0  0  0  0  0
    0.4840   -2.4405    0.5811 H   0  0  0  0  0  0  0  0  0  0  0  0
    0.7292   -2.1703   -1.1744 H   0  0  0  0  0  0  0  0  0  0  0  0
    2.5641   -3.7214    0.7417 H   0  0  0  0  0  0  0  0  0  0  0  0
    3.0676   -2.7319   -2.0858 H   0  0  0  0  0  0  0  0  0  0  0  0
    4.7985   -3.7632    0.9634 H   0  0  0  0  0  0  0  0  0  0  0  0
    3.7995   -5.9947    0.5454 H   0  0  0  0  0  0  0  0  0  0  0  0
    5.3879   -6.1259    1.3867 H   0  0  0  0  0  0  0  0  0  0  0  0
    5.2670   -6.4998   -0.3828 H   0  0  0  0  0  0  0  0  0  0  0  0
    7.2716   -4.9642   -0.0562 H   0  0  0  0  0  0  0  0  0  0  0  0
    5.3889   -1.7417    0.1816 H   0  0  0  0  0  0  0  0  0  0  0  0
    6.6717   -1.9119    2.2780 H   0  0  0  0  0  0  0  0  0  0  0  0
    6.3264   -0.2140    1.8521 H   0  0  0  0  0  0  0  0  0  0  0  0
    7.9943   -0.9011    1.5829 H   0  0  0  0  0  0  0  0  0  0  0  0
    6.2557   -0.7496   -1.8214 H   0  0  0  0  0  0  0  0  0  0  0  0
    0.4945   -6.5676   -0.2658 H   0  0  0  0  0  0  0  0  0  0  0  0
    0.7094   -4.5177    1.9263 H   0  0  0  0  0  0  0  0  0  0  0  0
   -0.9605   -7.1012    1.6697 H   0  0  0  0  0  0  0  0  0  0  0  0
   -0.7829   -6.0834    3.1553 H   0  0  0  0  0  0  0  0  0  0  0  0
    0.6551   -6.9398    2.4701 H   0  0  0  0  0  0  0  0  0  0  0  0
   -1.1219   -3.8735   -1.0375 H   0  0  0  0  0  0  0  0  0  0  0  0
   -3.4175   -5.5248    0.0954 H   0  0  0  0  0  0  0  0  0  0  0  0
   -3.2637   -6.8456   -2.0282 H   0  0  0  0  0  0  0  0  0  0  0  0
   -1.7867   -6.9584   -0.9982 H   0  0  0  0  0  0  0  0  0  0  0  0
   -1.7721   -5.9180   -2.4748 H   0  0  0  0  0  0  0  0  0  0  0  0
   -5.6934   -3.2051   -1.6692 H   0  0  0  0  0  0  0  0  0  0  0  0
   -4.4452   -3.7999    1.0422 H   0  0  0  0  0  0  0  0  0  0  0  0
   -7.2133   -4.7415    0.0386 H   0  0  0  0  0  0  0  0  0  0  0  0
   -6.5998   -4.8499    1.7508 H   0  0  0  0  0  0  0  0  0  0  0  0
   -5.8060   -5.7797    0.4353 H   0  0  0  0  0  0  0  0  0  0  0  0
   -7.9473   -2.8906    1.2317 H   0  0  0  0  0  0  0  0  0  0  0  0
   -7.3555   -0.0453    1.5255 H   0  0  0  0  0  0  0  0  0  0  0  0
   -9.9851   -1.4623    0.7403 H   0  0  0  0  0  0  0  0  0  0  0  0
   -9.8139    0.2575    1.2909 H   0  0  0  0  0  0  0  0  0  0  0  0
   -9.4223   -1.1036    2.4152 H   0  0  0  0  0  0  0  0  0  0  0  0
   -7.2190    1.0489   -2.0405 H   0  0  0  0  0  0  0  0  0  0  0  0
   -7.5056    1.9970    0.8478 H   0  0  0  0  0  0  0  0  0  0  0  0
   -9.6400    2.1245   -0.6235 H   0  0  0  0  0  0  0  0  0  0  0  0
   -9.0770    3.6662    0.1170 H   0  0  0  0  0  0  0  0  0  0  0  0
   -8.7635    3.3173   -1.6397 H   0  0  0  0  0  0  0  0  0  0  0  0
   -7.0882    4.8355    0.4789 H   0  0  0  0  0  0  0  0  0  0  0  0
   -4.1278    4.5743   -0.1787 H   0  0  0  0  0  0  0  0  0  0  0  0
   -4.6027    3.4535    2.0062 H   0  0  0  0  0  0  0  0  0  0  0  0
   -3.6075    4.9408    2.2390 H   0  0  0  0  0  0  0  0  0  0  0  0
   -5.3801    4.9653    2.6248 H   0  0  0  0  0  0  0  0  0  0  0  0
   -3.9556    8.2250   -0.3753 H   0  0  0  0  0  0  0  0  0  0  0  0
   -2.3515    5.7613    0.4200 H   0  0  0  0  0  0  0  0  0  0  0  0
   -1.1546    8.4370    2.7146 H   0  0  0  0  0  0  0  0  0  0  0  0
   -2.4528    7.1874    2.6301 H   0  0  0  0  0  0  0  0  0  0  0  0
   -1.3211    7.4599   -1.9007 H   0  0  0  0  0  0  0  0  0  0  0  0
   -2.8260    6.5751   -2.2192 H   0  0  0  0  0  0  0  0  0  0  0  0
   -0.1088    5.1543    0.3669 H   0  0  0  0  0  0  0  0  0  0  0  0
    0.7898    6.2319   -0.7688 H   0  0  0  0  0  0  0  0  0  0  0  0
  1  2  1  0
  2  3  2  0
  2  4  1  0
  4  5  1  0
  5  6  1  0
  6  7  1  0
  7  8  1  0
  8  9  1  0
  9 10  2  0
 10 11  1  0
 11 12  2  0
 12 13  1  0
 13 14  2  0
 13 15  1  0
 15 16  1  0
 16 17  1  0
 17 18  1  0
 18 19  1  0
 19 20  1  0
 20 21  2  0
 20 22  1  0
 22 23  1  0
 22 24  1  0
 24 25  1  0
 25 26  2  0
 25 27  1  0
 27 28  1  0
 27 29  1  0
 29 30  1  0
 30 31  2  0
 18 32  1  0
 32 33  2  0
 32 34  1  0
 34 35  1  0
 35 36  1  0
 35 37  1  0
 37 38  2  0
 37 39  1  0
 39 40  1  0
 40 41  1  0
 40 42  1  0
 42 43  2  0
 42 44  1  0
 44 45  1  0
 45 46  1  0
 45 47  1  0
 47 48  2  0
 47 49  1  0
 49 50  1  0
 50 51  1  0
 50 52  1  0
 52 53  2  0
 52 54  1  0
 54 55  1  0
 55 56  1  0
 55 57  1  0
 57 58  2  0
 57 59  1  0
 59 60  1  0
 60 61  1  0
 60 62  1  0
 62 63  2  0
 62 64  1  0
 64 65  1  0
 65 66  1  0
 66 67  1  0
 66 68  2  0
 65 69  1  0
 69 70  1  0
 70 71  1  0
 30  5  1  0
 14  9  1  0
 71 11  1  0
  1 72  1  0
  1 73  1  0
  1 74  1  0
  4 75  1  0
  5 76  1  1
  6 77  1  0
  6 78  1  0
  8 79  1  0
  8 80  1  0
 10 81  1  0
 12 82  1  0
 14 83  1  0
 15 84  1  0
 15 85  1  0
 17 86  1  0
 17 87  1  0
 18 88  1  1
 19 89  1  0
 22 90  1  1
 23 91  1  0
 23 92  1  0
 23 93  1  0
 24 94  1  0
 27 95  1  1
 28 96  1  0
 28 97  1  0
 28 98  1  0
 29 99  1  0
 34100  1  0
 35101  1  1
 36102  1  0
 36103  1  0
 36104  1  0
 39105  1  0
 40106  1  1
 41107  1  0
 41108  1  0
 41109  1  0
 44110  1  0
 45111  1  1
 46112  1  0
 46113  1  0
 46114  1  0
 49115  1  0
 50116  1  1
 51117  1  0
 51118  1  0
 51119  1  0
 54120  1  0
 55121  1  1
 56122  1  0
 56123  1  0
 56124  1  0
 59125  1  0
 60126  1  6
 61127  1  0
 61128  1  0
 61129  1  0
 64130  1  0
 65131  1  1
 67132  1  0
 67133  1  0
 69134  1  0
 69135  1  0
 71136  1  0
 71137  1  0
M  END
