
     RDKit          3D

137139  0  0  0  0  0  0  0  0999 V2000
    9.4296    3.3228   -0.2579 C   0  0  0  0  0  0  0  0  0  0  0  0
    8.8409    3.9324    0.9785 C   0  0  0  0  0  0  0  0  0  0  0  0
    9.1634    5.1105    1.2772 O   0  0  0  0  0  0  0  0  0  0  0  0
    7.9708    3.1980    1.8529 N   0  0  0  0  0  0  0  0  0  0  0  0
    7.0755    2.1214    1.4018 C   0  0  2  0  0  0  0  0  0  0  0  0
    5.5959    2.4941    1.6620 C   0  0  0  0  0  0  0  0  0  0  0  0
    5.2226    4.2625    1.3141 S   0  0  0  0  0  0  0  0  0  0  0  0
    5.3851    4.2105   -0.5054 C   0  0  0  0  0  0  0  0  0  0  0  0
    4.0614    3.8833   -1.1218 C   0  0  0  0  0  0  0  0  0  0  0  0
    3.1083    4.9011   -1.2863 C   0  0  0  0  0  0  0  0  0  0  0  0
    1.8493    4.6079   -1.8176 C   0  0  0  0  0  0  0  0  0  0  0  0
    1.5454    3.2907   -2.2045 C   0  0  0  0  0  0  0  0  0  0  0  0
    2.4949    2.2724   -2.0578 C   0  0  0  0  0  0  0  0  0  0  0  0
    3.7545    2.5768   -1.5173 C   0  0  0  0  0  0  0  0  0  0  0  0
    2.1705    0.8615   -2.4654 C   0  0  0  0  0  0  0  0  0  0  0  0
    0.7208    0.2440   -1.5150 S   0  0  0  0  0  0  0  0  0  0  0  0
    1.1024   -1.5529   -1.6100 C   0  0  0  0  0  0  0  0  0  0  0  0
    1.5536   -2.0878   -0.2362 C   0  0  2  0  0  0  0  0  0  0  0  0
    3.0246   -1.9942   -0.1289 N   0  0  0  0  0  0  0  0  0  0  0  0
    3.8543   -2.9658    0.5267 C   0  0  0  0  0  0  0  0  0  0  0  0
    3.5573   -3.3686    1.6855 O   0  0  0  0  0  0  0  0  0  0  0  0
    5.0247   -3.5747   -0.1979 C   0  0  1  0  0  0  0  0  0  0  0  0
    4.5331   -4.6595   -1.1615 C   0  0  0  0  0  0  0  0  0  0  0  0
    5.7827   -2.5612   -0.9395 N   0  0  0  0  0  0  0  0  0  0  0  0
    6.6463   -1.5591   -0.3706 C   0  0  0  0  0  0  0  0  0  0  0  0
    7.1467   -0.7020   -1.1535 O   0  0  0  0  0  0  0  0  0  0  0  0
    6.9229   -1.4314    1.1189 C   0  0  1  0  0  0  0  0  0  0  0  0
    7.5725   -2.6867    1.7281 C   0  0  0  0  0  0  0  0  0  0  0  0
    7.8218   -0.2969    1.3491 N   0  0  0  0  0  0  0  0  0  0  0  0
    7.4300    0.8488    2.1076 C   0  0  0  0  0  0  0  0  0  0  0  0
    7.4823    0.8109    3.3718 O   0  0  0  0  0  0  0  0  0  0  0  0
    1.0613   -3.5061   -0.0540 C   0  0  0  0  0  0  0  0  0  0  0  0
    1.4948   -4.4062   -0.8144 O   0  0  0  0  0  0  0  0  0  0  0  0
    0.0762   -3.8129    0.9488 N   0  0  0  0  0  0  0  0  0  0  0  0
   -0.0524   -5.1049    1.6360 C   0  0  2  0  0  0  0  0  0  0  0  0
    1.2105   -5.4181    2.4476 C   0  0  0  0  0  0  0  0  0  0  0  0
   -0.3871   -6.2391    0.6870 C   0  0  0  0  0  0  0  0  0  0  0  0
    0.5144   -6.7170   -0.0510 O   0  0  0  0  0  0  0  0  0  0  0  0
   -1.6773   -6.8705    0.6737 N   0  0  0  0  0  0  0  0  0  0  0  0
   -2.9578   -6.2200    0.9701 C   0  0  2  0  0  0  0  0  0  0  0  0
   -3.6916   -7.0566    2.0211 C   0  0  0  0  0  0  0  0  0  0  0  0
   -3.7936   -6.1160   -0.2915 C   0  0  0  0  0  0  0  0  0  0  0  0
   -3.4391   -6.7331   -1.3361 O   0  0  0  0  0  0  0  0  0  0  0  0
   -5.0389   -5.4075   -0.3081 N   0  0  0  0  0  0  0  0  0  0  0  0
   -5.2263   -4.0635    0.2490 C   0  0  2  0  0  0  0  0  0  0  0  0
   -6.2227   -4.1193    1.4118 C   0  0  0  0  0  0  0  0  0  0  0  0
   -5.7357   -3.1166   -0.8149 C   0  0  0  0  0  0  0  0  0  0  0  0
   -5.7768   -3.4700   -2.0258 O   0  0  0  0  0  0  0  0  0  0  0  0
   -6.1012   -1.7756   -0.4562 N   0  0  0  0  0  0  0  0  0  0  0  0
   -7.4042   -1.1571   -0.7424 C   0  0  2  0  0  0  0  0  0  0  0  0
   -8.3984   -2.0887   -1.4558 C   0  0  0  0  0  0  0  0  0  0  0  0
   -7.1993    0.1127   -1.5252 C   0  0  0  0  0  0  0  0  0  0  0  0
   -6.8925    0.0427   -2.7453 O   0  0  0  0  0  0  0  0  0  0  0  0
   -7.3752    1.4019   -0.9222 N   0  0  0  0  0  0  0  0  0  0  0  0
   -6.8864    1.7108    0.4284 C   0  0  2  0  0  0  0  0  0  0  0  0
   -8.0263    2.3365    1.2331 C   0  0  0  0  0  0  0  0  0  0  0  0
   -5.6973    2.6555    0.3841 C   0  0  0  0  0  0  0  0  0  0  0  0
   -5.1930    3.0598    1.4657 O   0  0  0  0  0  0  0  0  0  0  0  0
   -5.1473    3.1081   -0.8662 N   0  0  0  0  0  0  0  0  0  0  0  0
   -4.9915    4.5429   -1.1221 C   0  0  2  0  0  0  0  0  0  0  0  0
   -6.1830    5.0624   -1.9254 C   0  0  0  0  0  0  0  0  0  0  0  0
   -3.7040    4.7989   -1.8531 C   0  0  0  0  0  0  0  0  0  0  0  0
   -3.5547    4.3903   -3.0372 O   0  0  0  0  0  0  0  0  0  0  0  0
   -2.6526    5.5530   -1.2378 N   0  0  0  0  0  0  0  0  0  0  0  0
   -2.2234    5.3104    0.1352 C   0  0  2  0  0  0  0  0  0  0  0  0
   -2.5306    6.5108    0.9995 C   0  0  0  0  0  0  0  0  0  0  0  0
   -3.0193    6.3397    2.3305 N   0  0  0  0  0  0  0  0  0  0  0  0
   -2.3568    7.6732    0.5518 O   0  0  0  0  0  0  0  0  0  0  0  0
   -0.7267    4.9440    0.1950 C   0  0  0  0  0  0  0  0  0  0  0  0
    0.3653    6.3289   -0.2968 S   0  0  0  0  0  0  0  0  0  0  0  0
    0.8253    5.7016   -1.9435 C   0  0  0  0  0  0  0  0  0  0  0  0
   10.5229    3.5204   -0.2807 H   0  0  0  0  0  0  0  0  0  0  0  0
    9.2980    2.2231   -0.2792 H   0  0  0  0  0  0  0  0  0  0  0  0
    8.9649    3.7816   -1.1519 H   0  0  0  0  0  0  0  0  0  0  0  0
    7.7934    3.5813    2.8064 H   0  0  0  0  0  0  0  0  0  0  0  0
    7.1870    1.9421    0.3127 H   0  0  0  0  0  0  0  0  0  0  0  0
    5.3175    2.3003    2.7153 H   0  0  0  0  0  0  0  0  0  0  0  0
    4.9418    1.8548    1.0324 H   0  0  0  0  0  0  0  0  0  0  0  0
    6.1600    3.5066   -0.8485 H   0  0  0  0  0  0  0  0  0  0  0  0
    5.7242    5.2121   -0.8458 H   0  0  0  0  0  0  0  0  0  0  0  0
    3.3472    5.9251   -0.9983 H   0  0  0  0  0  0  0  0  0  0  0  0
    0.5786    3.0573   -2.6257 H   0  0  0  0  0  0  0  0  0  0  0  0
    4.4910    1.7904   -1.4026 H   0  0  0  0  0  0  0  0  0  0  0  0
    3.0572    0.2082   -2.3174 H   0  0  0  0  0  0  0  0  0  0  0  0
    1.9346    0.8357   -3.5526 H   0  0  0  0  0  0  0  0  0  0  0  0
    1.8746   -1.7729   -2.3856 H   0  0  0  0  0  0  0  0  0  0  0  0
    0.1588   -2.0525   -1.9493 H   0  0  0  0  0  0  0  0  0  0  0  0
    1.1095   -1.4630    0.5725 H   0  0  0  0  0  0  0  0  0  0  0  0
    3.5074   -1.1696   -0.5520 H   0  0  0  0  0  0  0  0  0  0  0  0
    5.6845   -4.0964    0.5152 H   0  0  0  0  0  0  0  0  0  0  0  0
    3.8808   -4.2264   -1.9481 H   0  0  0  0  0  0  0  0  0  0  0  0
    3.9647   -5.4394   -0.6034 H   0  0  0  0  0  0  0  0  0  0  0  0
    5.3962   -5.1556   -1.6516 H   0  0  0  0  0  0  0  0  0  0  0  0
    5.6482   -2.5088   -1.9772 H   0  0  0  0  0  0  0  0  0  0  0  0
    5.9547   -1.2363    1.6414 H   0  0  0  0  0  0  0  0  0  0  0  0
    6.7973   -3.3240    2.2086 H   0  0  0  0  0  0  0  0  0  0  0  0
    8.1274   -3.2726    0.9646 H   0  0  0  0  0  0  0  0  0  0  0  0
    8.2780   -2.4140    2.5454 H   0  0  0  0  0  0  0  0  0  0  0  0
    8.7783   -0.3030    0.9257 H   0  0  0  0  0  0  0  0  0  0  0  0
   -0.5317   -3.0314    1.2863 H   0  0  0  0  0  0  0  0  0  0  0  0
   -0.8682   -5.0114    2.3893 H   0  0  0  0  0  0  0  0  0  0  0  0
    2.0835   -5.6233    1.7844 H   0  0  0  0  0  0  0  0  0  0  0  0
    1.4599   -4.5591    3.1080 H   0  0  0  0  0  0  0  0  0  0  0  0
    1.0399   -6.3082    3.0920 H   0  0  0  0  0  0  0  0  0  0  0  0
   -1.7111   -7.8508    0.2965 H   0  0  0  0  0  0  0  0  0  0  0  0
   -2.7908   -5.1961    1.3658 H   0  0  0  0  0  0  0  0  0  0  0  0
   -4.7093   -6.6575    2.2058 H   0  0  0  0  0  0  0  0  0  0  0  0
   -3.1279   -7.0344    2.9761 H   0  0  0  0  0  0  0  0  0  0  0  0
   -3.7848   -8.1106    1.6810 H   0  0  0  0  0  0  0  0  0  0  0  0
   -5.8191   -5.8189   -0.8678 H   0  0  0  0  0  0  0  0  0  0  0  0
   -4.2658   -3.6562    0.6227 H   0  0  0  0  0  0  0  0  0  0  0  0
   -7.1897   -4.5510    1.0650 H   0  0  0  0  0  0  0  0  0  0  0  0
   -5.8205   -4.7393    2.2389 H   0  0  0  0  0  0  0  0  0  0  0  0
   -6.4087   -3.1027    1.8228 H   0  0  0  0  0  0  0  0  0  0  0  0
   -5.4726   -1.2732    0.2107 H   0  0  0  0  0  0  0  0  0  0  0  0
   -7.8813   -0.9083    0.2344 H   0  0  0  0  0  0  0  0  0  0  0  0
   -9.3784   -1.5742   -1.5781 H   0  0  0  0  0  0  0  0  0  0  0  0
   -8.5744   -2.9966   -0.8351 H   0  0  0  0  0  0  0  0  0  0  0  0
   -8.0211   -2.3997   -2.4488 H   0  0  0  0  0  0  0  0  0  0  0  0
   -7.6015    2.1966   -1.5537 H   0  0  0  0  0  0  0  0  0  0  0  0
   -6.5603    0.7892    0.9556 H   0  0  0  0  0  0  0  0  0  0  0  0
   -7.6913    2.5511    2.2752 H   0  0  0  0  0  0  0  0  0  0  0  0
   -8.8821    1.6305    1.2893 H   0  0  0  0  0  0  0  0  0  0  0  0
   -8.3777    3.2828    0.7602 H   0  0  0  0  0  0  0  0  0  0  0  0
   -5.2010    2.4708   -1.6897 H   0  0  0  0  0  0  0  0  0  0  0  0
   -4.9613    5.1020   -0.1557 H   0  0  0  0  0  0  0  0  0  0  0  0
   -6.0475    6.1420   -2.1589 H   0  0  0  0  0  0  0  0  0  0  0  0
   -6.2877    4.4955   -2.8791 H   0  0  0  0  0  0  0  0  0  0  0  0
   -7.1122    4.9382   -1.3356 H   0  0  0  0  0  0  0  0  0  0  0  0
   -2.1141    6.2187   -1.8287 H   0  0  0  0  0  0  0  0  0  0  0  0
   -2.7769    4.4350    0.5490 H   0  0  0  0  0  0  0  0  0  0  0  0
   -3.2294    7.1709    2.9271 H   0  0  0  0  0  0  0  0  0  0  0  0
   -3.1515    5.3850    2.7357 H   0  0  0  0  0  0  0  0  0  0  0  0
   -0.5546    4.0294   -0.4147 H   0  0  0  0  0  0  0  0  0  0  0  0
   -0.4752    4.6665    1.2437 H   0  0  0  0  0  0  0  0  0  0  0  0
   -0.0697    5.3536   -2.4969 H   0  0  0  0  0  0  0  0  0  0  0  0
    1.2580    6.5466   -2.5139 H   0  0  0  0  0  0  0  0  0  0  0  0
  1  2  1  0
  2  3  2  0
  2  4  1  0
  4  5  1  0
  5  6  1  0
  6  7  1  0
  7  8  1  0
  8  9  1  0
  9 10  2  0
 10 11  1  0
 11 12  2  0
 12 13  1  0
 13 14  2  0
 13 15  1  0
 15 16  1  0
 16 17  1  0
 17 18  1  0
 18 19  1  0
 19 20  1  0
 20 21  2  0
 20 22  1  0
 22 23  1  0
 22 24  1  0
 24 25  1  0
 25 26  2  0
 25 27  1  0
 27 28  1  0
 27 29  1  0
 29 30  1  0
 30 31  2  0
 18 32  1  0
 32 33  2  0
 32 34  1  0
 34 35  1  0
 35 36  1  0
 35 37  1  0
 37 38  2  0
 37 39  1  0
 39 40  1  0
 40 41  1  0
 40 42  1  0
 42 43  2  0
 42 44  1  0
 44 45  1  0
 45 46  1  0
 45 47  1  0
 47 48  2  0
 47 49  1  0
 49 50  1  0
 50 51  1  0
 50 52  1  0
 52 53  2  0
 52 54  1  0
 54 55  1  0
 55 56  1  0
 55 57  1  0
 57 58  2  0
 57 59  1  0
 59 60  1  0
 60 61  1  0
 60 62  1  0
 62 63  2  0
 62 64  1  0
 64 65  1  0
 65 66  1  0
 66 67  1  0
 66 68  2  0
 65 69  1  0
 69 70  1  0
 70 71  1  0
 30  5  1  0
 14  9  1  0
 71 11  1  0
  1 72  1  0
  1 73  1  0
  1 74  1  0
  4 75  1  0
  5 76  1  6
  6 77  1  0
  6 78  1  0
  8 79  1  0
  8 80  1  0
 10 81  1  0
 12 82  1  0
 14 83  1  0
 15 84  1  0
 15 85  1  0
 17 86  1  0
 17 87  1  0
 18 88  1  1
 19 89  1  0
 22 90  1  1
 23 91  1  0
 23 92  1  0
 23 93  1  0
 24 94  1  0
 27 95  1  1
 28 96  1  0
 28 97  1  0
 28 98  1  0
 29 99  1  0
 34100  1  0
 35101  1  1
 36102  1  0
 36103  1  0
 36104  1  0
 39105  1  0
 40106  1  1
 41107  1  0
 41108  1  0
 41109  1  0
 44110  1  0
 45111  1  1
 46112  1  0
 46113  1  0
 46114  1  0
 49115  1  0
 50116  1  1
 51117  1  0
 51118  1  0
 51119  1  0
 54120  1  0
 55121  1  1
 56122  1  0
 56123  1  0
 56124  1  0
 59125  1  0
 60126  1  1
 61127  1  0
 61128  1  0
 61129  1  0
 64130  1  0
 65131  1  1
 67132  1  0
 67133  1  0
 69134  1  0
 69135  1  0
 71136  1  0
 71137  1  0
M  END
