
     RDKit          3D

147149  0  0  0  0  0  0  0  0999 V2000
   10.8354   -4.1123   -0.8235 C   0  0  0  0  0  0  0  0  0  0  0  0
    9.4367   -3.6479   -1.0743 C   0  0  0  0  0  0  0  0  0  0  0  0
    8.8142   -4.0750   -2.0757 O   0  0  0  0  0  0  0  0  0  0  0  0
    8.8349   -2.7026   -0.1823 N   0  0  0  0  0  0  0  0  0  0  0  0
    7.4106   -2.3967   -0.1979 C   0  0  1  0  0  0  0  0  0  0  0  0
    6.7135   -3.4108    0.7182 C   0  0  0  0  0  0  0  0  0  0  0  0
    4.9311   -3.1836    0.8715 S   0  0  0  0  0  0  0  0  0  0  0  0
    4.4270   -3.9220   -0.7440 C   0  0  0  0  0  0  0  0  0  0  0  0
    3.0916   -3.3179   -1.0859 C   0  0  0  0  0  0  0  0  0  0  0  0
    2.0487   -3.6206   -0.2062 C   0  0  0  0  0  0  0  0  0  0  0  0
    1.1989   -2.6023    0.2417 C   0  0  0  0  0  0  0  0  0  0  0  0
    1.3133   -1.3268   -0.3485 C   0  0  0  0  0  0  0  0  0  0  0  0
    2.1000   -1.1452   -1.4994 C   0  0  0  0  0  0  0  0  0  0  0  0
    3.0336   -2.1388   -1.8472 C   0  0  0  0  0  0  0  0  0  0  0  0
    2.2260    0.2322   -2.0945 C   0  0  0  0  0  0  0  0  0  0  0  0
    3.6842    1.0545   -1.3093 S   0  0  0  0  0  0  0  0  0  0  0  0
    2.7868    2.0820   -0.0612 C   0  0  0  0  0  0  0  0  0  0  0  0
    3.3878    3.5056    0.0414 C   0  0  2  0  0  0  0  0  0  0  0  0
    4.5282    3.4747    0.9743 N   0  0  0  0  0  0  0  0  0  0  0  0
    5.5709    4.4525    0.9027 C   0  0  0  0  0  0  0  0  0  0  0  0
    5.6483    5.3435    1.7940 O   0  0  0  0  0  0  0  0  0  0  0  0
    6.6841    4.2770   -0.0857 C   0  0  1  0  0  0  0  0  0  0  0  0
    7.1501    5.6116   -0.6638 C   0  0  0  0  0  0  0  0  0  0  0  0
    7.8111    3.6190    0.5821 N   0  0  0  0  0  0  0  0  0  0  0  0
    8.0504    2.2041    0.5648 C   0  0  0  0  0  0  0  0  0  0  0  0
    8.4955    1.6280    1.6160 O   0  0  0  0  0  0  0  0  0  0  0  0
    7.8971    1.4166   -0.7275 C   0  0  1  0  0  0  0  0  0  0  0  0
    8.8738    1.9350   -1.7681 C   0  0  0  0  0  0  0  0  0  0  0  0
    8.1342   -0.0014   -0.5009 N   0  0  0  0  0  0  0  0  0  0  0  0
    7.2348   -0.9312    0.1303 C   0  0  0  0  0  0  0  0  0  0  0  0
    6.4951   -0.5479    1.0829 O   0  0  0  0  0  0  0  0  0  0  0  0
    2.3552    4.5172    0.5203 C   0  0  0  0  0  0  0  0  0  0  0  0
    2.6295    5.2839    1.4809 O   0  0  0  0  0  0  0  0  0  0  0  0
    1.0050    4.4451    0.0601 N   0  0  0  0  0  0  0  0  0  0  0  0
    0.5833    4.6306   -1.3391 C   0  0  2  0  0  0  0  0  0  0  0  0
    1.5431    5.5346   -2.1387 C   0  0  0  0  0  0  0  0  0  0  0  0
   -0.8079    5.1925   -1.3703 C   0  0  0  0  0  0  0  0  0  0  0  0
   -1.5691    4.9233   -2.3416 O   0  0  0  0  0  0  0  0  0  0  0  0
   -1.2749    6.0362   -0.3106 N   0  0  0  0  0  0  0  0  0  0  0  0
   -2.6971    6.1417    0.0586 C   0  0  2  0  0  0  0  0  0  0  0  0
   -2.8643    7.0649    1.2772 C   0  0  0  0  0  0  0  0  0  0  0  0
   -3.2423    4.7694    0.3391 C   0  0  0  0  0  0  0  0  0  0  0  0
   -2.8042    4.0974    1.3197 O   0  0  0  0  0  0  0  0  0  0  0  0
   -4.1327    4.1514   -0.5974 N   0  0  0  0  0  0  0  0  0  0  0  0
   -5.5971    4.1550   -0.4573 C   0  0  2  0  0  0  0  0  0  0  0  0
   -6.1229    5.5395   -0.0541 C   0  0  0  0  0  0  0  0  0  0  0  0
   -6.0472    3.1230    0.5523 C   0  0  0  0  0  0  0  0  0  0  0  0
   -5.1983    2.5510    1.2935 O   0  0  0  0  0  0  0  0  0  0  0  0
   -7.4286    2.7680    0.7022 N   0  0  0  0  0  0  0  0  0  0  0  0
   -8.4026    2.7933   -0.3982 C   0  0  2  0  0  0  0  0  0  0  0  0
   -9.8236    2.8941    0.1600 C   0  0  0  0  0  0  0  0  0  0  0  0
   -8.2479    1.5632   -1.2585 C   0  0  0  0  0  0  0  0  0  0  0  0
   -8.9297    1.4493   -2.3119 O   0  0  0  0  0  0  0  0  0  0  0  0
   -7.3116    0.5349   -0.9122 N   0  0  0  0  0  0  0  0  0  0  0  0
   -7.7037   -0.8064   -0.4552 C   0  0  2  0  0  0  0  0  0  0  0  0
   -9.1106   -0.8242    0.1605 C   0  0  0  0  0  0  0  0  0  0  0  0
   -6.7147   -1.3016    0.5698 C   0  0  0  0  0  0  0  0  0  0  0  0
   -5.8909   -0.5066    1.1056 O   0  0  0  0  0  0  0  0  0  0  0  0
   -6.7395   -2.6600    1.0263 N   0  0  0  0  0  0  0  0  0  0  0  0
   -6.7224   -3.8177    0.1140 C   0  0  2  0  0  0  0  0  0  0  0  0
   -8.1441   -4.3515   -0.0920 C   0  0  0  0  0  0  0  0  0  0  0  0
   -5.8107   -4.8605    0.6983 C   0  0  0  0  0  0  0  0  0  0  0  0
   -6.2863   -5.8532    1.3299 O   0  0  0  0  0  0  0  0  0  0  0  0
   -4.4098   -4.6097    0.7445 N   0  0  0  0  0  0  0  0  0  0  0  0
   -3.4572   -5.2511   -0.1671 C   0  0  2  0  0  0  0  0  0  0  0  0
   -3.9396   -5.1774   -1.6301 C   0  0  0  0  0  0  0  0  0  0  0  0
   -3.2100   -6.6806    0.2425 C   0  0  0  0  0  0  0  0  0  0  0  0
   -4.0714   -7.5664   -0.0269 O   0  0  0  0  0  0  0  0  0  0  0  0
   -1.9921   -7.0738    0.8971 N   0  0  0  0  0  0  0  0  0  0  0  0
   -1.3450   -6.2598    1.9281 C   0  0  1  0  0  0  0  0  0  0  0  0
   -1.0659   -7.1313    3.1344 C   0  0  0  0  0  0  0  0  0  0  0  0
    0.2518   -7.4913    3.5652 N   0  0  0  0  0  0  0  0  0  0  0  0
   -2.0452   -7.6478    3.7305 O   0  0  0  0  0  0  0  0  0  0  0  0
   -0.1049   -5.5837    1.3313 C   0  0  0  0  0  0  0  0  0  0  0  0
    0.5510   -4.2564    2.4450 S   0  0  0  0  0  0  0  0  0  0  0  0
    0.1971   -2.8156    1.3641 C   0  0  0  0  0  0  0  0  0  0  0  0
   10.8893   -4.6015    0.1782 H   0  0  0  0  0  0  0  0  0  0  0  0
   11.1680   -4.8166   -1.6078 H   0  0  0  0  0  0  0  0  0  0  0  0
   11.5185   -3.2328   -0.8151 H   0  0  0  0  0  0  0  0  0  0  0  0
    9.4106   -2.3818    0.6291 H   0  0  0  0  0  0  0  0  0  0  0  0
    7.0201   -2.5174   -1.2270 H   0  0  0  0  0  0  0  0  0  0  0  0
    7.1494   -3.3546    1.7417 H   0  0  0  0  0  0  0  0  0  0  0  0
    6.9028   -4.4281    0.3387 H   0  0  0  0  0  0  0  0  0  0  0  0
    4.3297   -5.0274   -0.6420 H   0  0  0  0  0  0  0  0  0  0  0  0
    5.1712   -3.7295   -1.5533 H   0  0  0  0  0  0  0  0  0  0  0  0
    2.0894   -4.5615    0.3045 H   0  0  0  0  0  0  0  0  0  0  0  0
    0.8566   -0.4616    0.1075 H   0  0  0  0  0  0  0  0  0  0  0  0
    3.8083   -1.9377   -2.5724 H   0  0  0  0  0  0  0  0  0  0  0  0
    2.3371    0.1482   -3.1919 H   0  0  0  0  0  0  0  0  0  0  0  0
    1.2905    0.8141   -1.9375 H   0  0  0  0  0  0  0  0  0  0  0  0
    2.8188    1.5713    0.9333 H   0  0  0  0  0  0  0  0  0  0  0  0
    1.7255    2.1333   -0.3288 H   0  0  0  0  0  0  0  0  0  0  0  0
    3.7449    3.8234   -0.9582 H   0  0  0  0  0  0  0  0  0  0  0  0
    4.4182    2.9855    1.8806 H   0  0  0  0  0  0  0  0  0  0  0  0
    6.3202    3.6741   -0.9485 H   0  0  0  0  0  0  0  0  0  0  0  0
    8.0353    5.4299   -1.3305 H   0  0  0  0  0  0  0  0  0  0  0  0
    7.4895    6.3012    0.1400 H   0  0  0  0  0  0  0  0  0  0  0  0
    6.3427    6.0985   -1.2521 H   0  0  0  0  0  0  0  0  0  0  0  0
    8.2784    4.1957    1.3309 H   0  0  0  0  0  0  0  0  0  0  0  0
    6.8769    1.5367   -1.1364 H   0  0  0  0  0  0  0  0  0  0  0  0
    8.6150    2.9627   -2.1038 H   0  0  0  0  0  0  0  0  0  0  0  0
    9.9108    1.9825   -1.3553 H   0  0  0  0  0  0  0  0  0  0  0  0
    8.9126    1.2851   -2.6848 H   0  0  0  0  0  0  0  0  0  0  0  0
    9.1506   -0.2861   -0.5413 H   0  0  0  0  0  0  0  0  0  0  0  0
    0.3190    4.0430    0.7363 H   0  0  0  0  0  0  0  0  0  0  0  0
    0.5610    3.6323   -1.8191 H   0  0  0  0  0  0  0  0  0  0  0  0
    2.3914    4.9243   -2.5145 H   0  0  0  0  0  0  0  0  0  0  0  0
    1.9658    6.3507   -1.4969 H   0  0  0  0  0  0  0  0  0  0  0  0
    1.0464    5.9961   -3.0221 H   0  0  0  0  0  0  0  0  0  0  0  0
   -0.5858    6.6911    0.1278 H   0  0  0  0  0  0  0  0  0  0  0  0
   -3.2588    6.5953   -0.7880 H   0  0  0  0  0  0  0  0  0  0  0  0
   -2.3531    6.6304    2.1651 H   0  0  0  0  0  0  0  0  0  0  0  0
   -3.9399    7.2008    1.5167 H   0  0  0  0  0  0  0  0  0  0  0  0
   -2.4379    8.0581    1.0641 H   0  0  0  0  0  0  0  0  0  0  0  0
   -3.7248    3.3517   -1.1363 H   0  0  0  0  0  0  0  0  0  0  0  0
   -6.0056    3.8965   -1.4491 H   0  0  0  0  0  0  0  0  0  0  0  0
   -7.2380    5.5493   -0.0500 H   0  0  0  0  0  0  0  0  0  0  0  0
   -5.7853    5.8047    0.9676 H   0  0  0  0  0  0  0  0  0  0  0  0
   -5.7734    6.3119   -0.7693 H   0  0  0  0  0  0  0  0  0  0  0  0
   -7.6914    2.2574    1.5812 H   0  0  0  0  0  0  0  0  0  0  0  0
   -8.2384    3.6859   -1.0376 H   0  0  0  0  0  0  0  0  0  0  0  0
  -10.0657    2.0139    0.7917 H   0  0  0  0  0  0  0  0  0  0  0  0
   -9.9252    3.8108    0.7781 H   0  0  0  0  0  0  0  0  0  0  0  0
  -10.5597    2.9403   -0.6676 H   0  0  0  0  0  0  0  0  0  0  0  0
   -6.3463    0.6423   -1.3042 H   0  0  0  0  0  0  0  0  0  0  0  0
   -7.6811   -1.4824   -1.3297 H   0  0  0  0  0  0  0  0  0  0  0  0
   -9.8573   -0.4852   -0.5780 H   0  0  0  0  0  0  0  0  0  0  0  0
   -9.1261   -0.1540    1.0559 H   0  0  0  0  0  0  0  0  0  0  0  0
   -9.3884   -1.8401    0.4852 H   0  0  0  0  0  0  0  0  0  0  0  0
   -6.5143   -2.8169    2.0402 H   0  0  0  0  0  0  0  0  0  0  0  0
   -6.3248   -3.5146   -0.8699 H   0  0  0  0  0  0  0  0  0  0  0  0
   -8.1217   -5.3812   -0.5200 H   0  0  0  0  0  0  0  0  0  0  0  0
   -8.7066   -4.3763    0.8810 H   0  0  0  0  0  0  0  0  0  0  0  0
   -8.7047   -3.7144   -0.8020 H   0  0  0  0  0  0  0  0  0  0  0  0
   -4.0349   -4.2932    1.6722 H   0  0  0  0  0  0  0  0  0  0  0  0
   -2.5128   -4.6791   -0.1201 H   0  0  0  0  0  0  0  0  0  0  0  0
   -3.1748   -5.6291   -2.2898 H   0  0  0  0  0  0  0  0  0  0  0  0
   -4.8931   -5.7272   -1.7699 H   0  0  0  0  0  0  0  0  0  0  0  0
   -4.0824   -4.1143   -1.9298 H   0  0  0  0  0  0  0  0  0  0  0  0
   -1.6465   -8.0431    0.7177 H   0  0  0  0  0  0  0  0  0  0  0  0
   -2.0319   -5.4583    2.2532 H   0  0  0  0  0  0  0  0  0  0  0  0
    0.3717   -8.2027    4.3137 H   0  0  0  0  0  0  0  0  0  0  0  0
    1.1229   -7.1400    3.1141 H   0  0  0  0  0  0  0  0  0  0  0  0
   -0.3599   -5.1579    0.3354 H   0  0  0  0  0  0  0  0  0  0  0  0
    0.6916   -6.3284    1.1095 H   0  0  0  0  0  0  0  0  0  0  0  0
    0.1718   -1.9184    2.0145 H   0  0  0  0  0  0  0  0  0  0  0  0
   -0.8293   -2.9219    0.9223 H   0  0  0  0  0  0  0  0  0  0  0  0
  1  2  1  0
  2  3  2  0
  2  4  1  0
  4  5  1  0
  5  6  1  0
  6  7  1  0
  7  8  1  0
  8  9  1  0
  9 10  2  0
 10 11  1  0
 11 12  2  0
 12 13  1  0
 13 14  2  0
 13 15  1  0
 15 16  1  0
 16 17  1  0
 17 18  1  0
 18 19  1  0
 19 20  1  0
 20 21  2  0
 20 22  1  0
 22 23  1  0
 22 24  1  0
 24 25  1  0
 25 26  2  0
 25 27  1  0
 27 28  1  0
 27 29  1  0
 29 30  1  0
 30 31  2  0
 18 32  1  0
 32 33  2  0
 32 34  1  0
 34 35  1  0
 35 36  1  0
 35 37  1  0
 37 38  2  0
 37 39  1  0
 39 40  1  0
 40 41  1  0
 40 42  1  0
 42 43  2  0
 42 44  1  0
 44 45  1  0
 45 46  1  0
 45 47  1  0
 47 48  2  0
 47 49  1  0
 49 50  1  0
 50 51  1  0
 50 52  1  0
 52 53  2  0
 52 54  1  0
 54 55  1  0
 55 56  1  0
 55 57  1  0
 57 58  2  0
 57 59  1  0
 59 60  1  0
 60 61  1  0
 60 62  1  0
 62 63  2  0
 62 64  1  0
 64 65  1  0
 65 66  1  0
 65 67  1  0
 67 68  2  0
 67 69  1  0
 69 70  1  0
 70 71  1  0
 71 72  1  0
 71 73  2  0
 70 74  1  0
 74 75  1  0
 75 76  1  0
 30  5  1  0
 14  9  1  0
 76 11  1  0
  1 77  1  0
  1 78  1  0
  1 79  1  0
  4 80  1  0
  5 81  1  6
  6 82  1  0
  6 83  1  0
  8 84  1  0
  8 85  1  0
 10 86  1  0
 12 87  1  0
 14 88  1  0
 15 89  1  0
 15 90  1  0
 17 91  1  0
 17 92  1  0
 18 93  1  6
 19 94  1  0
 22 95  1  6
 23 96  1  0
 23 97  1  0
 23 98  1  0
 24 99  1  0
 27100  1  6
 28101  1  0
 28102  1  0
 28103  1  0
 29104  1  0
 34105  1  0
 35106  1  6
 36107  1  0
 36108  1  0
 36109  1  0
 39110  1  0
 40111  1  6
 41112  1  0
 41113  1  0
 41114  1  0
 44115  1  0
 45116  1  6
 46117  1  0
 46118  1  0
 46119  1  0
 49120  1  0
 50121  1  6
 51122  1  0
 51123  1  0
 51124  1  0
 54125  1  0
 55126  1  6
 56127  1  0
 56128  1  0
 56129  1  0
 59130  1  0
 60131  1  6
 61132  1  0
 61133  1  0
 61134  1  0
 64135  1  0
 65136  1  6
 66137  1  0
 66138  1  0
 66139  1  0
 69140  1  0
 70141  1  1
 72142  1  0
 72143  1  0
 74144  1  0
 74145  1  0
 76146  1  0
 76147  1  0
M  END
