
     RDKit          3D

157159  0  0  0  0  0  0  0  0999 V2000
   11.6695   -4.3086    1.1720 C   0  0  0  0  0  0  0  0  0  0  0  0
   10.9185   -3.4611    0.1941 C   0  0  0  0  0  0  0  0  0  0  0  0
   11.4384   -3.1904   -0.9230 O   0  0  0  0  0  0  0  0  0  0  0  0
    9.6257   -2.9445    0.5430 N   0  0  0  0  0  0  0  0  0  0  0  0
    8.7810   -2.1916   -0.3874 C   0  0  1  0  0  0  0  0  0  0  0  0
    7.6069   -3.0768   -0.8331 C   0  0  0  0  0  0  0  0  0  0  0  0
    6.5401   -2.1995   -2.0305 S   0  0  0  0  0  0  0  0  0  0  0  0
    5.1589   -3.3986   -2.0038 C   0  0  0  0  0  0  0  0  0  0  0  0
    4.3850   -3.3183   -0.7120 C   0  0  0  0  0  0  0  0  0  0  0  0
    4.1224   -4.4786    0.0296 C   0  0  0  0  0  0  0  0  0  0  0  0
    3.4259   -4.4114    1.2429 C   0  0  0  0  0  0  0  0  0  0  0  0
    2.9587   -3.1718    1.7011 C   0  0  0  0  0  0  0  0  0  0  0  0
    3.1853   -2.0013    0.9545 C   0  0  0  0  0  0  0  0  0  0  0  0
    3.9227   -2.0836   -0.2375 C   0  0  0  0  0  0  0  0  0  0  0  0
    2.7664   -0.6666    1.5108 C   0  0  0  0  0  0  0  0  0  0  0  0
    2.0280    0.4065    0.2215 S   0  0  0  0  0  0  0  0  0  0  0  0
    1.9879    1.9416    1.2259 C   0  0  0  0  0  0  0  0  0  0  0  0
    2.9972    2.9846    0.7093 C   0  0  2  0  0  0  0  0  0  0  0  0
    4.3645    2.4525    0.7266 N   0  0  0  0  0  0  0  0  0  0  0  0
    5.4228    3.1094    0.0169 C   0  0  0  0  0  0  0  0  0  0  0  0
    5.2108    3.5322   -1.1551 O   0  0  0  0  0  0  0  0  0  0  0  0
    6.7096    3.4936    0.7156 C   0  0  1  0  0  0  0  0  0  0  0  0
    7.0998    2.5495    1.8587 C   0  0  0  0  0  0  0  0  0  0  0  0
    7.8087    3.6874   -0.2360 N   0  0  0  0  0  0  0  0  0  0  0  0
    8.7357    2.6680   -0.6622 C   0  0  0  0  0  0  0  0  0  0  0  0
    9.9457    2.9854   -0.8332 O   0  0  0  0  0  0  0  0  0  0  0  0
    8.3002    1.2554   -0.9597 C   0  0  1  0  0  0  0  0  0  0  0  0
    8.7118    0.8764   -2.3879 C   0  0  0  0  0  0  0  0  0  0  0  0
    8.9022    0.3220   -0.0048 N   0  0  0  0  0  0  0  0  0  0  0  0
    8.3016   -0.9406    0.3014 C   0  0  0  0  0  0  0  0  0  0  0  0
    7.4113   -1.0095    1.1912 O   0  0  0  0  0  0  0  0  0  0  0  0
    2.9484    4.2159    1.5829 C   0  0  0  0  0  0  0  0  0  0  0  0
    3.2789    4.1115    2.7965 O   0  0  0  0  0  0  0  0  0  0  0  0
    2.6511    5.5189    1.0524 N   0  0  0  0  0  0  0  0  0  0  0  0
    1.6701    5.7764   -0.0090 C   0  0  2  0  0  0  0  0  0  0  0  0
    2.4105    6.1260   -1.3068 C   0  0  0  0  0  0  0  0  0  0  0  0
    0.7740    6.9155    0.4204 C   0  0  0  0  0  0  0  0  0  0  0  0
    1.2845    8.0424    0.6546 O   0  0  0  0  0  0  0  0  0  0  0  0
   -0.6218    6.7171    0.6861 N   0  0  0  0  0  0  0  0  0  0  0  0
   -1.6013    6.1430   -0.2517 C   0  0  2  0  0  0  0  0  0  0  0  0
   -1.1940    6.3681   -1.7148 C   0  0  0  0  0  0  0  0  0  0  0  0
   -2.9575    6.7777   -0.0233 C   0  0  0  0  0  0  0  0  0  0  0  0
   -3.0125    7.9608    0.4047 O   0  0  0  0  0  0  0  0  0  0  0  0
   -4.1947    6.0995   -0.3195 N   0  0  0  0  0  0  0  0  0  0  0  0
   -4.3164    4.7922   -0.9739 C   0  0  2  0  0  0  0  0  0  0  0  0
   -5.3778    4.8799   -2.0829 C   0  0  0  0  0  0  0  0  0  0  0  0
   -4.6399    3.7452    0.0647 C   0  0  0  0  0  0  0  0  0  0  0  0
   -3.8233    3.5350    0.9969 O   0  0  0  0  0  0  0  0  0  0  0  0
   -5.8450    2.9646   -0.0018 N   0  0  0  0  0  0  0  0  0  0  0  0
   -7.0302    3.2150    0.8256 C   0  0  2  0  0  0  0  0  0  0  0  0
   -6.8329    4.3652    1.8232 C   0  0  0  0  0  0  0  0  0  0  0  0
   -7.4009    1.9614    1.5797 C   0  0  0  0  0  0  0  0  0  0  0  0
   -6.5343    1.4253    2.3191 O   0  0  0  0  0  0  0  0  0  0  0  0
   -8.7229    1.3927    1.5520 N   0  0  0  0  0  0  0  0  0  0  0  0
   -9.7426    1.6816    0.5358 C   0  0  2  0  0  0  0  0  0  0  0  0
  -10.5540    2.9205    0.9499 C   0  0  0  0  0  0  0  0  0  0  0  0
  -10.6301    0.4711    0.3424 C   0  0  0  0  0  0  0  0  0  0  0  0
  -11.8887    0.6113    0.3221 O   0  0  0  0  0  0  0  0  0  0  0  0
  -10.0796   -0.8468    0.1906 N   0  0  0  0  0  0  0  0  0  0  0  0
   -8.8733   -1.1345   -0.5905 C   0  0  2  0  0  0  0  0  0  0  0  0
   -9.2845   -1.8027   -1.9048 C   0  0  0  0  0  0  0  0  0  0  0  0
   -7.9427   -1.9788    0.2413 C   0  0  0  0  0  0  0  0  0  0  0  0
   -7.4868   -1.5050    1.3147 O   0  0  0  0  0  0  0  0  0  0  0  0
   -7.5844   -3.3121   -0.1356 N   0  0  0  0  0  0  0  0  0  0  0  0
   -6.4836   -3.5638   -1.0653 C   0  0  2  0  0  0  0  0  0  0  0  0
   -6.8699   -4.7390   -1.9761 C   0  0  0  0  0  0  0  0  0  0  0  0
   -5.2063   -3.7695   -0.2772 C   0  0  0  0  0  0  0  0  0  0  0  0
   -4.8298   -2.8407    0.4870 O   0  0  0  0  0  0  0  0  0  0  0  0
   -4.4131   -4.9818   -0.3759 N   0  0  0  0  0  0  0  0  0  0  0  0
   -3.2908   -5.3219    0.5159 C   0  0  2  0  0  0  0  0  0  0  0  0
   -3.6960   -5.2463    1.9951 C   0  0  0  0  0  0  0  0  0  0  0  0
   -2.0683   -4.4679    0.2408 C   0  0  0  0  0  0  0  0  0  0  0  0
   -2.2056   -3.2181    0.1491 O   0  0  0  0  0  0  0  0  0  0  0  0
   -0.7421   -5.0156    0.1508 N   0  0  0  0  0  0  0  0  0  0  0  0
   -0.4146   -6.4393    0.3156 C   0  0  1  0  0  0  0  0  0  0  0  0
   -0.7400   -7.1882   -0.9491 C   0  0  0  0  0  0  0  0  0  0  0  0
   -0.2366   -6.7477   -2.2125 N   0  0  0  0  0  0  0  0  0  0  0  0
   -1.4589   -8.2221   -0.8953 O   0  0  0  0  0  0  0  0  0  0  0  0
    1.0734   -6.6134    0.6563 C   0  0  0  0  0  0  0  0  0  0  0  0
    1.4045   -5.9294    2.3211 S   0  0  0  0  0  0  0  0  0  0  0  0
    3.1887   -5.6550    2.0629 C   0  0  0  0  0  0  0  0  0  0  0  0
   11.8453   -3.7300    2.1038 H   0  0  0  0  0  0  0  0  0  0  0  0
   12.6497   -4.6228    0.7456 H   0  0  0  0  0  0  0  0  0  0  0  0
   11.0723   -5.2164    1.4114 H   0  0  0  0  0  0  0  0  0  0  0  0
    9.2288   -3.2026    1.4773 H   0  0  0  0  0  0  0  0  0  0  0  0
    9.3648   -1.9017   -1.2828 H   0  0  0  0  0  0  0  0  0  0  0  0
    8.0048   -3.9812   -1.3371 H   0  0  0  0  0  0  0  0  0  0  0  0
    7.0202   -3.4013    0.0538 H   0  0  0  0  0  0  0  0  0  0  0  0
    4.4741   -3.1565   -2.8425 H   0  0  0  0  0  0  0  0  0  0  0  0
    5.5562   -4.4210   -2.1783 H   0  0  0  0  0  0  0  0  0  0  0  0
    4.4876   -5.4362   -0.3278 H   0  0  0  0  0  0  0  0  0  0  0  0
    2.4378   -3.1166    2.6483 H   0  0  0  0  0  0  0  0  0  0  0  0
    4.1476   -1.1832   -0.7927 H   0  0  0  0  0  0  0  0  0  0  0  0
    3.6583   -0.1906    1.9582 H   0  0  0  0  0  0  0  0  0  0  0  0
    2.0152   -0.7972    2.3231 H   0  0  0  0  0  0  0  0  0  0  0  0
    0.9615    2.3613    1.1610 H   0  0  0  0  0  0  0  0  0  0  0  0
    2.1821    1.7141    2.2964 H   0  0  0  0  0  0  0  0  0  0  0  0
    2.7202    3.2366   -0.3362 H   0  0  0  0  0  0  0  0  0  0  0  0
    4.6203    1.7603    1.4603 H   0  0  0  0  0  0  0  0  0  0  0  0
    6.5058    4.4802    1.1854 H   0  0  0  0  0  0  0  0  0  0  0  0
    7.0303    1.4939    1.5497 H   0  0  0  0  0  0  0  0  0  0  0  0
    8.1356    2.7662    2.2006 H   0  0  0  0  0  0  0  0  0  0  0  0
    6.4206    2.7054    2.7272 H   0  0  0  0  0  0  0  0  0  0  0  0
    8.0812    4.6765   -0.4537 H   0  0  0  0  0  0  0  0  0  0  0  0
    7.1919    1.1968   -0.8974 H   0  0  0  0  0  0  0  0  0  0  0  0
    8.2857   -0.1065   -2.6623 H   0  0  0  0  0  0  0  0  0  0  0  0
    8.3323    1.6238   -3.1150 H   0  0  0  0  0  0  0  0  0  0  0  0
    9.8226    0.8141   -2.4714 H   0  0  0  0  0  0  0  0  0  0  0  0
    9.7066    0.6267    0.5887 H   0  0  0  0  0  0  0  0  0  0  0  0
    3.1338    6.3344    1.4965 H   0  0  0  0  0  0  0  0  0  0  0  0
    1.0399    4.8718   -0.1760 H   0  0  0  0  0  0  0  0  0  0  0  0
    2.9000    5.2208   -1.7206 H   0  0  0  0  0  0  0  0  0  0  0  0
    1.7056    6.5301   -2.0662 H   0  0  0  0  0  0  0  0  0  0  0  0
    3.1897    6.8967   -1.1124 H   0  0  0  0  0  0  0  0  0  0  0  0
   -0.9441    6.9742    1.6512 H   0  0  0  0  0  0  0  0  0  0  0  0
   -1.6640    5.0524   -0.0520 H   0  0  0  0  0  0  0  0  0  0  0  0
   -0.4207    5.6257   -2.0080 H   0  0  0  0  0  0  0  0  0  0  0  0
   -2.0564    6.2213   -2.4032 H   0  0  0  0  0  0  0  0  0  0  0  0
   -0.8093    7.3979   -1.8677 H   0  0  0  0  0  0  0  0  0  0  0  0
   -5.0769    6.5764   -0.0136 H   0  0  0  0  0  0  0  0  0  0  0  0
   -3.3667    4.5048   -1.4654 H   0  0  0  0  0  0  0  0  0  0  0  0
   -6.3755    5.1210   -1.6596 H   0  0  0  0  0  0  0  0  0  0  0  0
   -5.1032    5.6719   -2.8082 H   0  0  0  0  0  0  0  0  0  0  0  0
   -5.4400    3.9203   -2.6358 H   0  0  0  0  0  0  0  0  0  0  0  0
   -5.9640    2.3367   -0.8304 H   0  0  0  0  0  0  0  0  0  0  0  0
   -7.8442    3.5244    0.1439 H   0  0  0  0  0  0  0  0  0  0  0  0
   -7.7640    4.5086    2.4204 H   0  0  0  0  0  0  0  0  0  0  0  0
   -5.9892    4.1640    2.5190 H   0  0  0  0  0  0  0  0  0  0  0  0
   -6.6478    5.3122    1.2741 H   0  0  0  0  0  0  0  0  0  0  0  0
   -8.9463    0.6798    2.2841 H   0  0  0  0  0  0  0  0  0  0  0  0
   -9.2590    1.8857   -0.4434 H   0  0  0  0  0  0  0  0  0  0  0  0
  -11.0897    2.7274    1.9034 H   0  0  0  0  0  0  0  0  0  0  0  0
   -9.8967    3.8058    1.0911 H   0  0  0  0  0  0  0  0  0  0  0  0
  -11.2940    3.1746    0.1607 H   0  0  0  0  0  0  0  0  0  0  0  0
  -10.6856   -1.6554    0.4678 H   0  0  0  0  0  0  0  0  0  0  0  0
   -8.3386   -0.1969   -0.8523 H   0  0  0  0  0  0  0  0  0  0  0  0
   -9.7451   -2.8029   -1.7155 H   0  0  0  0  0  0  0  0  0  0  0  0
   -8.4134   -1.9236   -2.5826 H   0  0  0  0  0  0  0  0  0  0  0  0
  -10.0333   -1.1705   -2.4316 H   0  0  0  0  0  0  0  0  0  0  0  0
   -7.8397   -4.0786    0.5324 H   0  0  0  0  0  0  0  0  0  0  0  0
   -6.3364   -2.6748   -1.7174 H   0  0  0  0  0  0  0  0  0  0  0  0
   -7.8035   -4.4904   -2.5296 H   0  0  0  0  0  0  0  0  0  0  0  0
   -7.0538   -5.6583   -1.3753 H   0  0  0  0  0  0  0  0  0  0  0  0
   -6.0777   -4.9241   -2.7288 H   0  0  0  0  0  0  0  0  0  0  0  0
   -4.7291   -5.7460   -1.0057 H   0  0  0  0  0  0  0  0  0  0  0  0
   -3.0444   -6.3822    0.3208 H   0  0  0  0  0  0  0  0  0  0  0  0
   -2.8902   -5.6889    2.6301 H   0  0  0  0  0  0  0  0  0  0  0  0
   -4.6318   -5.8323    2.1594 H   0  0  0  0  0  0  0  0  0  0  0  0
   -3.8586   -4.2013    2.3233 H   0  0  0  0  0  0  0  0  0  0  0  0
    0.0406   -4.3353    0.0198 H   0  0  0  0  0  0  0  0  0  0  0  0
   -0.9970   -6.8661    1.1642 H   0  0  0  0  0  0  0  0  0  0  0  0
   -0.4816   -7.2733   -3.0839 H   0  0  0  0  0  0  0  0  0  0  0  0
    0.2955   -5.8576   -2.2923 H   0  0  0  0  0  0  0  0  0  0  0  0
    1.3399   -7.6901    0.6766 H   0  0  0  0  0  0  0  0  0  0  0  0
    1.6980   -6.1060   -0.1158 H   0  0  0  0  0  0  0  0  0  0  0  0
    3.6420   -6.5548    1.5876 H   0  0  0  0  0  0  0  0  0  0  0  0
    3.6669   -5.5275    3.0552 H   0  0  0  0  0  0  0  0  0  0  0  0
  1  2  1  0
  2  3  2  0
  2  4  1  0
  4  5  1  0
  5  6  1  0
  6  7  1  0
  7  8  1  0
  8  9  1  0
  9 10  2  0
 10 11  1  0
 11 12  2  0
 12 13  1  0
 13 14  2  0
 13 15  1  0
 15 16  1  0
 16 17  1  0
 17 18  1  0
 18 19  1  0
 19 20  1  0
 20 21  2  0
 20 22  1  0
 22 23  1  0
 22 24  1  0
 24 25  1  0
 25 26  2  0
 25 27  1  0
 27 28  1  0
 27 29  1  0
 29 30  1  0
 30 31  2  0
 18 32  1  0
 32 33  2  0
 32 34  1  0
 34 35  1  0
 35 36  1  0
 35 37  1  0
 37 38  2  0
 37 39  1  0
 39 40  1  0
 40 41  1  0
 40 42  1  0
 42 43  2  0
 42 44  1  0
 44 45  1  0
 45 46  1  0
 45 47  1  0
 47 48  2  0
 47 49  1  0
 49 50  1  0
 50 51  1  0
 50 52  1  0
 52 53  2  0
 52 54  1  0
 54 55  1  0
 55 56  1  0
 55 57  1  0
 57 58  2  0
 57 59  1  0
 59 60  1  0
 60 61  1  0
 60 62  1  0
 62 63  2  0
 62 64  1  0
 64 65  1  0
 65 66  1  0
 65 67  1  0
 67 68  2  0
 67 69  1  0
 69 70  1  0
 70 71  1  0
 70 72  1  0
 72 73  2  0
 72 74  1  0
 74 75  1  0
 75 76  1  0
 76 77  1  0
 76 78  2  0
 75 79  1  0
 79 80  1  0
 80 81  1  0
 30  5  1  0
 14  9  1  0
 81 11  1  0
  1 82  1  0
  1 83  1  0
  1 84  1  0
  4 85  1  0
  5 86  1  6
  6 87  1  0
  6 88  1  0
  8 89  1  0
  8 90  1  0
 10 91  1  0
 12 92  1  0
 14 93  1  0
 15 94  1  0
 15 95  1  0
 17 96  1  0
 17 97  1  0
 18 98  1  6
 19 99  1  0
 22100  1  1
 23101  1  0
 23102  1  0
 23103  1  0
 24104  1  0
 27105  1  6
 28106  1  0
 28107  1  0
 28108  1  0
 29109  1  0
 34110  1  0
 35111  1  6
 36112  1  0
 36113  1  0
 36114  1  0
 39115  1  0
 40116  1  1
 41117  1  0
 41118  1  0
 41119  1  0
 44120  1  0
 45121  1  6
 46122  1  0
 46123  1  0
 46124  1  0
 49125  1  0
 50126  1  6
 51127  1  0
 51128  1  0
 51129  1  0
 54130  1  0
 55131  1  6
 56132  1  0
 56133  1  0
 56134  1  0
 59135  1  0
 60136  1  6
 61137  1  0
 61138  1  0
 61139  1  0
 64140  1  0
 65141  1  6
 66142  1  0
 66143  1  0
 66144  1  0
 69145  1  0
 70146  1  6
 71147  1  0
 71148  1  0
 71149  1  0
 74150  1  0
 75151  1  1
 77152  1  0
 77153  1  0
 79154  1  0
 79155  1  0
 81156  1  0
 81157  1  0
M  END
