
     RDKit          3D

167169  0  0  0  0  0  0  0  0999 V2000
  -11.2906    3.6732   -0.3290 C   0  0  0  0  0  0  0  0  0  0  0  0
  -10.1625    3.2430   -1.2179 C   0  0  0  0  0  0  0  0  0  0  0  0
  -10.0414    3.7849   -2.3501 O   0  0  0  0  0  0  0  0  0  0  0  0
   -9.2380    2.2125   -0.8374 N   0  0  0  0  0  0  0  0  0  0  0  0
   -9.1297    1.6371    0.5094 C   0  0  2  0  0  0  0  0  0  0  0  0
   -7.7327    1.8867    1.1059 C   0  0  0  0  0  0  0  0  0  0  0  0
   -7.2399    3.6604    1.1117 S   0  0  0  0  0  0  0  0  0  0  0  0
   -6.2699    3.7545   -0.4478 C   0  0  0  0  0  0  0  0  0  0  0  0
   -4.9111    3.1005   -0.3359 C   0  0  0  0  0  0  0  0  0  0  0  0
   -3.7670    3.8563   -0.0374 C   0  0  0  0  0  0  0  0  0  0  0  0
   -2.5026    3.2368    0.0232 C   0  0  0  0  0  0  0  0  0  0  0  0
   -2.4054    1.8396   -0.1303 C   0  0  0  0  0  0  0  0  0  0  0  0
   -3.5537    1.0768   -0.3905 C   0  0  0  0  0  0  0  0  0  0  0  0
   -4.7719    1.7340   -0.6025 C   0  0  0  0  0  0  0  0  0  0  0  0
   -3.4971   -0.4149   -0.5608 C   0  0  0  0  0  0  0  0  0  0  0  0
   -2.4595   -1.2266    0.7232 S   0  0  0  0  0  0  0  0  0  0  0  0
   -3.6523   -2.5427    1.2094 C   0  0  0  0  0  0  0  0  0  0  0  0
   -3.9927   -3.5331    0.0680 C   0  0  2  0  0  0  0  0  0  0  0  0
   -5.1537   -4.3906    0.3789 N   0  0  0  0  0  0  0  0  0  0  0  0
   -5.7632   -4.4843    1.6794 C   0  0  0  0  0  0  0  0  0  0  0  0
   -5.0545   -4.8287    2.6675 O   0  0  0  0  0  0  0  0  0  0  0  0
   -7.2164   -4.1305    1.9312 C   0  0  1  0  0  0  0  0  0  0  0  0
   -7.3394   -2.9067    2.8540 C   0  0  0  0  0  0  0  0  0  0  0  0
   -8.0060   -3.9402    0.7043 N   0  0  0  0  0  0  0  0  0  0  0  0
   -7.9714   -2.7245   -0.0689 C   0  0  0  0  0  0  0  0  0  0  0  0
   -6.8714   -2.1352   -0.2680 O   0  0  0  0  0  0  0  0  0  0  0  0
   -9.2236   -2.1464   -0.6966 C   0  0  1  0  0  0  0  0  0  0  0  0
  -10.5368   -2.6677   -0.0769 C   0  0  0  0  0  0  0  0  0  0  0  0
   -9.1701   -0.6751   -0.6689 N   0  0  0  0  0  0  0  0  0  0  0  0
   -9.4162    0.1439    0.4986 C   0  0  0  0  0  0  0  0  0  0  0  0
   -9.8520   -0.3856    1.5544 O   0  0  0  0  0  0  0  0  0  0  0  0
   -2.7823   -4.3412   -0.3300 C   0  0  0  0  0  0  0  0  0  0  0  0
   -2.2230   -4.0749   -1.4273 O   0  0  0  0  0  0  0  0  0  0  0  0
   -2.1548   -5.2663    0.5678 N   0  0  0  0  0  0  0  0  0  0  0  0
   -2.6239   -6.6444    0.7259 C   0  0  2  0  0  0  0  0  0  0  0  0
   -2.5654   -7.0480    2.2062 C   0  0  0  0  0  0  0  0  0  0  0  0
   -1.8119   -7.6407   -0.0905 C   0  0  0  0  0  0  0  0  0  0  0  0
   -2.3396   -8.7587   -0.3582 O   0  0  0  0  0  0  0  0  0  0  0  0
   -0.4244   -7.4445   -0.4229 N   0  0  0  0  0  0  0  0  0  0  0  0
    0.0376   -6.5073   -1.4626 C   0  0  2  0  0  0  0  0  0  0  0  0
   -0.8895   -6.5871   -2.6956 C   0  0  0  0  0  0  0  0  0  0  0  0
    1.4811   -6.8049   -1.8623 C   0  0  0  0  0  0  0  0  0  0  0  0
    1.7700   -6.9692   -3.0791 O   0  0  0  0  0  0  0  0  0  0  0  0
    2.5297   -6.9897   -0.8948 N   0  0  0  0  0  0  0  0  0  0  0  0
    2.9228   -6.0529    0.1691 C   0  0  2  0  0  0  0  0  0  0  0  0
    1.9504   -6.1053    1.3482 C   0  0  0  0  0  0  0  0  0  0  0  0
    3.1030   -4.6372   -0.3532 C   0  0  0  0  0  0  0  0  0  0  0  0
    2.0889   -4.0145   -0.7710 O   0  0  0  0  0  0  0  0  0  0  0  0
    4.3773   -3.9587   -0.3713 N   0  0  0  0  0  0  0  0  0  0  0  0
    5.6828   -4.5768   -0.1089 C   0  0  2  0  0  0  0  0  0  0  0  0
    5.9713   -4.5863    1.4009 C   0  0  0  0  0  0  0  0  0  0  0  0
    6.7550   -3.8312   -0.8758 C   0  0  0  0  0  0  0  0  0  0  0  0
    7.1552   -4.3003   -1.9733 O   0  0  0  0  0  0  0  0  0  0  0  0
    7.2454   -2.5601   -0.4279 N   0  0  0  0  0  0  0  0  0  0  0  0
    7.5656   -1.4871   -1.3709 C   0  0  2  0  0  0  0  0  0  0  0  0
    9.0355   -1.5518   -1.7961 C   0  0  0  0  0  0  0  0  0  0  0  0
    7.1745   -0.1465   -0.7870 C   0  0  0  0  0  0  0  0  0  0  0  0
    6.2717    0.5288   -1.3552 O   0  0  0  0  0  0  0  0  0  0  0  0
    7.7136    0.3208    0.4608 N   0  0  0  0  0  0  0  0  0  0  0  0
    9.0862    0.8117    0.6025 C   0  0  2  0  0  0  0  0  0  0  0  0
    9.8369   -0.0385    1.6331 C   0  0  0  0  0  0  0  0  0  0  0  0
    9.0750    2.2670    1.0071 C   0  0  0  0  0  0  0  0  0  0  0  0
    8.9317    2.5822    2.2194 O   0  0  0  0  0  0  0  0  0  0  0  0
    9.2678    3.3063    0.0409 N   0  0  0  0  0  0  0  0  0  0  0  0
    8.5325    3.3554   -1.2265 C   0  0  2  0  0  0  0  0  0  0  0  0
    9.4920    3.7933   -2.3366 C   0  0  0  0  0  0  0  0  0  0  0  0
    7.3560    4.3035   -1.1211 C   0  0  0  0  0  0  0  0  0  0  0  0
    6.8352    4.7728   -2.1698 O   0  0  0  0  0  0  0  0  0  0  0  0
    6.8043    4.6581    0.1596 N   0  0  0  0  0  0  0  0  0  0  0  0
    6.2488    5.9915    0.4141 C   0  0  2  0  0  0  0  0  0  0  0  0
    7.3716    7.0359    0.3580 C   0  0  0  0  0  0  0  0  0  0  0  0
    5.5869    6.0235    1.7792 C   0  0  0  0  0  0  0  0  0  0  0  0
    6.2902    5.7451    2.7879 O   0  0  0  0  0  0  0  0  0  0  0  0
    4.1965    6.3406    1.9766 N   0  0  0  0  0  0  0  0  0  0  0  0
    3.3113    6.9589    0.9715 C   0  0  2  0  0  0  0  0  0  0  0  0
    3.7791    8.3839    0.6505 C   0  0  0  0  0  0  0  0  0  0  0  0
    1.8798    7.0335    1.4793 C   0  0  0  0  0  0  0  0  0  0  0  0
    1.6729    7.3808    2.6725 O   0  0  0  0  0  0  0  0  0  0  0  0
    0.7472    6.8033    0.6214 N   0  0  0  0  0  0  0  0  0  0  0  0
    0.8284    6.5900   -0.8351 C   0  0  2  0  0  0  0  0  0  0  0  0
   -0.3298    7.2303   -1.5719 C   0  0  0  0  0  0  0  0  0  0  0  0
   -0.3823    7.1751   -2.9967 N   0  0  0  0  0  0  0  0  0  0  0  0
   -1.2485    7.8192   -0.9390 O   0  0  0  0  0  0  0  0  0  0  0  0
    0.9968    5.0819   -1.1414 C   0  0  0  0  0  0  0  0  0  0  0  0
   -0.5550    4.1964   -1.5755 S   0  0  0  0  0  0  0  0  0  0  0  0
   -1.2490    4.0624    0.1057 C   0  0  0  0  0  0  0  0  0  0  0  0
  -11.9553    2.8085   -0.1146 H   0  0  0  0  0  0  0  0  0  0  0  0
  -10.8977    4.0927    0.6200 H   0  0  0  0  0  0  0  0  0  0  0  0
  -11.8871    4.4636   -0.8378 H   0  0  0  0  0  0  0  0  0  0  0  0
   -8.5627    1.8903   -1.5724 H   0  0  0  0  0  0  0  0  0  0  0  0
   -9.8633    2.1131    1.1911 H   0  0  0  0  0  0  0  0  0  0  0  0
   -7.0075    1.2585    0.5776 H   0  0  0  0  0  0  0  0  0  0  0  0
   -7.7291    1.5349    2.1603 H   0  0  0  0  0  0  0  0  0  0  0  0
   -6.8335    3.3331   -1.3032 H   0  0  0  0  0  0  0  0  0  0  0  0
   -6.1416    4.8342   -0.6751 H   0  0  0  0  0  0  0  0  0  0  0  0
   -3.8499    4.9316    0.0911 H   0  0  0  0  0  0  0  0  0  0  0  0
   -1.4353    1.3612   -0.0894 H   0  0  0  0  0  0  0  0  0  0  0  0
   -5.6091    1.1742   -0.9882 H   0  0  0  0  0  0  0  0  0  0  0  0
   -4.5382   -0.7953   -0.4889 H   0  0  0  0  0  0  0  0  0  0  0  0
   -3.1077   -0.6732   -1.5648 H   0  0  0  0  0  0  0  0  0  0  0  0
   -3.2220   -3.0889    2.0721 H   0  0  0  0  0  0  0  0  0  0  0  0
   -4.5831   -2.0482    1.5699 H   0  0  0  0  0  0  0  0  0  0  0  0
   -4.2836   -2.9449   -0.8256 H   0  0  0  0  0  0  0  0  0  0  0  0
   -5.6903   -4.7601   -0.4434 H   0  0  0  0  0  0  0  0  0  0  0  0
   -7.6605   -4.9910    2.4855 H   0  0  0  0  0  0  0  0  0  0  0  0
   -6.8593   -2.0127    2.3946 H   0  0  0  0  0  0  0  0  0  0  0  0
   -8.4092   -2.6757    3.0334 H   0  0  0  0  0  0  0  0  0  0  0  0
   -6.8547   -3.1068    3.8352 H   0  0  0  0  0  0  0  0  0  0  0  0
   -8.8154   -4.5754    0.5791 H   0  0  0  0  0  0  0  0  0  0  0  0
   -9.2261   -2.4629   -1.7674 H   0  0  0  0  0  0  0  0  0  0  0  0
  -10.4682   -2.7260    1.0302 H   0  0  0  0  0  0  0  0  0  0  0  0
  -11.3801   -1.9950   -0.3596 H   0  0  0  0  0  0  0  0  0  0  0  0
  -10.7670   -3.6844   -0.4721 H   0  0  0  0  0  0  0  0  0  0  0  0
   -8.6285   -0.2495   -1.4636 H   0  0  0  0  0  0  0  0  0  0  0  0
   -1.2219   -5.0063    0.9538 H   0  0  0  0  0  0  0  0  0  0  0  0
   -3.6846   -6.7070    0.3871 H   0  0  0  0  0  0  0  0  0  0  0  0
   -3.0066   -6.2510    2.8370 H   0  0  0  0  0  0  0  0  0  0  0  0
   -1.5103   -7.2024    2.5228 H   0  0  0  0  0  0  0  0  0  0  0  0
   -3.1360   -7.9883    2.3732 H   0  0  0  0  0  0  0  0  0  0  0  0
    0.2235   -8.2133   -0.1297 H   0  0  0  0  0  0  0  0  0  0  0  0
   -0.0061   -5.4773   -1.0653 H   0  0  0  0  0  0  0  0  0  0  0  0
   -0.8491   -7.6032   -3.1515 H   0  0  0  0  0  0  0  0  0  0  0  0
   -1.9476   -6.3783   -2.4261 H   0  0  0  0  0  0  0  0  0  0  0  0
   -0.5885   -5.8262   -3.4589 H   0  0  0  0  0  0  0  0  0  0  0  0
    3.2222   -7.7411   -1.1154 H   0  0  0  0  0  0  0  0  0  0  0  0
    3.8860   -6.4192    0.5741 H   0  0  0  0  0  0  0  0  0  0  0  0
    1.8102   -7.1569    1.6734 H   0  0  0  0  0  0  0  0  0  0  0  0
    2.3647   -5.5252    2.2019 H   0  0  0  0  0  0  0  0  0  0  0  0
    0.9699   -5.6755    1.0783 H   0  0  0  0  0  0  0  0  0  0  0  0
    4.3658   -2.9518   -0.6699 H   0  0  0  0  0  0  0  0  0  0  0  0
    5.6786   -5.6235   -0.4807 H   0  0  0  0  0  0  0  0  0  0  0  0
    7.0058   -4.9355    1.5984 H   0  0  0  0  0  0  0  0  0  0  0  0
    5.2738   -5.2722    1.9271 H   0  0  0  0  0  0  0  0  0  0  0  0
    5.8336   -3.5747    1.8403 H   0  0  0  0  0  0  0  0  0  0  0  0
    7.2985   -2.3589    0.5990 H   0  0  0  0  0  0  0  0  0  0  0  0
    6.9615   -1.6322   -2.2971 H   0  0  0  0  0  0  0  0  0  0  0  0
    9.7135   -1.5724   -0.9149 H   0  0  0  0  0  0  0  0  0  0  0  0
    9.2903   -0.6799   -2.4346 H   0  0  0  0  0  0  0  0  0  0  0  0
    9.2203   -2.4752   -2.3844 H   0  0  0  0  0  0  0  0  0  0  0  0
    7.0373    0.4923    1.2445 H   0  0  0  0  0  0  0  0  0  0  0  0
    9.6165    0.7279   -0.3609 H   0  0  0  0  0  0  0  0  0  0  0  0
   10.8883    0.3153    1.7246 H   0  0  0  0  0  0  0  0  0  0  0  0
    9.8411   -1.1020    1.3286 H   0  0  0  0  0  0  0  0  0  0  0  0
    9.3414    0.0217    2.6314 H   0  0  0  0  0  0  0  0  0  0  0  0
    9.6986    4.2002    0.3835 H   0  0  0  0  0  0  0  0  0  0  0  0
    8.1451    2.3569   -1.4930 H   0  0  0  0  0  0  0  0  0  0  0  0
    9.8925    4.8079   -2.1364 H   0  0  0  0  0  0  0  0  0  0  0  0
    8.9760    3.7916   -3.3206 H   0  0  0  0  0  0  0  0  0  0  0  0
   10.3463    3.0828   -2.3965 H   0  0  0  0  0  0  0  0  0  0  0  0
    6.9810    4.0271    0.9735 H   0  0  0  0  0  0  0  0  0  0  0  0
    5.5155    6.2229   -0.3826 H   0  0  0  0  0  0  0  0  0  0  0  0
    7.0086    8.0334    0.6768 H   0  0  0  0  0  0  0  0  0  0  0  0
    8.2152    6.7341    1.0181 H   0  0  0  0  0  0  0  0  0  0  0  0
    7.7593    7.1199   -0.6817 H   0  0  0  0  0  0  0  0  0  0  0  0
    3.8065    6.1245    2.9249 H   0  0  0  0  0  0  0  0  0  0  0  0
    3.3421    6.3347    0.0571 H   0  0  0  0  0  0  0  0  0  0  0  0
    4.7448    8.3689    0.1045 H   0  0  0  0  0  0  0  0  0  0  0  0
    3.0403    8.8989    0.0026 H   0  0  0  0  0  0  0  0  0  0  0  0
    3.9139    8.9691    1.5876 H   0  0  0  0  0  0  0  0  0  0  0  0
   -0.1953    6.8440    1.0782 H   0  0  0  0  0  0  0  0  0  0  0  0
    1.7199    7.1243   -1.2231 H   0  0  0  0  0  0  0  0  0  0  0  0
   -1.1832    7.6180   -3.5080 H   0  0  0  0  0  0  0  0  0  0  0  0
    0.3048    6.6025   -3.5291 H   0  0  0  0  0  0  0  0  0  0  0  0
    1.5054    4.5585   -0.3054 H   0  0  0  0  0  0  0  0  0  0  0  0
    1.6629    4.9812   -2.0289 H   0  0  0  0  0  0  0  0  0  0  0  0
   -1.4944    5.0654    0.4992 H   0  0  0  0  0  0  0  0  0  0  0  0
   -0.5176    3.5845    0.7886 H   0  0  0  0  0  0  0  0  0  0  0  0
  1  2  1  0
  2  3  2  0
  2  4  1  0
  4  5  1  0
  5  6  1  0
  6  7  1  0
  7  8  1  0
  8  9  1  0
  9 10  2  0
 10 11  1  0
 11 12  2  0
 12 13  1  0
 13 14  2  0
 13 15  1  0
 15 16  1  0
 16 17  1  0
 17 18  1  0
 18 19  1  0
 19 20  1  0
 20 21  2  0
 20 22  1  0
 22 23  1  0
 22 24  1  0
 24 25  1  0
 25 26  2  0
 25 27  1  0
 27 28  1  0
 27 29  1  0
 29 30  1  0
 30 31  2  0
 18 32  1  0
 32 33  2  0
 32 34  1  0
 34 35  1  0
 35 36  1  0
 35 37  1  0
 37 38  2  0
 37 39  1  0
 39 40  1  0
 40 41  1  0
 40 42  1  0
 42 43  2  0
 42 44  1  0
 44 45  1  0
 45 46  1  0
 45 47  1  0
 47 48  2  0
 47 49  1  0
 49 50  1  0
 50 51  1  0
 50 52  1  0
 52 53  2  0
 52 54  1  0
 54 55  1  0
 55 56  1  0
 55 57  1  0
 57 58  2  0
 57 59  1  0
 59 60  1  0
 60 61  1  0
 60 62  1  0
 62 63  2  0
 62 64  1  0
 64 65  1  0
 65 66  1  0
 65 67  1  0
 67 68  2  0
 67 69  1  0
 69 70  1  0
 70 71  1  0
 70 72  1  0
 72 73  2  0
 72 74  1  0
 74 75  1  0
 75 76  1  0
 75 77  1  0
 77 78  2  0
 77 79  1  0
 79 80  1  0
 80 81  1  0
 81 82  1  0
 81 83  2  0
 80 84  1  0
 84 85  1  0
 85 86  1  0
 30  5  1  0
 14  9  1  0
 86 11  1  0
  1 87  1  0
  1 88  1  0
  1 89  1  0
  4 90  1  0
  5 91  1  1
  6 92  1  0
  6 93  1  0
  8 94  1  0
  8 95  1  0
 10 96  1  0
 12 97  1  0
 14 98  1  0
 15 99  1  0
 15100  1  0
 17101  1  0
 17102  1  0
 18103  1  6
 19104  1  0
 22105  1  1
 23106  1  0
 23107  1  0
 23108  1  0
 24109  1  0
 27110  1  6
 28111  1  0
 28112  1  0
 28113  1  0
 29114  1  0
 34115  1  0
 35116  1  6
 36117  1  0
 36118  1  0
 36119  1  0
 39120  1  0
 40121  1  1
 41122  1  0
 41123  1  0
 41124  1  0
 44125  1  0
 45126  1  1
 46127  1  0
 46128  1  0
 46129  1  0
 49130  1  0
 50131  1  6
 51132  1  0
 51133  1  0
 51134  1  0
 54135  1  0
 55136  1  6
 56137  1  0
 56138  1  0
 56139  1  0
 59140  1  0
 60141  1  6
 61142  1  0
 61143  1  0
 61144  1  0
 64145  1  0
 65146  1  6
 66147  1  0
 66148  1  0
 66149  1  0
 69150  1  0
 70151  1  6
 71152  1  0
 71153  1  0
 71154  1  0
 74155  1  0
 75156  1  6
 76157  1  0
 76158  1  0
 76159  1  0
 79160  1  0
 80161  1  6
 82162  1  0
 82163  1  0
 84164  1  0
 84165  1  0
 86166  1  0
 86167  1  0
M  END
