
     RDKit          3D

167169  0  0  0  0  0  0  0  0999 V2000
  -10.9871    5.0573   -1.3465 C   0  0  0  0  0  0  0  0  0  0  0  0
  -11.0391    4.8657    0.1409 C   0  0  0  0  0  0  0  0  0  0  0  0
  -11.1530    5.8795    0.8836 O   0  0  0  0  0  0  0  0  0  0  0  0
  -11.0000    3.5604    0.7379 N   0  0  0  0  0  0  0  0  0  0  0  0
  -10.1589    2.4520    0.2503 C   0  0  1  0  0  0  0  0  0  0  0  0
   -8.6998    2.9060    0.0194 C   0  0  0  0  0  0  0  0  0  0  0  0
   -8.0301    3.7981    1.4775 S   0  0  0  0  0  0  0  0  0  0  0  0
   -6.5671    2.7285    1.7703 C   0  0  0  0  0  0  0  0  0  0  0  0
   -5.5142    2.8733    0.7001 C   0  0  0  0  0  0  0  0  0  0  0  0
   -5.0385    4.1418    0.3410 C   0  0  0  0  0  0  0  0  0  0  0  0
   -3.9960    4.2772   -0.5882 C   0  0  0  0  0  0  0  0  0  0  0  0
   -3.4676    3.1329   -1.1998 C   0  0  0  0  0  0  0  0  0  0  0  0
   -3.9382    1.8535   -0.8669 C   0  0  0  0  0  0  0  0  0  0  0  0
   -4.9395    1.7313    0.1148 C   0  0  0  0  0  0  0  0  0  0  0  0
   -3.2947    0.6672   -1.5566 C   0  0  0  0  0  0  0  0  0  0  0  0
   -4.1092   -0.9457   -1.2473 S   0  0  0  0  0  0  0  0  0  0  0  0
   -3.1190   -1.3909    0.2307 C   0  0  0  0  0  0  0  0  0  0  0  0
   -3.8236   -2.4773    1.0460 C   0  0  2  0  0  0  0  0  0  0  0  0
   -5.0250   -1.9234    1.6786 N   0  0  0  0  0  0  0  0  0  0  0  0
   -6.3480   -2.4568    1.5024 C   0  0  0  0  0  0  0  0  0  0  0  0
   -7.1823   -2.3304    2.4391 O   0  0  0  0  0  0  0  0  0  0  0  0
   -6.7943   -3.1061    0.2097 C   0  0  1  0  0  0  0  0  0  0  0  0
   -6.8416   -4.6293    0.3704 C   0  0  0  0  0  0  0  0  0  0  0  0
   -8.1071   -2.5823   -0.1805 N   0  0  0  0  0  0  0  0  0  0  0  0
   -8.2799   -1.1948   -0.5320 C   0  0  0  0  0  0  0  0  0  0  0  0
   -7.2728   -0.4568   -0.6762 O   0  0  0  0  0  0  0  0  0  0  0  0
   -9.6421   -0.5454   -0.5340 C   0  0  1  0  0  0  0  0  0  0  0  0
  -10.7527   -1.4823   -1.0275 C   0  0  0  0  0  0  0  0  0  0  0  0
   -9.9510   -0.0801    0.8255 N   0  0  0  0  0  0  0  0  0  0  0  0
  -10.1614    1.2887    1.2323 C   0  0  0  0  0  0  0  0  0  0  0  0
  -10.2995    1.5245    2.4624 O   0  0  0  0  0  0  0  0  0  0  0  0
   -2.8723   -2.9953    2.1119 C   0  0  0  0  0  0  0  0  0  0  0  0
   -2.8443   -2.4114    3.2328 O   0  0  0  0  0  0  0  0  0  0  0  0
   -1.9376   -4.0593    1.8851 N   0  0  0  0  0  0  0  0  0  0  0  0
   -2.0891   -5.1516    0.9145 C   0  0  2  0  0  0  0  0  0  0  0  0
   -2.6221   -6.3972    1.6293 C   0  0  0  0  0  0  0  0  0  0  0  0
   -0.7665   -5.3633    0.2048 C   0  0  0  0  0  0  0  0  0  0  0  0
   -0.3443   -4.4381   -0.5412 O   0  0  0  0  0  0  0  0  0  0  0  0
    0.0136   -6.5688    0.3478 N   0  0  0  0  0  0  0  0  0  0  0  0
    1.1183   -6.8874   -0.5614 C   0  0  2  0  0  0  0  0  0  0  0  0
    0.5541   -7.5445   -1.8279 C   0  0  0  0  0  0  0  0  0  0  0  0
    2.0996   -7.8212    0.1135 C   0  0  0  0  0  0  0  0  0  0  0  0
    1.6639   -8.9001    0.6029 O   0  0  0  0  0  0  0  0  0  0  0  0
    3.5105   -7.5549    0.2163 N   0  0  0  0  0  0  0  0  0  0  0  0
    4.2211   -6.3829   -0.3181 C   0  0  2  0  0  0  0  0  0  0  0  0
    4.3351   -6.4765   -1.8452 C   0  0  0  0  0  0  0  0  0  0  0  0
    5.6003   -6.3210    0.2972 C   0  0  0  0  0  0  0  0  0  0  0  0
    6.3969   -7.2779    0.0836 O   0  0  0  0  0  0  0  0  0  0  0  0
    6.0112   -5.2857    1.2100 N   0  0  0  0  0  0  0  0  0  0  0  0
    5.7203   -3.8447    1.1208 C   0  0  2  0  0  0  0  0  0  0  0  0
    4.3660   -3.4993    1.7629 C   0  0  0  0  0  0  0  0  0  0  0  0
    5.8626   -3.3111   -0.2926 C   0  0  0  0  0  0  0  0  0  0  0  0
    4.8509   -3.2780   -1.0394 O   0  0  0  0  0  0  0  0  0  0  0  0
    7.0908   -2.7372   -0.7810 N   0  0  0  0  0  0  0  0  0  0  0  0
    8.4575   -3.1940   -0.4936 C   0  0  2  0  0  0  0  0  0  0  0  0
    8.6458   -4.6647   -0.9044 C   0  0  0  0  0  0  0  0  0  0  0  0
    8.8510   -2.9143    0.9440 C   0  0  0  0  0  0  0  0  0  0  0  0
    9.0754   -3.8693    1.7339 O   0  0  0  0  0  0  0  0  0  0  0  0
    8.9065   -1.5784    1.4582 N   0  0  0  0  0  0  0  0  0  0  0  0
    9.3135   -0.4229    0.6565 C   0  0  2  0  0  0  0  0  0  0  0  0
   10.8246   -0.4939    0.3795 C   0  0  0  0  0  0  0  0  0  0  0  0
    8.9769    0.8567    1.3957 C   0  0  0  0  0  0  0  0  0  0  0  0
    9.5289    1.0843    2.5066 O   0  0  0  0  0  0  0  0  0  0  0  0
    7.9921    1.7901    0.9128 N   0  0  0  0  0  0  0  0  0  0  0  0
    7.8066    2.1380   -0.5049 C   0  0  2  0  0  0  0  0  0  0  0  0
    9.0649    2.8186   -1.0518 C   0  0  0  0  0  0  0  0  0  0  0  0
    6.6289    3.0584   -0.6902 C   0  0  0  0  0  0  0  0  0  0  0  0
    5.7175    2.7500   -1.5046 O   0  0  0  0  0  0  0  0  0  0  0  0
    6.5558    4.3008    0.0169 N   0  0  0  0  0  0  0  0  0  0  0  0
    6.4771    5.5762   -0.6910 C   0  0  2  0  0  0  0  0  0  0  0  0
    7.4815    6.5555   -0.0791 C   0  0  0  0  0  0  0  0  0  0  0  0
    5.0515    6.0738   -0.6714 C   0  0  0  0  0  0  0  0  0  0  0  0
    4.2456    5.6352   -1.5356 O   0  0  0  0  0  0  0  0  0  0  0  0
    4.5765    6.9745    0.3495 N   0  0  0  0  0  0  0  0  0  0  0  0
    3.1590    7.0322    0.7329 C   0  0  2  0  0  0  0  0  0  0  0  0
    2.9674    7.9406    1.9547 C   0  0  0  0  0  0  0  0  0  0  0  0
    2.6484    5.6441    1.0334 C   0  0  0  0  0  0  0  0  0  0  0  0
    3.3126    4.8905    1.7984 O   0  0  0  0  0  0  0  0  0  0  0  0
    1.4613    5.1300    0.4163 N   0  0  0  0  0  0  0  0  0  0  0  0
    0.2669    5.9500    0.1866 C   0  0  1  0  0  0  0  0  0  0  0  0
    0.2564    6.4732   -1.2291 C   0  0  0  0  0  0  0  0  0  0  0  0
    0.3719    5.5763   -2.3320 N   0  0  0  0  0  0  0  0  0  0  0  0
    0.0831    7.7032   -1.4394 O   0  0  0  0  0  0  0  0  0  0  0  0
   -0.9979    5.1109    0.4538 C   0  0  0  0  0  0  0  0  0  0  0  0
   -2.4688    6.1874    0.6614 S   0  0  0  0  0  0  0  0  0  0  0  0
   -3.3753    5.6285   -0.8304 C   0  0  0  0  0  0  0  0  0  0  0  0
  -10.9740    4.0848   -1.8868 H   0  0  0  0  0  0  0  0  0  0  0  0
  -10.0757    5.6324   -1.6201 H   0  0  0  0  0  0  0  0  0  0  0  0
  -11.8894    5.6281   -1.6671 H   0  0  0  0  0  0  0  0  0  0  0  0
  -11.6019    3.4182    1.5919 H   0  0  0  0  0  0  0  0  0  0  0  0
  -10.5989    2.1124   -0.7111 H   0  0  0  0  0  0  0  0  0  0  0  0
   -8.0749    2.0281   -0.2491 H   0  0  0  0  0  0  0  0  0  0  0  0
   -8.6522    3.5890   -0.8533 H   0  0  0  0  0  0  0  0  0  0  0  0
   -6.1147    3.0292    2.7308 H   0  0  0  0  0  0  0  0  0  0  0  0
   -6.8943    1.6696    1.8768 H   0  0  0  0  0  0  0  0  0  0  0  0
   -5.4472    5.0240    0.8230 H   0  0  0  0  0  0  0  0  0  0  0  0
   -2.6639    3.2288   -1.9201 H   0  0  0  0  0  0  0  0  0  0  0  0
   -5.2569    0.7658    0.4645 H   0  0  0  0  0  0  0  0  0  0  0  0
   -2.2219    0.6173   -1.2753 H   0  0  0  0  0  0  0  0  0  0  0  0
   -3.3378    0.8420   -2.6520 H   0  0  0  0  0  0  0  0  0  0  0  0
   -2.9440   -0.4967    0.8598 H   0  0  0  0  0  0  0  0  0  0  0  0
   -2.1345   -1.7608   -0.1262 H   0  0  0  0  0  0  0  0  0  0  0  0
   -4.1070   -3.3060    0.3667 H   0  0  0  0  0  0  0  0  0  0  0  0
   -4.9063   -1.1734    2.3987 H   0  0  0  0  0  0  0  0  0  0  0  0
   -6.0785   -2.8744   -0.5976 H   0  0  0  0  0  0  0  0  0  0  0  0
   -7.1674   -5.0966   -0.5830 H   0  0  0  0  0  0  0  0  0  0  0  0
   -7.5560   -4.9234    1.1676 H   0  0  0  0  0  0  0  0  0  0  0  0
   -5.8330   -5.0177    0.6186 H   0  0  0  0  0  0  0  0  0  0  0  0
   -8.8750   -3.2573   -0.4113 H   0  0  0  0  0  0  0  0  0  0  0  0
   -9.5940    0.2928   -1.2582 H   0  0  0  0  0  0  0  0  0  0  0  0
  -10.4620   -1.9466   -1.9913 H   0  0  0  0  0  0  0  0  0  0  0  0
  -10.9684   -2.2730   -0.2802 H   0  0  0  0  0  0  0  0  0  0  0  0
  -11.6831   -0.8958   -1.1847 H   0  0  0  0  0  0  0  0  0  0  0  0
   -9.9678   -0.8041    1.5812 H   0  0  0  0  0  0  0  0  0  0  0  0
   -1.1776   -4.1745    2.5928 H   0  0  0  0  0  0  0  0  0  0  0  0
   -2.8162   -4.9118    0.1174 H   0  0  0  0  0  0  0  0  0  0  0  0
   -2.7127   -7.2468    0.9202 H   0  0  0  0  0  0  0  0  0  0  0  0
   -3.6327   -6.1868    2.0533 H   0  0  0  0  0  0  0  0  0  0  0  0
   -1.9565   -6.6849    2.4730 H   0  0  0  0  0  0  0  0  0  0  0  0
   -0.2856   -7.3022    1.0250 H   0  0  0  0  0  0  0  0  0  0  0  0
    1.6217   -5.9501   -0.8603 H   0  0  0  0  0  0  0  0  0  0  0  0
    1.3695   -7.7638   -2.5436 H   0  0  0  0  0  0  0  0  0  0  0  0
   -0.1710   -6.8676   -2.3195 H   0  0  0  0  0  0  0  0  0  0  0  0
    0.0338   -8.4940   -1.5744 H   0  0  0  0  0  0  0  0  0  0  0  0
    4.0649   -8.2644    0.7475 H   0  0  0  0  0  0  0  0  0  0  0  0
    3.6637   -5.4717   -0.0570 H   0  0  0  0  0  0  0  0  0  0  0  0
    3.3477   -6.3353   -2.3276 H   0  0  0  0  0  0  0  0  0  0  0  0
    5.0113   -5.6883   -2.2406 H   0  0  0  0  0  0  0  0  0  0  0  0
    4.7283   -7.4722   -2.1537 H   0  0  0  0  0  0  0  0  0  0  0  0
    6.7780   -5.5429    1.8683 H   0  0  0  0  0  0  0  0  0  0  0  0
    6.4583   -3.3151    1.7578 H   0  0  0  0  0  0  0  0  0  0  0  0
    3.5043   -3.6418    1.0787 H   0  0  0  0  0  0  0  0  0  0  0  0
    4.3615   -2.4279    2.0669 H   0  0  0  0  0  0  0  0  0  0  0  0
    4.2038   -4.1165    2.6721 H   0  0  0  0  0  0  0  0  0  0  0  0
    6.9931   -2.0359   -1.5513 H   0  0  0  0  0  0  0  0  0  0  0  0
    9.1525   -2.6173   -1.1432 H   0  0  0  0  0  0  0  0  0  0  0  0
    9.7310   -4.8943   -0.9929 H   0  0  0  0  0  0  0  0  0  0  0  0
    8.2192   -5.3620   -0.1630 H   0  0  0  0  0  0  0  0  0  0  0  0
    8.1681   -4.8539   -1.8883 H   0  0  0  0  0  0  0  0  0  0  0  0
    8.7916   -1.4631    2.4929 H   0  0  0  0  0  0  0  0  0  0  0  0
    8.7758   -0.4389   -0.3100 H   0  0  0  0  0  0  0  0  0  0  0  0
   11.3842   -0.6279    1.3258 H   0  0  0  0  0  0  0  0  0  0  0  0
   11.0501   -1.3501   -0.2898 H   0  0  0  0  0  0  0  0  0  0  0  0
   11.1837    0.4370   -0.1122 H   0  0  0  0  0  0  0  0  0  0  0  0
    7.5202    2.3751    1.6388 H   0  0  0  0  0  0  0  0  0  0  0  0
    7.6089    1.2181   -1.0966 H   0  0  0  0  0  0  0  0  0  0  0  0
    9.3560    3.6708   -0.3974 H   0  0  0  0  0  0  0  0  0  0  0  0
    8.8920    3.1911   -2.0860 H   0  0  0  0  0  0  0  0  0  0  0  0
    9.9094    2.0954   -1.0881 H   0  0  0  0  0  0  0  0  0  0  0  0
    6.4483    4.2895    1.0561 H   0  0  0  0  0  0  0  0  0  0  0  0
    6.7730    5.4345   -1.7581 H   0  0  0  0  0  0  0  0  0  0  0  0
    7.3130    6.6525    1.0184 H   0  0  0  0  0  0  0  0  0  0  0  0
    8.5128    6.1784   -0.2400 H   0  0  0  0  0  0  0  0  0  0  0  0
    7.3918    7.5569   -0.5595 H   0  0  0  0  0  0  0  0  0  0  0  0
    5.2452    7.6399    0.8026 H   0  0  0  0  0  0  0  0  0  0  0  0
    2.5855    7.4729   -0.1125 H   0  0  0  0  0  0  0  0  0  0  0  0
    1.9029    7.9422    2.2672 H   0  0  0  0  0  0  0  0  0  0  0  0
    3.5903    7.6014    2.8061 H   0  0  0  0  0  0  0  0  0  0  0  0
    3.2508    8.9793    1.6929 H   0  0  0  0  0  0  0  0  0  0  0  0
    1.3984    4.0924    0.2766 H   0  0  0  0  0  0  0  0  0  0  0  0
    0.2596    6.8008    0.9003 H   0  0  0  0  0  0  0  0  0  0  0  0
    0.2993    5.9355   -3.3127 H   0  0  0  0  0  0  0  0  0  0  0  0
    0.5649    4.5568   -2.1848 H   0  0  0  0  0  0  0  0  0  0  0  0
   -1.1303    4.3710   -0.3566 H   0  0  0  0  0  0  0  0  0  0  0  0
   -0.8679    4.5379    1.3934 H   0  0  0  0  0  0  0  0  0  0  0  0
   -2.6847    5.6028   -1.7046 H   0  0  0  0  0  0  0  0  0  0  0  0
   -4.1714    6.3628   -1.0661 H   0  0  0  0  0  0  0  0  0  0  0  0
  1  2  1  0
  2  3  2  0
  2  4  1  0
  4  5  1  0
  5  6  1  0
  6  7  1  0
  7  8  1  0
  8  9  1  0
  9 10  2  0
 10 11  1  0
 11 12  2  0
 12 13  1  0
 13 14  2  0
 13 15  1  0
 15 16  1  0
 16 17  1  0
 17 18  1  0
 18 19  1  0
 19 20  1  0
 20 21  2  0
 20 22  1  0
 22 23  1  0
 22 24  1  0
 24 25  1  0
 25 26  2  0
 25 27  1  0
 27 28  1  0
 27 29  1  0
 29 30  1  0
 30 31  2  0
 18 32  1  0
 32 33  2  0
 32 34  1  0
 34 35  1  0
 35 36  1  0
 35 37  1  0
 37 38  2  0
 37 39  1  0
 39 40  1  0
 40 41  1  0
 40 42  1  0
 42 43  2  0
 42 44  1  0
 44 45  1  0
 45 46  1  0
 45 47  1  0
 47 48  2  0
 47 49  1  0
 49 50  1  0
 50 51  1  0
 50 52  1  0
 52 53  2  0
 52 54  1  0
 54 55  1  0
 55 56  1  0
 55 57  1  0
 57 58  2  0
 57 59  1  0
 59 60  1  0
 60 61  1  0
 60 62  1  0
 62 63  2  0
 62 64  1  0
 64 65  1  0
 65 66  1  0
 65 67  1  0
 67 68  2  0
 67 69  1  0
 69 70  1  0
 70 71  1  0
 70 72  1  0
 72 73  2  0
 72 74  1  0
 74 75  1  0
 75 76  1  0
 75 77  1  0
 77 78  2  0
 77 79  1  0
 79 80  1  0
 80 81  1  0
 81 82  1  0
 81 83  2  0
 80 84  1  0
 84 85  1  0
 85 86  1  0
 30  5  1  0
 14  9  1  0
 86 11  1  0
  1 87  1  0
  1 88  1  0
  1 89  1  0
  4 90  1  0
  5 91  1  6
  6 92  1  0
  6 93  1  0
  8 94  1  0
  8 95  1  0
 10 96  1  0
 12 97  1  0
 14 98  1  0
 15 99  1  0
 15100  1  0
 17101  1  0
 17102  1  0
 18103  1  6
 19104  1  0
 22105  1  6
 23106  1  0
 23107  1  0
 23108  1  0
 24109  1  0
 27110  1  6
 28111  1  0
 28112  1  0
 28113  1  0
 29114  1  0
 34115  1  0
 35116  1  6
 36117  1  0
 36118  1  0
 36119  1  0
 39120  1  0
 40121  1  6
 41122  1  0
 41123  1  0
 41124  1  0
 44125  1  0
 45126  1  6
 46127  1  0
 46128  1  0
 46129  1  0
 49130  1  0
 50131  1  1
 51132  1  0
 51133  1  0
 51134  1  0
 54135  1  0
 55136  1  6
 56137  1  0
 56138  1  0
 56139  1  0
 59140  1  0
 60141  1  6
 61142  1  0
 61143  1  0
 61144  1  0
 64145  1  0
 65146  1  6
 66147  1  0
 66148  1  0
 66149  1  0
 69150  1  0
 70151  1  6
 71152  1  0
 71153  1  0
 71154  1  0
 74155  1  0
 75156  1  6
 76157  1  0
 76158  1  0
 76159  1  0
 79160  1  0
 80161  1  1
 82162  1  0
 82163  1  0
 84164  1  0
 84165  1  0
 86166  1  0
 86167  1  0
M  END
