
     RDKit          3D

177179  0  0  0  0  0  0  0  0999 V2000
   12.9785   -4.5141    0.9278 C   0  0  0  0  0  0  0  0  0  0  0  0
   11.9935   -3.4272    0.6318 C   0  0  0  0  0  0  0  0  0  0  0  0
   12.1049   -2.3191    1.2242 O   0  0  0  0  0  0  0  0  0  0  0  0
   10.9371   -3.6393   -0.3224 N   0  0  0  0  0  0  0  0  0  0  0  0
    9.9436   -2.5996   -0.6288 C   0  0  2  0  0  0  0  0  0  0  0  0
    8.7681   -3.1647   -1.4598 C   0  0  0  0  0  0  0  0  0  0  0  0
    8.1935   -4.8018   -0.8644 S   0  0  0  0  0  0  0  0  0  0  0  0
    7.0602   -4.2220    0.4472 C   0  0  0  0  0  0  0  0  0  0  0  0
    5.7512   -3.7161   -0.1005 C   0  0  0  0  0  0  0  0  0  0  0  0
    5.0523   -4.4297   -1.0910 C   0  0  0  0  0  0  0  0  0  0  0  0
    3.8042   -3.9807   -1.5469 C   0  0  0  0  0  0  0  0  0  0  0  0
    3.2533   -2.8101   -1.0063 C   0  0  0  0  0  0  0  0  0  0  0  0
    3.9325   -2.1004   -0.0070 C   0  0  0  0  0  0  0  0  0  0  0  0
    5.1774   -2.5617    0.4443 C   0  0  0  0  0  0  0  0  0  0  0  0
    3.3799   -0.8127    0.5310 C   0  0  0  0  0  0  0  0  0  0  0  0
    4.4264    0.5587   -0.0502 S   0  0  0  0  0  0  0  0  0  0  0  0
    3.6417    1.8481    0.9746 C   0  0  0  0  0  0  0  0  0  0  0  0
    4.6435    2.9883    1.1817 C   0  0  2  0  0  0  0  0  0  0  0  0
    5.6752    2.5774    2.1411 N   0  0  0  0  0  0  0  0  0  0  0  0
    7.0466    2.9981    2.0659 C   0  0  0  0  0  0  0  0  0  0  0  0
    7.6577    3.2716    3.1338 O   0  0  0  0  0  0  0  0  0  0  0  0
    7.7776    3.0927    0.7489 C   0  0  1  0  0  0  0  0  0  0  0  0
    7.7158    4.5224    0.2023 C   0  0  0  0  0  0  0  0  0  0  0  0
    9.1838    2.7109    0.9310 N   0  0  0  0  0  0  0  0  0  0  0  0
    9.6733    1.3813    0.7039 C   0  0  0  0  0  0  0  0  0  0  0  0
   10.2579    0.7874    1.6500 O   0  0  0  0  0  0  0  0  0  0  0  0
    9.5366    0.6716   -0.6262 C   0  0  1  0  0  0  0  0  0  0  0  0
    9.4257    1.6440   -1.8118 C   0  0  0  0  0  0  0  0  0  0  0  0
   10.7161   -0.1680   -0.8443 N   0  0  0  0  0  0  0  0  0  0  0  0
   10.6260   -1.4871   -1.3843 C   0  0  0  0  0  0  0  0  0  0  0  0
   11.2383   -1.7535   -2.4557 O   0  0  0  0  0  0  0  0  0  0  0  0
    3.9607    4.2355    1.6809 C   0  0  0  0  0  0  0  0  0  0  0  0
    3.6730    4.3451    2.9006 O   0  0  0  0  0  0  0  0  0  0  0  0
    3.6949    5.3350    0.7988 N   0  0  0  0  0  0  0  0  0  0  0  0
    3.0120    5.1637   -0.4863 C   0  0  2  0  0  0  0  0  0  0  0  0
    3.5893    6.1456   -1.5079 C   0  0  0  0  0  0  0  0  0  0  0  0
    1.5242    5.3223   -0.2718 C   0  0  0  0  0  0  0  0  0  0  0  0
    0.8840    4.3723    0.2507 O   0  0  0  0  0  0  0  0  0  0  0  0
    0.8510    6.5596   -0.5577 N   0  0  0  0  0  0  0  0  0  0  0  0
    0.1321    7.3437    0.4563 C   0  0  2  0  0  0  0  0  0  0  0  0
    0.9971    7.5630    1.7046 C   0  0  0  0  0  0  0  0  0  0  0  0
   -1.1937    6.7031    0.8289 C   0  0  0  0  0  0  0  0  0  0  0  0
   -1.1868    5.6270    1.4814 O   0  0  0  0  0  0  0  0  0  0  0  0
   -2.4627    7.3367    0.5768 N   0  0  0  0  0  0  0  0  0  0  0  0
   -2.6776    8.4506   -0.3564 C   0  0  2  0  0  0  0  0  0  0  0  0
   -2.5275    9.7803    0.3930 C   0  0  0  0  0  0  0  0  0  0  0  0
   -4.0466    8.3893   -1.0028 C   0  0  0  0  0  0  0  0  0  0  0  0
   -4.3535    9.2664   -1.8598 O   0  0  0  0  0  0  0  0  0  0  0  0
   -5.0442    7.4344   -0.6126 N   0  0  0  0  0  0  0  0  0  0  0  0
   -4.9373    6.0135   -0.9585 C   0  0  2  0  0  0  0  0  0  0  0  0
   -5.5892    5.7852   -2.3287 C   0  0  0  0  0  0  0  0  0  0  0  0
   -5.5919    5.1861    0.1253 C   0  0  0  0  0  0  0  0  0  0  0  0
   -5.4848    5.5443    1.3267 O   0  0  0  0  0  0  0  0  0  0  0  0
   -6.2935    3.9695   -0.1794 N   0  0  0  0  0  0  0  0  0  0  0  0
   -7.7553    3.8385   -0.0806 C   0  0  2  0  0  0  0  0  0  0  0  0
   -8.3805    4.8364    0.9097 C   0  0  0  0  0  0  0  0  0  0  0  0
   -8.1073    2.4264    0.3028 C   0  0  0  0  0  0  0  0  0  0  0  0
   -7.7609    1.9746    1.4266 O   0  0  0  0  0  0  0  0  0  0  0  0
   -8.7675    1.5653   -0.6297 N   0  0  0  0  0  0  0  0  0  0  0  0
  -10.2220    1.3956   -0.6639 C   0  0  2  0  0  0  0  0  0  0  0  0
  -10.8997    2.6590   -1.2063 C   0  0  0  0  0  0  0  0  0  0  0  0
  -10.7429    0.9903    0.7025 C   0  0  0  0  0  0  0  0  0  0  0  0
  -11.4169    1.8142    1.3862 O   0  0  0  0  0  0  0  0  0  0  0  0
  -10.4726   -0.3091    1.2641 N   0  0  0  0  0  0  0  0  0  0  0  0
  -10.0608   -1.4699    0.4644 C   0  0  2  0  0  0  0  0  0  0  0  0
  -11.3080   -2.1444   -0.1138 C   0  0  0  0  0  0  0  0  0  0  0  0
   -9.2661   -2.4648    1.2899 C   0  0  0  0  0  0  0  0  0  0  0  0
   -9.1713   -2.3018    2.5368 O   0  0  0  0  0  0  0  0  0  0  0  0
   -8.6592   -3.6277    0.7040 N   0  0  0  0  0  0  0  0  0  0  0  0
   -8.1086   -3.6981   -0.6556 C   0  0  2  0  0  0  0  0  0  0  0  0
   -8.6786   -4.9153   -1.3900 C   0  0  0  0  0  0  0  0  0  0  0  0
   -6.5985   -3.7293   -0.5893 C   0  0  0  0  0  0  0  0  0  0  0  0
   -5.9378   -2.8204   -1.1586 O   0  0  0  0  0  0  0  0  0  0  0  0
   -5.9029   -4.7010    0.2012 N   0  0  0  0  0  0  0  0  0  0  0  0
   -5.7703   -6.0968   -0.2185 C   0  0  2  0  0  0  0  0  0  0  0  0
   -6.3036   -7.0279    0.8772 C   0  0  0  0  0  0  0  0  0  0  0  0
   -4.3350   -6.4086   -0.5500 C   0  0  0  0  0  0  0  0  0  0  0  0
   -4.0224   -6.6536   -1.7469 O   0  0  0  0  0  0  0  0  0  0  0  0
   -3.3319   -6.4427    0.4771 N   0  0  0  0  0  0  0  0  0  0  0  0
   -2.0296   -7.0956    0.2593 C   0  0  2  0  0  0  0  0  0  0  0  0
   -2.2229   -8.6172    0.2236 C   0  0  0  0  0  0  0  0  0  0  0  0
   -1.0204   -6.7302    1.3349 C   0  0  0  0  0  0  0  0  0  0  0  0
   -1.4267   -6.2350    2.4248 O   0  0  0  0  0  0  0  0  0  0  0  0
    0.3879   -6.9825    1.1913 N   0  0  0  0  0  0  0  0  0  0  0  0
    1.0734   -7.3242   -0.0628 C   0  0  2  0  0  0  0  0  0  0  0  0
    2.0136   -8.4807    0.1825 C   0  0  0  0  0  0  0  0  0  0  0  0
    1.8667   -9.7051   -0.5408 N   0  0  0  0  0  0  0  0  0  0  0  0
    2.9376   -8.3724    1.0360 O   0  0  0  0  0  0  0  0  0  0  0  0
    1.8116   -6.0862   -0.5916 C   0  0  0  0  0  0  0  0  0  0  0  0
    2.7261   -6.4718   -2.1318 S   0  0  0  0  0  0  0  0  0  0  0  0
    3.0682   -4.7422   -2.6187 C   0  0  0  0  0  0  0  0  0  0  0  0
   12.7097   -5.4518    0.3986 H   0  0  0  0  0  0  0  0  0  0  0  0
   13.9878   -4.1931    0.5898 H   0  0  0  0  0  0  0  0  0  0  0  0
   13.0030   -4.7120    2.0210 H   0  0  0  0  0  0  0  0  0  0  0  0
   10.9424   -4.5285   -0.8735 H   0  0  0  0  0  0  0  0  0  0  0  0
    9.5323   -2.2060    0.3268 H   0  0  0  0  0  0  0  0  0  0  0  0
    9.0895   -3.3140   -2.5114 H   0  0  0  0  0  0  0  0  0  0  0  0
    7.9248   -2.4380   -1.4696 H   0  0  0  0  0  0  0  0  0  0  0  0
    7.5680   -3.4521    1.0649 H   0  0  0  0  0  0  0  0  0  0  0  0
    6.8448   -5.0878    1.1079 H   0  0  0  0  0  0  0  0  0  0  0  0
    5.4762   -5.3312   -1.5100 H   0  0  0  0  0  0  0  0  0  0  0  0
    2.2951   -2.4492   -1.3627 H   0  0  0  0  0  0  0  0  0  0  0  0
    5.6958   -2.0176    1.2239 H   0  0  0  0  0  0  0  0  0  0  0  0
    2.3357   -0.6514    0.1895 H   0  0  0  0  0  0  0  0  0  0  0  0
    3.3829   -0.8564    1.6387 H   0  0  0  0  0  0  0  0  0  0  0  0
    2.7319    2.2032    0.4482 H   0  0  0  0  0  0  0  0  0  0  0  0
    3.3254    1.4452    1.9605 H   0  0  0  0  0  0  0  0  0  0  0  0
    5.0995    3.2155    0.1969 H   0  0  0  0  0  0  0  0  0  0  0  0
    5.3524    2.1989    3.0592 H   0  0  0  0  0  0  0  0  0  0  0  0
    7.2859    2.4000    0.0370 H   0  0  0  0  0  0  0  0  0  0  0  0
    8.1796    5.2293    0.9218 H   0  0  0  0  0  0  0  0  0  0  0  0
    8.2713    4.5810   -0.7584 H   0  0  0  0  0  0  0  0  0  0  0  0
    6.6693    4.8396    0.0171 H   0  0  0  0  0  0  0  0  0  0  0  0
    9.7716    3.3305    1.5383 H   0  0  0  0  0  0  0  0  0  0  0  0
    8.6202    0.0450   -0.5957 H   0  0  0  0  0  0  0  0  0  0  0  0
   10.2600    2.3781   -1.7930 H   0  0  0  0  0  0  0  0  0  0  0  0
    9.4828    1.0762   -2.7639 H   0  0  0  0  0  0  0  0  0  0  0  0
    8.4618    2.1866   -1.8217 H   0  0  0  0  0  0  0  0  0  0  0  0
   11.6438    0.3124   -0.9095 H   0  0  0  0  0  0  0  0  0  0  0  0
    3.6872    6.2890    1.2242 H   0  0  0  0  0  0  0  0  0  0  0  0
    3.1912    4.1449   -0.8856 H   0  0  0  0  0  0  0  0  0  0  0  0
    3.0610    6.0502   -2.4808 H   0  0  0  0  0  0  0  0  0  0  0  0
    4.6628    5.9150   -1.6768 H   0  0  0  0  0  0  0  0  0  0  0  0
    3.5080    7.1917   -1.1425 H   0  0  0  0  0  0  0  0  0  0  0  0
    1.0667    7.0398   -1.4578 H   0  0  0  0  0  0  0  0  0  0  0  0
   -0.0425    8.3507    0.0323 H   0  0  0  0  0  0  0  0  0  0  0  0
    1.2508    6.5981    2.1924 H   0  0  0  0  0  0  0  0  0  0  0  0
    0.4533    8.1949    2.4425 H   0  0  0  0  0  0  0  0  0  0  0  0
    1.9363    8.0823    1.4236 H   0  0  0  0  0  0  0  0  0  0  0  0
   -3.2513    7.0569    1.2012 H   0  0  0  0  0  0  0  0  0  0  0  0
   -1.9295    8.4002   -1.1776 H   0  0  0  0  0  0  0  0  0  0  0  0
   -1.5208    9.8716    0.8458 H   0  0  0  0  0  0  0  0  0  0  0  0
   -2.6658   10.6391   -0.2985 H   0  0  0  0  0  0  0  0  0  0  0  0
   -3.2815    9.8518    1.2079 H   0  0  0  0  0  0  0  0  0  0  0  0
   -6.0047    7.8108   -0.4427 H   0  0  0  0  0  0  0  0  0  0  0  0
   -3.8692    5.7165   -1.0245 H   0  0  0  0  0  0  0  0  0  0  0  0
   -5.4510    4.7352   -2.6653 H   0  0  0  0  0  0  0  0  0  0  0  0
   -5.1241    6.4520   -3.0839 H   0  0  0  0  0  0  0  0  0  0  0  0
   -6.6763    6.0094   -2.2835 H   0  0  0  0  0  0  0  0  0  0  0  0
   -5.7987    3.2820   -0.7947 H   0  0  0  0  0  0  0  0  0  0  0  0
   -8.1814    4.0423   -1.0928 H   0  0  0  0  0  0  0  0  0  0  0  0
   -8.2170    5.8771    0.5607 H   0  0  0  0  0  0  0  0  0  0  0  0
   -7.9351    4.7147    1.9229 H   0  0  0  0  0  0  0  0  0  0  0  0
   -9.4731    4.6713    0.9840 H   0  0  0  0  0  0  0  0  0  0  0  0
   -8.1739    0.8914   -1.1699 H   0  0  0  0  0  0  0  0  0  0  0  0
  -10.4729    0.5908   -1.3872 H   0  0  0  0  0  0  0  0  0  0  0  0
  -10.7714    3.5174   -0.5175 H   0  0  0  0  0  0  0  0  0  0  0  0
  -11.9877    2.4803   -1.3462 H   0  0  0  0  0  0  0  0  0  0  0  0
  -10.4655    2.9282   -2.1946 H   0  0  0  0  0  0  0  0  0  0  0  0
  -10.8592   -0.4859    2.2197 H   0  0  0  0  0  0  0  0  0  0  0  0
   -9.4127   -1.1222   -0.3639 H   0  0  0  0  0  0  0  0  0  0  0  0
  -11.8999   -1.4121   -0.7024 H   0  0  0  0  0  0  0  0  0  0  0  0
  -11.9535   -2.5322    0.7055 H   0  0  0  0  0  0  0  0  0  0  0  0
  -11.0329   -2.9814   -0.7845 H   0  0  0  0  0  0  0  0  0  0  0  0
   -8.4305   -4.4174    1.3545 H   0  0  0  0  0  0  0  0  0  0  0  0
   -8.4025   -2.8108   -1.2515 H   0  0  0  0  0  0  0  0  0  0  0  0
   -8.1403   -5.0784   -2.3492 H   0  0  0  0  0  0  0  0  0  0  0  0
   -8.6145   -5.8287   -0.7663 H   0  0  0  0  0  0  0  0  0  0  0  0
   -9.7487   -4.7480   -1.6265 H   0  0  0  0  0  0  0  0  0  0  0  0
   -5.2825   -4.3476    0.9676 H   0  0  0  0  0  0  0  0  0  0  0  0
   -6.3731   -6.2757   -1.1335 H   0  0  0  0  0  0  0  0  0  0  0  0
   -6.1822   -8.0872    0.5659 H   0  0  0  0  0  0  0  0  0  0  0  0
   -5.7688   -6.8677    1.8370 H   0  0  0  0  0  0  0  0  0  0  0  0
   -7.3834   -6.8372    1.0494 H   0  0  0  0  0  0  0  0  0  0  0  0
   -3.5984   -6.1165    1.4334 H   0  0  0  0  0  0  0  0  0  0  0  0
   -1.6377   -6.7456   -0.7203 H   0  0  0  0  0  0  0  0  0  0  0  0
   -2.6671   -8.9660    1.1802 H   0  0  0  0  0  0  0  0  0  0  0  0
   -2.9058   -8.9011   -0.6038 H   0  0  0  0  0  0  0  0  0  0  0  0
   -1.2568   -9.1401    0.0674 H   0  0  0  0  0  0  0  0  0  0  0  0
    0.9909   -6.7535    2.0134 H   0  0  0  0  0  0  0  0  0  0  0  0
    0.3487   -7.6356   -0.8393 H   0  0  0  0  0  0  0  0  0  0  0  0
    2.4853  -10.5190   -0.3333 H   0  0  0  0  0  0  0  0  0  0  0  0
    1.1525   -9.7957   -1.3013 H   0  0  0  0  0  0  0  0  0  0  0  0
    1.0685   -5.2878   -0.7998 H   0  0  0  0  0  0  0  0  0  0  0  0
    2.5260   -5.7185    0.1790 H   0  0  0  0  0  0  0  0  0  0  0  0
    3.6954   -4.7522   -3.5336 H   0  0  0  0  0  0  0  0  0  0  0  0
    2.1104   -4.2471   -2.8840 H   0  0  0  0  0  0  0  0  0  0  0  0
  1  2  1  0
  2  3  2  0
  2  4  1  0
  4  5  1  0
  5  6  1  0
  6  7  1  0
  7  8  1  0
  8  9  1  0
  9 10  2  0
 10 11  1  0
 11 12  2  0
 12 13  1  0
 13 14  2  0
 13 15  1  0
 15 16  1  0
 16 17  1  0
 17 18  1  0
 18 19  1  0
 19 20  1  0
 20 21  2  0
 20 22  1  0
 22 23  1  0
 22 24  1  0
 24 25  1  0
 25 26  2  0
 25 27  1  0
 27 28  1  0
 27 29  1  0
 29 30  1  0
 30 31  2  0
 18 32  1  0
 32 33  2  0
 32 34  1  0
 34 35  1  0
 35 36  1  0
 35 37  1  0
 37 38  2  0
 37 39  1  0
 39 40  1  0
 40 41  1  0
 40 42  1  0
 42 43  2  0
 42 44  1  0
 44 45  1  0
 45 46  1  0
 45 47  1  0
 47 48  2  0
 47 49  1  0
 49 50  1  0
 50 51  1  0
 50 52  1  0
 52 53  2  0
 52 54  1  0
 54 55  1  0
 55 56  1  0
 55 57  1  0
 57 58  2  0
 57 59  1  0
 59 60  1  0
 60 61  1  0
 60 62  1  0
 62 63  2  0
 62 64  1  0
 64 65  1  0
 65 66  1  0
 65 67  1  0
 67 68  2  0
 67 69  1  0
 69 70  1  0
 70 71  1  0
 70 72  1  0
 72 73  2  0
 72 74  1  0
 74 75  1  0
 75 76  1  0
 75 77  1  0
 77 78  2  0
 77 79  1  0
 79 80  1  0
 80 81  1  0
 80 82  1  0
 82 83  2  0
 82 84  1  0
 84 85  1  0
 85 86  1  0
 86 87  1  0
 86 88  2  0
 85 89  1  0
 89 90  1  0
 90 91  1  0
 30  5  1  0
 14  9  1  0
 91 11  1  0
  1 92  1  0
  1 93  1  0
  1 94  1  0
  4 95  1  0
  5 96  1  1
  6 97  1  0
  6 98  1  0
  8 99  1  0
  8100  1  0
 10101  1  0
 12102  1  0
 14103  1  0
 15104  1  0
 15105  1  0
 17106  1  0
 17107  1  0
 18108  1  6
 19109  1  0
 22110  1  6
 23111  1  0
 23112  1  0
 23113  1  0
 24114  1  0
 27115  1  1
 28116  1  0
 28117  1  0
 28118  1  0
 29119  1  0
 34120  1  0
 35121  1  6
 36122  1  0
 36123  1  0
 36124  1  0
 39125  1  0
 40126  1  6
 41127  1  0
 41128  1  0
 41129  1  0
 44130  1  0
 45131  1  6
 46132  1  0
 46133  1  0
 46134  1  0
 49135  1  0
 50136  1  6
 51137  1  0
 51138  1  0
 51139  1  0
 54140  1  0
 55141  1  6
 56142  1  0
 56143  1  0
 56144  1  0
 59145  1  0
 60146  1  6
 61147  1  0
 61148  1  0
 61149  1  0
 64150  1  0
 65151  1  6
 66152  1  0
 66153  1  0
 66154  1  0
 69155  1  0
 70156  1  6
 71157  1  0
 71158  1  0
 71159  1  0
 74160  1  0
 75161  1  6
 76162  1  0
 76163  1  0
 76164  1  0
 79165  1  0
 80166  1  6
 81167  1  0
 81168  1  0
 81169  1  0
 84170  1  0
 85171  1  6
 87172  1  0
 87173  1  0
 89174  1  0
 89175  1  0
 91176  1  0
 91177  1  0
M  END
