
     RDKit          3D

167169  0  0  0  0  0  0  0  0999 V2000
   11.7352   -3.6661    1.2407 C   0  0  0  0  0  0  0  0  0  0  0  0
   11.0255   -2.4127    1.6457 C   0  0  0  0  0  0  0  0  0  0  0  0
   11.4996   -1.7128    2.5862 O   0  0  0  0  0  0  0  0  0  0  0  0
    9.8194   -1.9766    1.0021 N   0  0  0  0  0  0  0  0  0  0  0  0
    9.4109   -2.3794   -0.3549 C   0  0  1  0  0  0  0  0  0  0  0  0
    8.0487   -3.0974   -0.3560 C   0  0  0  0  0  0  0  0  0  0  0  0
    7.8267   -4.2616    1.0514 S   0  0  0  0  0  0  0  0  0  0  0  0
    6.5896   -3.2613    1.9591 C   0  0  0  0  0  0  0  0  0  0  0  0
    5.2912   -3.1251    1.1928 C   0  0  0  0  0  0  0  0  0  0  0  0
    4.6669   -4.2667    0.6564 C   0  0  0  0  0  0  0  0  0  0  0  0
    3.5540   -4.1305   -0.1922 C   0  0  0  0  0  0  0  0  0  0  0  0
    3.0011   -2.8607   -0.4164 C   0  0  0  0  0  0  0  0  0  0  0  0
    3.5839   -1.7171    0.1621 C   0  0  0  0  0  0  0  0  0  0  0  0
    4.7283   -1.8589    0.9663 C   0  0  0  0  0  0  0  0  0  0  0  0
    2.9617   -0.3623   -0.0355 C   0  0  0  0  0  0  0  0  0  0  0  0
    4.1537    0.8591   -0.7142 S   0  0  0  0  0  0  0  0  0  0  0  0
    3.5668    2.2519    0.3151 C   0  0  0  0  0  0  0  0  0  0  0  0
    4.1003    3.5991   -0.2183 C   0  0  2  0  0  0  0  0  0  0  0  0
    5.4107    3.9071    0.3755 N   0  0  0  0  0  0  0  0  0  0  0  0
    6.2485    4.9159   -0.2011 C   0  0  0  0  0  0  0  0  0  0  0  0
    6.0008    6.1325    0.0162 O   0  0  0  0  0  0  0  0  0  0  0  0
    7.4778    4.5459   -0.9891 C   0  0  1  0  0  0  0  0  0  0  0  0
    8.7351    4.8957   -0.1710 C   0  0  0  0  0  0  0  0  0  0  0  0
    7.4349    3.1283   -1.3906 N   0  0  0  0  0  0  0  0  0  0  0  0
    8.5964    2.2982   -1.4515 C   0  0  0  0  0  0  0  0  0  0  0  0
    9.4103    2.4545   -2.4070 O   0  0  0  0  0  0  0  0  0  0  0  0
    8.8403    1.2012   -0.4357 C   0  0  1  0  0  0  0  0  0  0  0  0
    8.1151    1.4526    0.9005 C   0  0  0  0  0  0  0  0  0  0  0  0
    8.4266   -0.0923   -0.9929 N   0  0  0  0  0  0  0  0  0  0  0  0
    9.3851   -1.1396   -1.2238 C   0  0  0  0  0  0  0  0  0  0  0  0
   10.2839   -0.9762   -2.0933 O   0  0  0  0  0  0  0  0  0  0  0  0
    3.1319    4.7211    0.0673 C   0  0  0  0  0  0  0  0  0  0  0  0
    3.1468    5.3142    1.1819 O   0  0  0  0  0  0  0  0  0  0  0  0
    2.2249    5.1425   -0.9620 N   0  0  0  0  0  0  0  0  0  0  0  0
    1.8897    6.5451   -1.2157 C   0  0  2  0  0  0  0  0  0  0  0  0
    3.1533    7.3194   -1.6132 C   0  0  0  0  0  0  0  0  0  0  0  0
    1.1796    7.1671   -0.0303 C   0  0  0  0  0  0  0  0  0  0  0  0
    1.8021    7.9621    0.7304 O   0  0  0  0  0  0  0  0  0  0  0  0
   -0.2102    6.9149    0.2478 N   0  0  0  0  0  0  0  0  0  0  0  0
   -1.0170    5.8698   -0.4022 C   0  0  2  0  0  0  0  0  0  0  0  0
   -1.8428    6.4469   -1.5598 C   0  0  0  0  0  0  0  0  0  0  0  0
   -1.8362    5.1166    0.6323 C   0  0  0  0  0  0  0  0  0  0  0  0
   -1.3183    4.1034    1.1728 O   0  0  0  0  0  0  0  0  0  0  0  0
   -3.1812    5.4732    0.9900 N   0  0  0  0  0  0  0  0  0  0  0  0
   -3.6298    6.8435    1.2558 C   0  0  2  0  0  0  0  0  0  0  0  0
   -3.7712    7.0635    2.7661 C   0  0  0  0  0  0  0  0  0  0  0  0
   -4.9340    7.0922    0.5491 C   0  0  0  0  0  0  0  0  0  0  0  0
   -4.9942    7.9470   -0.3739 O   0  0  0  0  0  0  0  0  0  0  0  0
   -6.1110    6.3609    0.9125 N   0  0  0  0  0  0  0  0  0  0  0  0
   -6.4997    5.1380    0.1993 C   0  0  2  0  0  0  0  0  0  0  0  0
   -7.4619    5.5037   -0.9336 C   0  0  0  0  0  0  0  0  0  0  0  0
   -7.1399    4.1594    1.1683 C   0  0  0  0  0  0  0  0  0  0  0  0
   -7.1251    4.4129    2.4034 O   0  0  0  0  0  0  0  0  0  0  0  0
   -7.8036    2.9680    0.7213 N   0  0  0  0  0  0  0  0  0  0  0  0
   -7.2892    2.0661   -0.3216 C   0  0  2  0  0  0  0  0  0  0  0  0
   -8.4001    1.7412   -1.3251 C   0  0  0  0  0  0  0  0  0  0  0  0
   -6.7421    0.8061    0.3027 C   0  0  0  0  0  0  0  0  0  0  0  0
   -5.6323    0.3491   -0.0846 O   0  0  0  0  0  0  0  0  0  0  0  0
   -7.4327    0.1441    1.3708 N   0  0  0  0  0  0  0  0  0  0  0  0
   -8.6279   -0.6802    1.1489 C   0  0  2  0  0  0  0  0  0  0  0  0
   -9.8406   -0.0283    1.8250 C   0  0  0  0  0  0  0  0  0  0  0  0
   -8.4095   -2.0670    1.7195 C   0  0  0  0  0  0  0  0  0  0  0  0
   -8.1536   -2.1805    2.9517 O   0  0  0  0  0  0  0  0  0  0  0  0
   -8.5139   -3.2666    0.9295 N   0  0  0  0  0  0  0  0  0  0  0  0
   -8.5902   -3.3032   -0.5390 C   0  0  2  0  0  0  0  0  0  0  0  0
   -8.9601   -4.7005   -1.0457 C   0  0  0  0  0  0  0  0  0  0  0  0
   -7.2914   -2.8307   -1.1642 C   0  0  0  0  0  0  0  0  0  0  0  0
   -7.3497   -2.2092   -2.2554 O   0  0  0  0  0  0  0  0  0  0  0  0
   -5.9997   -3.0457   -0.5606 N   0  0  0  0  0  0  0  0  0  0  0  0
   -5.6205   -4.2306    0.2176 C   0  0  2  0  0  0  0  0  0  0  0  0
   -4.9690   -3.7952    1.5339 C   0  0  0  0  0  0  0  0  0  0  0  0
   -4.7584   -5.1508   -0.6260 C   0  0  0  0  0  0  0  0  0  0  0  0
   -5.1584   -5.4818   -1.7746 O   0  0  0  0  0  0  0  0  0  0  0  0
   -3.5548   -5.7463   -0.0964 N   0  0  0  0  0  0  0  0  0  0  0  0
   -3.0639   -7.0851   -0.4514 C   0  0  2  0  0  0  0  0  0  0  0  0
   -4.1999   -8.1101   -0.5811 C   0  0  0  0  0  0  0  0  0  0  0  0
   -2.1088   -7.5562    0.6314 C   0  0  0  0  0  0  0  0  0  0  0  0
   -2.5522   -7.6708    1.8034 O   0  0  0  0  0  0  0  0  0  0  0  0
   -0.7167   -7.8393    0.3956 N   0  0  0  0  0  0  0  0  0  0  0  0
   -0.0402   -7.7522   -0.9054 C   0  0  2  0  0  0  0  0  0  0  0  0
   -0.3762   -8.9682   -1.7246 C   0  0  0  0  0  0  0  0  0  0  0  0
   -0.8700   -8.8355   -3.0590 N   0  0  0  0  0  0  0  0  0  0  0  0
   -0.2360  -10.1212   -1.2244 O   0  0  0  0  0  0  0  0  0  0  0  0
    1.4800   -7.6370   -0.7076 C   0  0  0  0  0  0  0  0  0  0  0  0
    1.8710   -6.1859    0.3454 S   0  0  0  0  0  0  0  0  0  0  0  0
    2.9688   -5.3467   -0.8465 C   0  0  0  0  0  0  0  0  0  0  0  0
   12.5374   -3.9089    1.9634 H   0  0  0  0  0  0  0  0  0  0  0  0
   11.0156   -4.5110    1.2307 H   0  0  0  0  0  0  0  0  0  0  0  0
   12.1899   -3.5306    0.2407 H   0  0  0  0  0  0  0  0  0  0  0  0
    9.2574   -1.2560    1.5047 H   0  0  0  0  0  0  0  0  0  0  0  0
   10.1563   -3.0856   -0.7879 H   0  0  0  0  0  0  0  0  0  0  0  0
    7.9726   -3.6984   -1.2915 H   0  0  0  0  0  0  0  0  0  0  0  0
    7.2094   -2.3896   -0.4016 H   0  0  0  0  0  0  0  0  0  0  0  0
    7.0291   -2.2687    2.1750 H   0  0  0  0  0  0  0  0  0  0  0  0
    6.3838   -3.7594    2.9279 H   0  0  0  0  0  0  0  0  0  0  0  0
    5.0853   -5.2494    0.8384 H   0  0  0  0  0  0  0  0  0  0  0  0
    2.1185   -2.7522   -1.0475 H   0  0  0  0  0  0  0  0  0  0  0  0
    5.2054   -0.9733    1.3838 H   0  0  0  0  0  0  0  0  0  0  0  0
    2.1132   -0.4246   -0.7490 H   0  0  0  0  0  0  0  0  0  0  0  0
    2.5663   -0.0296    0.9423 H   0  0  0  0  0  0  0  0  0  0  0  0
    3.9219    2.0782    1.3495 H   0  0  0  0  0  0  0  0  0  0  0  0
    2.4555    2.2533    0.3101 H   0  0  0  0  0  0  0  0  0  0  0  0
    4.2137    3.5299   -1.3222 H   0  0  0  0  0  0  0  0  0  0  0  0
    5.5298    3.7479    1.4060 H   0  0  0  0  0  0  0  0  0  0  0  0
    7.4758    5.1582   -1.9166 H   0  0  0  0  0  0  0  0  0  0  0  0
    9.6605    4.6429   -0.7375 H   0  0  0  0  0  0  0  0  0  0  0  0
    8.7286    4.3500    0.7979 H   0  0  0  0  0  0  0  0  0  0  0  0
    8.7512    5.9817    0.0308 H   0  0  0  0  0  0  0  0  0  0  0  0
    6.5934    2.8037   -1.9241 H   0  0  0  0  0  0  0  0  0  0  0  0
    9.9349    1.1812   -0.2233 H   0  0  0  0  0  0  0  0  0  0  0  0
    7.9686    0.4987    1.4538 H   0  0  0  0  0  0  0  0  0  0  0  0
    7.0951    1.8801    0.7702 H   0  0  0  0  0  0  0  0  0  0  0  0
    8.7213    2.1310    1.5450 H   0  0  0  0  0  0  0  0  0  0  0  0
    7.4114   -0.3213   -0.9749 H   0  0  0  0  0  0  0  0  0  0  0  0
    1.8849    4.4235   -1.6347 H   0  0  0  0  0  0  0  0  0  0  0  0
    1.2080    6.5936   -2.0837 H   0  0  0  0  0  0  0  0  0  0  0  0
    2.8916    8.3568   -1.9138 H   0  0  0  0  0  0  0  0  0  0  0  0
    3.6477    6.8113   -2.4702 H   0  0  0  0  0  0  0  0  0  0  0  0
    3.8700    7.3627   -0.7670 H   0  0  0  0  0  0  0  0  0  0  0  0
   -0.6527    7.4819    1.0049 H   0  0  0  0  0  0  0  0  0  0  0  0
   -0.3506    5.1078   -0.8581 H   0  0  0  0  0  0  0  0  0  0  0  0
   -2.5320    5.6787   -1.9662 H   0  0  0  0  0  0  0  0  0  0  0  0
   -1.1595    6.7572   -2.3787 H   0  0  0  0  0  0  0  0  0  0  0  0
   -2.4178    7.3413   -1.2561 H   0  0  0  0  0  0  0  0  0  0  0  0
   -3.7861    4.6978    1.3386 H   0  0  0  0  0  0  0  0  0  0  0  0
   -2.8918    7.5794    0.8949 H   0  0  0  0  0  0  0  0  0  0  0  0
   -4.4888    6.3376    3.2063 H   0  0  0  0  0  0  0  0  0  0  0  0
   -4.1264    8.0969    2.9673 H   0  0  0  0  0  0  0  0  0  0  0  0
   -2.7850    6.9273    3.2620 H   0  0  0  0  0  0  0  0  0  0  0  0
   -6.8483    6.8876    1.4339 H   0  0  0  0  0  0  0  0  0  0  0  0
   -5.5951    4.6610   -0.2410 H   0  0  0  0  0  0  0  0  0  0  0  0
   -7.0882    6.3960   -1.4890 H   0  0  0  0  0  0  0  0  0  0  0  0
   -8.4749    5.7343   -0.5374 H   0  0  0  0  0  0  0  0  0  0  0  0
   -7.5372    4.6726   -1.6585 H   0  0  0  0  0  0  0  0  0  0  0  0
   -8.5706    2.6155    1.3299 H   0  0  0  0  0  0  0  0  0  0  0  0
   -6.4685    2.5592   -0.8887 H   0  0  0  0  0  0  0  0  0  0  0  0
   -8.0608    0.9612   -2.0363 H   0  0  0  0  0  0  0  0  0  0  0  0
   -8.6691    2.6451   -1.9041 H   0  0  0  0  0  0  0  0  0  0  0  0
   -9.3161    1.3848   -0.8134 H   0  0  0  0  0  0  0  0  0  0  0  0
   -7.1047    0.3061    2.3471 H   0  0  0  0  0  0  0  0  0  0  0  0
   -8.8385   -0.7373    0.0615 H   0  0  0  0  0  0  0  0  0  0  0  0
  -10.0775    0.9441    1.3543 H   0  0  0  0  0  0  0  0  0  0  0  0
  -10.7469   -0.6657    1.7126 H   0  0  0  0  0  0  0  0  0  0  0  0
   -9.6496    0.1432    2.9062 H   0  0  0  0  0  0  0  0  0  0  0  0
   -8.5799   -4.1661    1.4581 H   0  0  0  0  0  0  0  0  0  0  0  0
   -9.4124   -2.6366   -0.8750 H   0  0  0  0  0  0  0  0  0  0  0  0
   -9.0925   -4.6807   -2.1478 H   0  0  0  0  0  0  0  0  0  0  0  0
   -8.1930   -5.4609   -0.7997 H   0  0  0  0  0  0  0  0  0  0  0  0
   -9.9273   -5.0184   -0.5919 H   0  0  0  0  0  0  0  0  0  0  0  0
   -5.2213   -2.4321   -0.8839 H   0  0  0  0  0  0  0  0  0  0  0  0
   -6.5175   -4.8188    0.4978 H   0  0  0  0  0  0  0  0  0  0  0  0
   -4.7693   -4.6803    2.1767 H   0  0  0  0  0  0  0  0  0  0  0  0
   -4.0170   -3.2477    1.3547 H   0  0  0  0  0  0  0  0  0  0  0  0
   -5.6501   -3.1147    2.0833 H   0  0  0  0  0  0  0  0  0  0  0  0
   -2.9539   -5.1571    0.5295 H   0  0  0  0  0  0  0  0  0  0  0  0
   -2.5606   -7.0217   -1.4394 H   0  0  0  0  0  0  0  0  0  0  0  0
   -4.8165   -7.9132   -1.4857 H   0  0  0  0  0  0  0  0  0  0  0  0
   -3.7876   -9.1376   -0.6835 H   0  0  0  0  0  0  0  0  0  0  0  0
   -4.8647   -8.0772    0.3117 H   0  0  0  0  0  0  0  0  0  0  0  0
   -0.1595   -8.1519    1.2237 H   0  0  0  0  0  0  0  0  0  0  0  0
   -0.3620   -6.8250   -1.4431 H   0  0  0  0  0  0  0  0  0  0  0  0
   -1.1764   -9.6805   -3.5921 H   0  0  0  0  0  0  0  0  0  0  0  0
   -0.9469   -7.8963   -3.5135 H   0  0  0  0  0  0  0  0  0  0  0  0
    1.8629   -8.5470   -0.1903 H   0  0  0  0  0  0  0  0  0  0  0  0
    1.9802   -7.5831   -1.7016 H   0  0  0  0  0  0  0  0  0  0  0  0
    2.3791   -5.0705   -1.7495 H   0  0  0  0  0  0  0  0  0  0  0  0
    3.7763   -6.0344   -1.1709 H   0  0  0  0  0  0  0  0  0  0  0  0
  1  2  1  0
  2  3  2  0
  2  4  1  0
  4  5  1  0
  5  6  1  0
  6  7  1  0
  7  8  1  0
  8  9  1  0
  9 10  2  0
 10 11  1  0
 11 12  2  0
 12 13  1  0
 13 14  2  0
 13 15  1  0
 15 16  1  0
 16 17  1  0
 17 18  1  0
 18 19  1  0
 19 20  1  0
 20 21  2  0
 20 22  1  0
 22 23  1  0
 22 24  1  0
 24 25  1  0
 25 26  2  0
 25 27  1  0
 27 28  1  0
 27 29  1  0
 29 30  1  0
 30 31  2  0
 18 32  1  0
 32 33  2  0
 32 34  1  0
 34 35  1  0
 35 36  1  0
 35 37  1  0
 37 38  2  0
 37 39  1  0
 39 40  1  0
 40 41  1  0
 40 42  1  0
 42 43  2  0
 42 44  1  0
 44 45  1  0
 45 46  1  0
 45 47  1  0
 47 48  2  0
 47 49  1  0
 49 50  1  0
 50 51  1  0
 50 52  1  0
 52 53  2  0
 52 54  1  0
 54 55  1  0
 55 56  1  0
 55 57  1  0
 57 58  2  0
 57 59  1  0
 59 60  1  0
 60 61  1  0
 60 62  1  0
 62 63  2  0
 62 64  1  0
 64 65  1  0
 65 66  1  0
 65 67  1  0
 67 68  2  0
 67 69  1  0
 69 70  1  0
 70 71  1  0
 70 72  1  0
 72 73  2  0
 72 74  1  0
 74 75  1  0
 75 76  1  0
 75 77  1  0
 77 78  2  0
 77 79  1  0
 79 80  1  0
 80 81  1  0
 81 82  1  0
 81 83  2  0
 80 84  1  0
 84 85  1  0
 85 86  1  0
 30  5  1  0
 14  9  1  0
 86 11  1  0
  1 87  1  0
  1 88  1  0
  1 89  1  0
  4 90  1  0
  5 91  1  6
  6 92  1  0
  6 93  1  0
  8 94  1  0
  8 95  1  0
 10 96  1  0
 12 97  1  0
 14 98  1  0
 15 99  1  0
 15100  1  0
 17101  1  0
 17102  1  0
 18103  1  6
 19104  1  0
 22105  1  6
 23106  1  0
 23107  1  0
 23108  1  0
 24109  1  0
 27110  1  1
 28111  1  0
 28112  1  0
 28113  1  0
 29114  1  0
 34115  1  0
 35116  1  6
 36117  1  0
 36118  1  0
 36119  1  0
 39120  1  0
 40121  1  6
 41122  1  0
 41123  1  0
 41124  1  0
 44125  1  0
 45126  1  6
 46127  1  0
 46128  1  0
 46129  1  0
 49130  1  0
 50131  1  6
 51132  1  0
 51133  1  0
 51134  1  0
 54135  1  0
 55136  1  6
 56137  1  0
 56138  1  0
 56139  1  0
 59140  1  0
 60141  1  6
 61142  1  0
 61143  1  0
 61144  1  0
 64145  1  0
 65146  1  6
 66147  1  0
 66148  1  0
 66149  1  0
 69150  1  0
 70151  1  1
 71152  1  0
 71153  1  0
 71154  1  0
 74155  1  0
 75156  1  6
 76157  1  0
 76158  1  0
 76159  1  0
 79160  1  0
 80161  1  6
 82162  1  0
 82163  1  0
 84164  1  0
 84165  1  0
 86166  1  0
 86167  1  0
M  END
