
     RDKit          3D

177179  0  0  0  0  0  0  0  0999 V2000
   12.5301    3.0358    2.7940 C   0  0  0  0  0  0  0  0  0  0  0  0
   11.4509    2.3203    2.0517 C   0  0  0  0  0  0  0  0  0  0  0  0
   10.5513    1.7243    2.7072 O   0  0  0  0  0  0  0  0  0  0  0  0
   11.4342    2.3100    0.6132 N   0  0  0  0  0  0  0  0  0  0  0  0
   10.5561    1.4257   -0.1712 C   0  0  1  0  0  0  0  0  0  0  0  0
    9.7524    2.2442   -1.2093 C   0  0  0  0  0  0  0  0  0  0  0  0
    7.9599    1.9216   -1.0726 S   0  0  0  0  0  0  0  0  0  0  0  0
    7.6883    3.0061    0.3699 C   0  0  0  0  0  0  0  0  0  0  0  0
    6.2419    2.9580    0.7666 C   0  0  0  0  0  0  0  0  0  0  0  0
    5.4375    4.1014    0.6789 C   0  0  0  0  0  0  0  0  0  0  0  0
    4.0772    4.0442    1.0213 C   0  0  0  0  0  0  0  0  0  0  0  0
    3.5311    2.8283    1.4696 C   0  0  0  0  0  0  0  0  0  0  0  0
    4.3402    1.6877    1.5925 C   0  0  0  0  0  0  0  0  0  0  0  0
    5.6926    1.7564    1.2346 C   0  0  0  0  0  0  0  0  0  0  0  0
    3.7640    0.4009    2.1181 C   0  0  0  0  0  0  0  0  0  0  0  0
    2.4988   -0.2622    0.9795 S   0  0  0  0  0  0  0  0  0  0  0  0
    3.6217   -0.8489   -0.3499 C   0  0  0  0  0  0  0  0  0  0  0  0
    4.3906   -2.1441   -0.0169 C   0  0  2  0  0  0  0  0  0  0  0  0
    4.9413   -2.7081   -1.2551 N   0  0  0  0  0  0  0  0  0  0  0  0
    6.2902   -3.1564   -1.4880 C   0  0  0  0  0  0  0  0  0  0  0  0
    6.5964   -3.5045   -2.6621 O   0  0  0  0  0  0  0  0  0  0  0  0
    7.3460   -3.2572   -0.3972 C   0  0  1  0  0  0  0  0  0  0  0  0
    6.9563   -4.3147    0.6409 C   0  0  0  0  0  0  0  0  0  0  0  0
    8.6338   -3.6571   -0.9874 N   0  0  0  0  0  0  0  0  0  0  0  0
    9.9045   -3.0108   -0.8156 C   0  0  0  0  0  0  0  0  0  0  0  0
   10.9363   -3.6022   -1.2411 O   0  0  0  0  0  0  0  0  0  0  0  0
   10.0686   -1.6888   -0.0951 C   0  0  1  0  0  0  0  0  0  0  0  0
   10.1277   -1.9332    1.4167 C   0  0  0  0  0  0  0  0  0  0  0  0
   11.3082   -1.0185   -0.5243 N   0  0  0  0  0  0  0  0  0  0  0  0
   11.4100    0.3800   -0.8452 C   0  0  0  0  0  0  0  0  0  0  0  0
   12.3033    0.7490   -1.6583 O   0  0  0  0  0  0  0  0  0  0  0  0
    3.4942   -3.1601    0.6510 C   0  0  0  0  0  0  0  0  0  0  0  0
    3.6004   -3.3494    1.8957 O   0  0  0  0  0  0  0  0  0  0  0  0
    2.4514   -3.8272   -0.0648 N   0  0  0  0  0  0  0  0  0  0  0  0
    2.7196   -5.0239   -0.8644 C   0  0  2  0  0  0  0  0  0  0  0  0
    1.9702   -4.9440   -2.1999 C   0  0  0  0  0  0  0  0  0  0  0  0
    2.3661   -6.2654   -0.0855 C   0  0  0  0  0  0  0  0  0  0  0  0
    3.2885   -6.8961    0.5002 O   0  0  0  0  0  0  0  0  0  0  0  0
    1.0148   -6.7634   -0.0423 N   0  0  0  0  0  0  0  0  0  0  0  0
    0.7178   -8.1648    0.2970 C   0  0  2  0  0  0  0  0  0  0  0  0
    1.2835   -9.0812   -0.8026 C   0  0  0  0  0  0  0  0  0  0  0  0
   -0.7722   -8.3992    0.4438 C   0  0  0  0  0  0  0  0  0  0  0  0
   -1.2374   -9.5666    0.3496 O   0  0  0  0  0  0  0  0  0  0  0  0
   -1.6673   -7.3164    0.7283 N   0  0  0  0  0  0  0  0  0  0  0  0
   -2.9075   -7.1439   -0.0422 C   0  0  2  0  0  0  0  0  0  0  0  0
   -2.5603   -6.9221   -1.5200 C   0  0  0  0  0  0  0  0  0  0  0  0
   -3.7431   -5.9829    0.4662 C   0  0  0  0  0  0  0  0  0  0  0  0
   -3.3972   -5.3524    1.4994 O   0  0  0  0  0  0  0  0  0  0  0  0
   -4.8498   -5.4870   -0.3038 N   0  0  0  0  0  0  0  0  0  0  0  0
   -6.1905   -6.0830   -0.2830 C   0  0  2  0  0  0  0  0  0  0  0  0
   -6.1637   -7.6150   -0.2798 C   0  0  0  0  0  0  0  0  0  0  0  0
   -6.9603   -5.5964   -1.4955 C   0  0  0  0  0  0  0  0  0  0  0  0
   -6.4885   -5.8527   -2.6399 O   0  0  0  0  0  0  0  0  0  0  0  0
   -8.1836   -4.8502   -1.4099 N   0  0  0  0  0  0  0  0  0  0  0  0
   -8.8441   -4.4412   -0.1609 C   0  0  2  0  0  0  0  0  0  0  0  0
   -9.6106   -5.6216    0.4486 C   0  0  0  0  0  0  0  0  0  0  0  0
   -9.7937   -3.2919   -0.4282 C   0  0  0  0  0  0  0  0  0  0  0  0
  -10.8240   -3.5089   -1.1172 O   0  0  0  0  0  0  0  0  0  0  0  0
   -9.5677   -1.9552    0.0614 N   0  0  0  0  0  0  0  0  0  0  0  0
   -8.4109   -1.5239    0.8573 C   0  0  2  0  0  0  0  0  0  0  0  0
   -8.5898   -1.9173    2.3290 C   0  0  0  0  0  0  0  0  0  0  0  0
   -8.2271   -0.0278    0.7483 C   0  0  0  0  0  0  0  0  0  0  0  0
   -7.1655    0.4247    0.2307 O   0  0  0  0  0  0  0  0  0  0  0  0
   -9.2562    0.8690    1.1950 N   0  0  0  0  0  0  0  0  0  0  0  0
   -9.0716    2.3212    1.2505 C   0  0  2  0  0  0  0  0  0  0  0  0
  -10.2792    2.9716    1.9412 C   0  0  0  0  0  0  0  0  0  0  0  0
   -8.8910    2.8792   -0.1404 C   0  0  0  0  0  0  0  0  0  0  0  0
   -9.7906    2.7160   -1.0056 O   0  0  0  0  0  0  0  0  0  0  0  0
   -7.6306    3.4493   -0.5360 N   0  0  0  0  0  0  0  0  0  0  0  0
   -7.2652    4.8672   -0.3571 C   0  0  2  0  0  0  0  0  0  0  0  0
   -7.9946    5.5165    0.8271 C   0  0  0  0  0  0  0  0  0  0  0  0
   -7.5419    5.6465   -1.6248 C   0  0  0  0  0  0  0  0  0  0  0  0
   -8.3873    5.1919   -2.4444 O   0  0  0  0  0  0  0  0  0  0  0  0
   -6.9187    6.9076   -1.9191 N   0  0  0  0  0  0  0  0  0  0  0  0
   -5.8975    7.5818   -1.1074 C   0  0  2  0  0  0  0  0  0  0  0  0
   -6.4089    8.9634   -0.6888 C   0  0  0  0  0  0  0  0  0  0  0  0
   -4.6162    7.7376   -1.8943 C   0  0  0  0  0  0  0  0  0  0  0  0
   -4.6781    7.9671   -3.1328 O   0  0  0  0  0  0  0  0  0  0  0  0
   -3.3347    7.8033   -1.2508 N   0  0  0  0  0  0  0  0  0  0  0  0
   -2.8886    6.8963   -0.1882 C   0  0  2  0  0  0  0  0  0  0  0  0
   -2.3750    7.7108    0.9995 C   0  0  0  0  0  0  0  0  0  0  0  0
   -1.8082    5.9912   -0.7137 C   0  0  0  0  0  0  0  0  0  0  0  0
   -1.9535    4.7399   -0.6575 O   0  0  0  0  0  0  0  0  0  0  0  0
   -0.6661    6.5349   -1.3679 N   0  0  0  0  0  0  0  0  0  0  0  0
    0.6078    6.7217   -0.6786 C   0  0  2  0  0  0  0  0  0  0  0  0
    1.0277    8.1684   -0.8034 C   0  0  0  0  0  0  0  0  0  0  0  0
    1.1888    8.7800   -2.0811 N   0  0  0  0  0  0  0  0  0  0  0  0
    1.2093    8.8489    0.2421 O   0  0  0  0  0  0  0  0  0  0  0  0
    1.6587    5.7630   -1.2695 C   0  0  0  0  0  0  0  0  0  0  0  0
    3.3581    6.1001   -0.6696 S   0  0  0  0  0  0  0  0  0  0  0  0
    3.2241    5.2867    0.9657 C   0  0  0  0  0  0  0  0  0  0  0  0
   12.0768    3.8035    3.4551 H   0  0  0  0  0  0  0  0  0  0  0  0
   13.0922    2.3099    3.4189 H   0  0  0  0  0  0  0  0  0  0  0  0
   13.2387    3.5293    2.0942 H   0  0  0  0  0  0  0  0  0  0  0  0
   12.1425    2.8865    0.1025 H   0  0  0  0  0  0  0  0  0  0  0  0
    9.8552    0.9235    0.5175 H   0  0  0  0  0  0  0  0  0  0  0  0
   10.0511    1.9884   -2.2470 H   0  0  0  0  0  0  0  0  0  0  0  0
    9.9409    3.3359   -1.0914 H   0  0  0  0  0  0  0  0  0  0  0  0
    8.3128    2.6676    1.2239 H   0  0  0  0  0  0  0  0  0  0  0  0
    7.9950    4.0452    0.1136 H   0  0  0  0  0  0  0  0  0  0  0  0
    5.8647    5.0302    0.3233 H   0  0  0  0  0  0  0  0  0  0  0  0
    2.4879    2.7738    1.7513 H   0  0  0  0  0  0  0  0  0  0  0  0
    6.3166    0.8730    1.3251 H   0  0  0  0  0  0  0  0  0  0  0  0
    4.5514   -0.3619    2.2991 H   0  0  0  0  0  0  0  0  0  0  0  0
    3.2784    0.5961    3.0974 H   0  0  0  0  0  0  0  0  0  0  0  0
    4.3390   -0.0459   -0.6364 H   0  0  0  0  0  0  0  0  0  0  0  0
    2.9761   -1.0231   -1.2380 H   0  0  0  0  0  0  0  0  0  0  0  0
    5.2125   -1.8820    0.6765 H   0  0  0  0  0  0  0  0  0  0  0  0
    4.2859   -2.7966   -2.0666 H   0  0  0  0  0  0  0  0  0  0  0  0
    7.4299   -2.2756    0.1009 H   0  0  0  0  0  0  0  0  0  0  0  0
    7.7825   -4.4419    1.3748 H   0  0  0  0  0  0  0  0  0  0  0  0
    6.7625   -5.2923    0.1503 H   0  0  0  0  0  0  0  0  0  0  0  0
    6.0556   -4.0146    1.2065 H   0  0  0  0  0  0  0  0  0  0  0  0
    8.6508   -4.5676   -1.5071 H   0  0  0  0  0  0  0  0  0  0  0  0
    9.2004   -1.0397   -0.3343 H   0  0  0  0  0  0  0  0  0  0  0  0
    9.1669   -2.3398    1.7860 H   0  0  0  0  0  0  0  0  0  0  0  0
   10.3276   -0.9789    1.9482 H   0  0  0  0  0  0  0  0  0  0  0  0
   10.9432   -2.6498    1.6612 H   0  0  0  0  0  0  0  0  0  0  0  0
   12.1855   -1.5805   -0.5995 H   0  0  0  0  0  0  0  0  0  0  0  0
    1.4678   -3.6636    0.2504 H   0  0  0  0  0  0  0  0  0  0  0  0
    3.8098   -5.0832   -1.1061 H   0  0  0  0  0  0  0  0  0  0  0  0
    0.9109   -4.6428   -2.0461 H   0  0  0  0  0  0  0  0  0  0  0  0
    2.0064   -5.9269   -2.7322 H   0  0  0  0  0  0  0  0  0  0  0  0
    2.4536   -4.1906   -2.8591 H   0  0  0  0  0  0  0  0  0  0  0  0
    0.2598   -6.1613   -0.4229 H   0  0  0  0  0  0  0  0  0  0  0  0
    1.1971   -8.4233    1.2639 H   0  0  0  0  0  0  0  0  0  0  0  0
    0.7840   -8.8611   -1.7733 H   0  0  0  0  0  0  0  0  0  0  0  0
    2.3749   -8.9307   -0.9210 H   0  0  0  0  0  0  0  0  0  0  0  0
    1.1188  -10.1537   -0.5464 H   0  0  0  0  0  0  0  0  0  0  0  0
   -1.5644   -6.8900    1.6821 H   0  0  0  0  0  0  0  0  0  0  0  0
   -3.4962   -8.0775    0.0417 H   0  0  0  0  0  0  0  0  0  0  0  0
   -1.9676   -7.7744   -1.9152 H   0  0  0  0  0  0  0  0  0  0  0  0
   -3.4828   -6.8427   -2.1334 H   0  0  0  0  0  0  0  0  0  0  0  0
   -1.9687   -5.9854   -1.6370 H   0  0  0  0  0  0  0  0  0  0  0  0
   -4.8192   -4.4577   -0.4871 H   0  0  0  0  0  0  0  0  0  0  0  0
   -6.6777   -5.7694    0.6597 H   0  0  0  0  0  0  0  0  0  0  0  0
   -5.7456   -7.9881    0.6760 H   0  0  0  0  0  0  0  0  0  0  0  0
   -5.5705   -8.0032   -1.1320 H   0  0  0  0  0  0  0  0  0  0  0  0
   -7.1995   -8.0137   -0.3672 H   0  0  0  0  0  0  0  0  0  0  0  0
   -8.5735   -4.4918   -2.3147 H   0  0  0  0  0  0  0  0  0  0  0  0
   -8.0730   -4.1221    0.5591 H   0  0  0  0  0  0  0  0  0  0  0  0
  -10.0801   -5.3115    1.4096 H   0  0  0  0  0  0  0  0  0  0  0  0
   -8.9302   -6.4681    0.6592 H   0  0  0  0  0  0  0  0  0  0  0  0
  -10.4033   -5.9761   -0.2457 H   0  0  0  0  0  0  0  0  0  0  0  0
  -10.2929   -1.2414   -0.1937 H   0  0  0  0  0  0  0  0  0  0  0  0
   -7.4864   -2.0023    0.4637 H   0  0  0  0  0  0  0  0  0  0  0  0
   -7.7185   -1.5672    2.9250 H   0  0  0  0  0  0  0  0  0  0  0  0
   -8.6619   -3.0167    2.4466 H   0  0  0  0  0  0  0  0  0  0  0  0
   -9.5131   -1.4696    2.7519 H   0  0  0  0  0  0  0  0  0  0  0  0
  -10.1515    0.4554    1.5377 H   0  0  0  0  0  0  0  0  0  0  0  0
   -8.1690    2.5382    1.8581 H   0  0  0  0  0  0  0  0  0  0  0  0
  -10.3963    2.5489    2.9637 H   0  0  0  0  0  0  0  0  0  0  0  0
  -11.2068    2.7735    1.3672 H   0  0  0  0  0  0  0  0  0  0  0  0
  -10.1405    4.0651    2.0410 H   0  0  0  0  0  0  0  0  0  0  0  0
   -7.0853    2.9152   -1.2468 H   0  0  0  0  0  0  0  0  0  0  0  0
   -6.1741    4.8830   -0.1515 H   0  0  0  0  0  0  0  0  0  0  0  0
   -9.0853    5.5746    0.6245 H   0  0  0  0  0  0  0  0  0  0  0  0
   -7.6206    6.5469    0.9978 H   0  0  0  0  0  0  0  0  0  0  0  0
   -7.8100    4.9333    1.7530 H   0  0  0  0  0  0  0  0  0  0  0  0
   -7.1951    7.3736   -2.8169 H   0  0  0  0  0  0  0  0  0  0  0  0
   -5.7022    7.0297   -0.1731 H   0  0  0  0  0  0  0  0  0  0  0  0
   -6.5774    9.6061   -1.5822 H   0  0  0  0  0  0  0  0  0  0  0  0
   -7.3681    8.8663   -0.1377 H   0  0  0  0  0  0  0  0  0  0  0  0
   -5.6711    9.4634   -0.0239 H   0  0  0  0  0  0  0  0  0  0  0  0
   -2.6097    8.4166   -1.6982 H   0  0  0  0  0  0  0  0  0  0  0  0
   -3.7226    6.2610    0.1730 H   0  0  0  0  0  0  0  0  0  0  0  0
   -1.9781    7.0356    1.7867 H   0  0  0  0  0  0  0  0  0  0  0  0
   -3.2081    8.2984    1.4323 H   0  0  0  0  0  0  0  0  0  0  0  0
   -1.5720    8.4044    0.6852 H   0  0  0  0  0  0  0  0  0  0  0  0
   -0.7199    6.6894   -2.4031 H   0  0  0  0  0  0  0  0  0  0  0  0
    0.4814    6.4863    0.4016 H   0  0  0  0  0  0  0  0  0  0  0  0
    1.0904    8.2237   -2.9593 H   0  0  0  0  0  0  0  0  0  0  0  0
    1.3916    9.8009   -2.1577 H   0  0  0  0  0  0  0  0  0  0  0  0
    1.6716    5.8633   -2.3750 H   0  0  0  0  0  0  0  0  0  0  0  0
    1.3760    4.7115   -1.0383 H   0  0  0  0  0  0  0  0  0  0  0  0
    3.5896    5.9979    1.7341 H   0  0  0  0  0  0  0  0  0  0  0  0
    2.1687    5.0589    1.2239 H   0  0  0  0  0  0  0  0  0  0  0  0
  1  2  1  0
  2  3  2  0
  2  4  1  0
  4  5  1  0
  5  6  1  0
  6  7  1  0
  7  8  1  0
  8  9  1  0
  9 10  2  0
 10 11  1  0
 11 12  2  0
 12 13  1  0
 13 14  2  0
 13 15  1  0
 15 16  1  0
 16 17  1  0
 17 18  1  0
 18 19  1  0
 19 20  1  0
 20 21  2  0
 20 22  1  0
 22 23  1  0
 22 24  1  0
 24 25  1  0
 25 26  2  0
 25 27  1  0
 27 28  1  0
 27 29  1  0
 29 30  1  0
 30 31  2  0
 18 32  1  0
 32 33  2  0
 32 34  1  0
 34 35  1  0
 35 36  1  0
 35 37  1  0
 37 38  2  0
 37 39  1  0
 39 40  1  0
 40 41  1  0
 40 42  1  0
 42 43  2  0
 42 44  1  0
 44 45  1  0
 45 46  1  0
 45 47  1  0
 47 48  2  0
 47 49  1  0
 49 50  1  0
 50 51  1  0
 50 52  1  0
 52 53  2  0
 52 54  1  0
 54 55  1  0
 55 56  1  0
 55 57  1  0
 57 58  2  0
 57 59  1  0
 59 60  1  0
 60 61  1  0
 60 62  1  0
 62 63  2  0
 62 64  1  0
 64 65  1  0
 65 66  1  0
 65 67  1  0
 67 68  2  0
 67 69  1  0
 69 70  1  0
 70 71  1  0
 70 72  1  0
 72 73  2  0
 72 74  1  0
 74 75  1  0
 75 76  1  0
 75 77  1  0
 77 78  2  0
 77 79  1  0
 79 80  1  0
 80 81  1  0
 80 82  1  0
 82 83  2  0
 82 84  1  0
 84 85  1  0
 85 86  1  0
 86 87  1  0
 86 88  2  0
 85 89  1  0
 89 90  1  0
 90 91  1  0
 30  5  1  0
 14  9  1  0
 91 11  1  0
  1 92  1  0
  1 93  1  0
  1 94  1  0
  4 95  1  0
  5 96  1  1
  6 97  1  0
  6 98  1  0
  8 99  1  0
  8100  1  0
 10101  1  0
 12102  1  0
 14103  1  0
 15104  1  0
 15105  1  0
 17106  1  0
 17107  1  0
 18108  1  1
 19109  1  0
 22110  1  1
 23111  1  0
 23112  1  0
 23113  1  0
 24114  1  0
 27115  1  1
 28116  1  0
 28117  1  0
 28118  1  0
 29119  1  0
 34120  1  0
 35121  1  6
 36122  1  0
 36123  1  0
 36124  1  0
 39125  1  0
 40126  1  1
 41127  1  0
 41128  1  0
 41129  1  0
 44130  1  0
 45131  1  6
 46132  1  0
 46133  1  0
 46134  1  0
 49135  1  0
 50136  1  1
 51137  1  0
 51138  1  0
 51139  1  0
 54140  1  0
 55141  1  1
 56142  1  0
 56143  1  0
 56144  1  0
 59145  1  0
 60146  1  6
 61147  1  0
 61148  1  0
 61149  1  0
 64150  1  0
 65151  1  1
 66152  1  0
 66153  1  0
 66154  1  0
 69155  1  0
 70156  1  1
 71157  1  0
 71158  1  0
 71159  1  0
 74160  1  0
 75161  1  1
 76162  1  0
 76163  1  0
 76164  1  0
 79165  1  0
 80166  1  1
 81167  1  0
 81168  1  0
 81169  1  0
 84170  1  0
 85171  1  1
 87172  1  0
 87173  1  0
 89174  1  0
 89175  1  0
 91176  1  0
 91177  1  0
M  END
