
     RDKit          3D

177179  0  0  0  0  0  0  0  0999 V2000
   12.2197    3.5687    3.0571 C   0  0  0  0  0  0  0  0  0  0  0  0
   11.4212    3.2845    1.8223 C   0  0  0  0  0  0  0  0  0  0  0  0
   11.3541    4.1639    0.9156 O   0  0  0  0  0  0  0  0  0  0  0  0
   10.7276    2.0359    1.6791 N   0  0  0  0  0  0  0  0  0  0  0  0
    9.8289    1.7525    0.5509 C   0  0  2  0  0  0  0  0  0  0  0  0
    8.4585    2.4035    0.8091 C   0  0  0  0  0  0  0  0  0  0  0  0
    7.6976    1.8088    2.3654 S   0  0  0  0  0  0  0  0  0  0  0  0
    6.4506    3.1384    2.4795 C   0  0  0  0  0  0  0  0  0  0  0  0
    5.3691    2.9512    1.4472 C   0  0  0  0  0  0  0  0  0  0  0  0
    5.2004    3.8796    0.4126 C   0  0  0  0  0  0  0  0  0  0  0  0
    4.1193    3.7782   -0.4771 C   0  0  0  0  0  0  0  0  0  0  0  0
    3.2268    2.7002   -0.3539 C   0  0  0  0  0  0  0  0  0  0  0  0
    3.4110    1.7291    0.6470 C   0  0  0  0  0  0  0  0  0  0  0  0
    4.4781    1.8729    1.5523 C   0  0  0  0  0  0  0  0  0  0  0  0
    2.4131    0.6134    0.8308 C   0  0  0  0  0  0  0  0  0  0  0  0
    3.2615   -1.0006    1.0113 S   0  0  0  0  0  0  0  0  0  0  0  0
    2.8306   -1.6506   -0.6352 C   0  0  0  0  0  0  0  0  0  0  0  0
    3.6292   -2.9364   -0.9230 C   0  0  2  0  0  0  0  0  0  0  0  0
    5.0576   -2.6197   -1.0724 N   0  0  0  0  0  0  0  0  0  0  0  0
    6.0740   -3.6245   -0.9484 C   0  0  0  0  0  0  0  0  0  0  0  0
    5.9216   -4.5494   -0.1091 O   0  0  0  0  0  0  0  0  0  0  0  0
    7.3005   -3.6232   -1.8249 C   0  0  1  0  0  0  0  0  0  0  0  0
    7.4625   -2.3914   -2.7312 C   0  0  0  0  0  0  0  0  0  0  0  0
    8.5176   -3.8551   -1.0371 N   0  0  0  0  0  0  0  0  0  0  0  0
    9.2048   -2.8703   -0.2459 C   0  0  0  0  0  0  0  0  0  0  0  0
   10.4649   -2.9050   -0.2201 O   0  0  0  0  0  0  0  0  0  0  0  0
    8.4735   -1.9126    0.6677 C   0  0  1  0  0  0  0  0  0  0  0  0
    8.9407   -2.0667    2.1240 C   0  0  0  0  0  0  0  0  0  0  0  0
    8.5808   -0.5131    0.2388 N   0  0  0  0  0  0  0  0  0  0  0  0
    9.7993    0.2577    0.2990 C   0  0  0  0  0  0  0  0  0  0  0  0
   10.9092   -0.3201    0.1375 O   0  0  0  0  0  0  0  0  0  0  0  0
    3.1355   -3.6092   -2.1866 C   0  0  0  0  0  0  0  0  0  0  0  0
    2.7707   -2.8854   -3.1519 O   0  0  0  0  0  0  0  0  0  0  0  0
    3.2011   -5.0309   -2.3990 N   0  0  0  0  0  0  0  0  0  0  0  0
    3.1787   -6.0633   -1.3550 C   0  0  2  0  0  0  0  0  0  0  0  0
    4.2277   -7.1408   -1.6620 C   0  0  0  0  0  0  0  0  0  0  0  0
    1.8023   -6.6576   -1.2514 C   0  0  0  0  0  0  0  0  0  0  0  0
    1.4335   -7.5277   -2.0880 O   0  0  0  0  0  0  0  0  0  0  0  0
    0.9007   -6.2227   -0.2129 N   0  0  0  0  0  0  0  0  0  0  0  0
   -0.2405   -7.0224    0.2635 C   0  0  2  0  0  0  0  0  0  0  0  0
    0.2497   -8.4153    0.6882 C   0  0  0  0  0  0  0  0  0  0  0  0
   -1.3507   -7.0704   -0.7820 C   0  0  0  0  0  0  0  0  0  0  0  0
   -1.1545   -6.5299   -1.9036 O   0  0  0  0  0  0  0  0  0  0  0  0
   -2.6416   -7.6596   -0.5476 N   0  0  0  0  0  0  0  0  0  0  0  0
   -3.1223   -8.2302    0.7161 C   0  0  2  0  0  0  0  0  0  0  0  0
   -3.0481   -9.7637    0.6247 C   0  0  0  0  0  0  0  0  0  0  0  0
   -4.5369   -7.7560    0.9888 C   0  0  0  0  0  0  0  0  0  0  0  0
   -5.4932   -8.5820    0.9029 O   0  0  0  0  0  0  0  0  0  0  0  0
   -4.8311   -6.4168    1.4212 N   0  0  0  0  0  0  0  0  0  0  0  0
   -3.9170   -5.2757    1.3035 C   0  0  2  0  0  0  0  0  0  0  0  0
   -4.0119   -4.3428    2.5139 C   0  0  0  0  0  0  0  0  0  0  0  0
   -4.1018   -4.5530   -0.0197 C   0  0  0  0  0  0  0  0  0  0  0  0
   -3.0937   -4.4499   -0.7694 O   0  0  0  0  0  0  0  0  0  0  0  0
   -5.3415   -3.9888   -0.4971 N   0  0  0  0  0  0  0  0  0  0  0  0
   -6.6186   -3.8952    0.2200 C   0  0  2  0  0  0  0  0  0  0  0  0
   -7.6856   -4.7035   -0.5234 C   0  0  0  0  0  0  0  0  0  0  0  0
   -6.9786   -2.4436    0.3964 C   0  0  0  0  0  0  0  0  0  0  0  0
   -6.4598   -1.8056    1.3527 O   0  0  0  0  0  0  0  0  0  0  0  0
   -7.7461   -1.7226   -0.5803 N   0  0  0  0  0  0  0  0  0  0  0  0
   -9.2121   -1.7094   -0.5172 C   0  0  2  0  0  0  0  0  0  0  0  0
   -9.7707   -1.5901   -1.9407 C   0  0  0  0  0  0  0  0  0  0  0  0
   -9.6526   -0.6021    0.4108 C   0  0  0  0  0  0  0  0  0  0  0  0
   -9.3816   -0.6976    1.6335 O   0  0  0  0  0  0  0  0  0  0  0  0
  -10.3250    0.5724   -0.0662 N   0  0  0  0  0  0  0  0  0  0  0  0
  -10.3154    1.8112    0.7147 C   0  0  2  0  0  0  0  0  0  0  0  0
  -11.3808    2.7945    0.2200 C   0  0  0  0  0  0  0  0  0  0  0  0
   -8.9267    2.4155    0.7042 C   0  0  0  0  0  0  0  0  0  0  0  0
   -8.0196    1.8726    1.3925 O   0  0  0  0  0  0  0  0  0  0  0  0
   -8.6243    3.5848   -0.0732 N   0  0  0  0  0  0  0  0  0  0  0  0
   -7.6699    4.6101    0.3678 C   0  0  2  0  0  0  0  0  0  0  0  0
   -7.9429    5.0013    1.8268 C   0  0  0  0  0  0  0  0  0  0  0  0
   -7.8060    5.8371   -0.5094 C   0  0  0  0  0  0  0  0  0  0  0  0
   -8.9427    6.3559   -0.6559 O   0  0  0  0  0  0  0  0  0  0  0  0
   -6.6800    6.4555   -1.1569 N   0  0  0  0  0  0  0  0  0  0  0  0
   -5.3718    6.6372   -0.5015 C   0  0  2  0  0  0  0  0  0  0  0  0
   -5.5131    7.6098    0.6864 C   0  0  0  0  0  0  0  0  0  0  0  0
   -4.3276    7.1615   -1.4863 C   0  0  0  0  0  0  0  0  0  0  0  0
   -4.6206    7.2872   -2.7070 O   0  0  0  0  0  0  0  0  0  0  0  0
   -3.0254    7.5897   -1.0511 N   0  0  0  0  0  0  0  0  0  0  0  0
   -2.1796    6.8378   -0.1173 C   0  0  2  0  0  0  0  0  0  0  0  0
   -1.8688    7.6885    1.1197 C   0  0  0  0  0  0  0  0  0  0  0  0
   -0.8900    6.4421   -0.8046 C   0  0  0  0  0  0  0  0  0  0  0  0
   -0.5815    5.2248   -0.8890 O   0  0  0  0  0  0  0  0  0  0  0  0
    0.0090    7.4502   -1.2991 N   0  0  0  0  0  0  0  0  0  0  0  0
    1.3888    7.1676   -1.7259 C   0  0  1  0  0  0  0  0  0  0  0  0
    1.9981    8.4156   -2.3300 C   0  0  0  0  0  0  0  0  0  0  0  0
    2.0460    9.6395   -1.5982 N   0  0  0  0  0  0  0  0  0  0  0  0
    2.4862    8.3741   -3.4987 O   0  0  0  0  0  0  0  0  0  0  0  0
    2.2244    6.6753   -0.5265 C   0  0  0  0  0  0  0  0  0  0  0  0
    4.0073    6.4996   -0.9391 S   0  0  0  0  0  0  0  0  0  0  0  0
    3.9441    4.7870   -1.5844 C   0  0  0  0  0  0  0  0  0  0  0  0
   12.2017    2.7071    3.7554 H   0  0  0  0  0  0  0  0  0  0  0  0
   11.8054    4.4600    3.5739 H   0  0  0  0  0  0  0  0  0  0  0  0
   13.2745    3.7706    2.7757 H   0  0  0  0  0  0  0  0  0  0  0  0
   10.7601    1.3560    2.4721 H   0  0  0  0  0  0  0  0  0  0  0  0
   10.2438    2.2141   -0.3660 H   0  0  0  0  0  0  0  0  0  0  0  0
    8.6107    3.4994    0.8788 H   0  0  0  0  0  0  0  0  0  0  0  0
    7.7733    2.2366   -0.0417 H   0  0  0  0  0  0  0  0  0  0  0  0
    5.9910    3.1018    3.4937 H   0  0  0  0  0  0  0  0  0  0  0  0
    6.9490    4.1314    2.3719 H   0  0  0  0  0  0  0  0  0  0  0  0
    5.9132    4.6825    0.2909 H   0  0  0  0  0  0  0  0  0  0  0  0
    2.3821    2.6193   -1.0392 H   0  0  0  0  0  0  0  0  0  0  0  0
    4.6078    1.1515    2.3496 H   0  0  0  0  0  0  0  0  0  0  0  0
    1.8302    0.8053    1.7588 H   0  0  0  0  0  0  0  0  0  0  0  0
    1.6802    0.5894   -0.0040 H   0  0  0  0  0  0  0  0  0  0  0  0
    1.7374   -1.8750   -0.6544 H   0  0  0  0  0  0  0  0  0  0  0  0
    3.0511   -0.8808   -1.4080 H   0  0  0  0  0  0  0  0  0  0  0  0
    3.4859   -3.5826   -0.0408 H   0  0  0  0  0  0  0  0  0  0  0  0
    5.3147   -1.6706   -1.4338 H   0  0  0  0  0  0  0  0  0  0  0  0
    7.1737   -4.4877   -2.5098 H   0  0  0  0  0  0  0  0  0  0  0  0
    6.5783   -2.2868   -3.3945 H   0  0  0  0  0  0  0  0  0  0  0  0
    8.3598   -2.5161   -3.3668 H   0  0  0  0  0  0  0  0  0  0  0  0
    7.5748   -1.4691   -2.1248 H   0  0  0  0  0  0  0  0  0  0  0  0
    9.0165   -4.7651   -1.1929 H   0  0  0  0  0  0  0  0  0  0  0  0
    7.3946   -2.1807    0.6854 H   0  0  0  0  0  0  0  0  0  0  0  0
    8.7568   -3.1053    2.4719 H   0  0  0  0  0  0  0  0  0  0  0  0
   10.0306   -1.8517    2.2171 H   0  0  0  0  0  0  0  0  0  0  0  0
    8.3815   -1.3631    2.7830 H   0  0  0  0  0  0  0  0  0  0  0  0
    7.6797   -0.0168    0.0655 H   0  0  0  0  0  0  0  0  0  0  0  0
    3.0635   -5.3678   -3.3825 H   0  0  0  0  0  0  0  0  0  0  0  0
    3.4495   -5.6503   -0.3692 H   0  0  0  0  0  0  0  0  0  0  0  0
    4.0188   -7.6229   -2.6402 H   0  0  0  0  0  0  0  0  0  0  0  0
    4.2205   -7.9230   -0.8710 H   0  0  0  0  0  0  0  0  0  0  0  0
    5.2359   -6.6834   -1.7082 H   0  0  0  0  0  0  0  0  0  0  0  0
    1.1675   -5.3799    0.3476 H   0  0  0  0  0  0  0  0  0  0  0  0
   -0.6451   -6.5156    1.1632 H   0  0  0  0  0  0  0  0  0  0  0  0
    0.3215   -9.0998   -0.1837 H   0  0  0  0  0  0  0  0  0  0  0  0
    1.2527   -8.3366    1.1533 H   0  0  0  0  0  0  0  0  0  0  0  0
   -0.4136   -8.8507    1.4540 H   0  0  0  0  0  0  0  0  0  0  0  0
   -3.2809   -7.7480   -1.3694 H   0  0  0  0  0  0  0  0  0  0  0  0
   -2.4920   -7.9090    1.5667 H   0  0  0  0  0  0  0  0  0  0  0  0
   -3.3621  -10.2232    1.5937 H   0  0  0  0  0  0  0  0  0  0  0  0
   -2.0206  -10.1032    0.4001 H   0  0  0  0  0  0  0  0  0  0  0  0
   -3.7119  -10.1366   -0.1855 H   0  0  0  0  0  0  0  0  0  0  0  0
   -5.7989   -6.2580    1.7876 H   0  0  0  0  0  0  0  0  0  0  0  0
   -2.8785   -5.6495    1.3325 H   0  0  0  0  0  0  0  0  0  0  0  0
   -3.7527   -4.9079    3.4351 H   0  0  0  0  0  0  0  0  0  0  0  0
   -3.2885   -3.5031    2.4145 H   0  0  0  0  0  0  0  0  0  0  0  0
   -5.0208   -3.9145    2.6673 H   0  0  0  0  0  0  0  0  0  0  0  0
   -5.3342   -3.5952   -1.4625 H   0  0  0  0  0  0  0  0  0  0  0  0
   -6.5503   -4.3373    1.2261 H   0  0  0  0  0  0  0  0  0  0  0  0
   -7.3319   -5.7472   -0.6652 H   0  0  0  0  0  0  0  0  0  0  0  0
   -8.6225   -4.7452    0.0712 H   0  0  0  0  0  0  0  0  0  0  0  0
   -7.8906   -4.2703   -1.5274 H   0  0  0  0  0  0  0  0  0  0  0  0
   -7.2883   -0.8755   -0.9831 H   0  0  0  0  0  0  0  0  0  0  0  0
   -9.5856   -2.6641   -0.0947 H   0  0  0  0  0  0  0  0  0  0  0  0
   -9.4495   -0.6368   -2.4129 H   0  0  0  0  0  0  0  0  0  0  0  0
  -10.8789   -1.6508   -1.9251 H   0  0  0  0  0  0  0  0  0  0  0  0
   -9.3903   -2.4345   -2.5522 H   0  0  0  0  0  0  0  0  0  0  0  0
  -11.1323    0.4251   -0.7292 H   0  0  0  0  0  0  0  0  0  0  0  0
  -10.5730    1.5806    1.7749 H   0  0  0  0  0  0  0  0  0  0  0  0
  -12.3945    2.3681    0.3828 H   0  0  0  0  0  0  0  0  0  0  0  0
  -11.3213    3.7515    0.7872 H   0  0  0  0  0  0  0  0  0  0  0  0
  -11.2578    3.0099   -0.8593 H   0  0  0  0  0  0  0  0  0  0  0  0
   -8.9417    3.5768   -1.0783 H   0  0  0  0  0  0  0  0  0  0  0  0
   -6.6454    4.1888    0.2970 H   0  0  0  0  0  0  0  0  0  0  0  0
   -7.7587    4.1493    2.5068 H   0  0  0  0  0  0  0  0  0  0  0  0
   -7.2766    5.8288    2.1450 H   0  0  0  0  0  0  0  0  0  0  0  0
   -9.0050    5.3262    1.9460 H   0  0  0  0  0  0  0  0  0  0  0  0
   -6.9118    7.0504   -1.9856 H   0  0  0  0  0  0  0  0  0  0  0  0
   -5.0101    5.6605   -0.1322 H   0  0  0  0  0  0  0  0  0  0  0  0
   -5.1177    8.6206    0.4576 H   0  0  0  0  0  0  0  0  0  0  0  0
   -6.5714    7.7435    0.9852 H   0  0  0  0  0  0  0  0  0  0  0  0
   -4.9728    7.2032    1.5653 H   0  0  0  0  0  0  0  0  0  0  0  0
   -2.6119    8.4190   -1.5316 H   0  0  0  0  0  0  0  0  0  0  0  0
   -2.7060    5.9204    0.2132 H   0  0  0  0  0  0  0  0  0  0  0  0
   -2.8065    7.9818    1.6329 H   0  0  0  0  0  0  0  0  0  0  0  0
   -1.2494    7.1060    1.8344 H   0  0  0  0  0  0  0  0  0  0  0  0
   -1.3264    8.6147    0.8446 H   0  0  0  0  0  0  0  0  0  0  0  0
   -0.3287    8.4360   -1.2944 H   0  0  0  0  0  0  0  0  0  0  0  0
    1.3592    6.3694   -2.4966 H   0  0  0  0  0  0  0  0  0  0  0  0
    1.6578    9.6952   -0.6267 H   0  0  0  0  0  0  0  0  0  0  0  0
    2.4374   10.5003   -2.0381 H   0  0  0  0  0  0  0  0  0  0  0  0
    1.8316    5.7178   -0.1308 H   0  0  0  0  0  0  0  0  0  0  0  0
    2.1539    7.4172    0.2998 H   0  0  0  0  0  0  0  0  0  0  0  0
    2.9964    4.6140   -2.1389 H   0  0  0  0  0  0  0  0  0  0  0  0
    4.7763    4.6568   -2.3071 H   0  0  0  0  0  0  0  0  0  0  0  0
  1  2  1  0
  2  3  2  0
  2  4  1  0
  4  5  1  0
  5  6  1  0
  6  7  1  0
  7  8  1  0
  8  9  1  0
  9 10  2  0
 10 11  1  0
 11 12  2  0
 12 13  1  0
 13 14  2  0
 13 15  1  0
 15 16  1  0
 16 17  1  0
 17 18  1  0
 18 19  1  0
 19 20  1  0
 20 21  2  0
 20 22  1  0
 22 23  1  0
 22 24  1  0
 24 25  1  0
 25 26  2  0
 25 27  1  0
 27 28  1  0
 27 29  1  0
 29 30  1  0
 30 31  2  0
 18 32  1  0
 32 33  2  0
 32 34  1  0
 34 35  1  0
 35 36  1  0
 35 37  1  0
 37 38  2  0
 37 39  1  0
 39 40  1  0
 40 41  1  0
 40 42  1  0
 42 43  2  0
 42 44  1  0
 44 45  1  0
 45 46  1  0
 45 47  1  0
 47 48  2  0
 47 49  1  0
 49 50  1  0
 50 51  1  0
 50 52  1  0
 52 53  2  0
 52 54  1  0
 54 55  1  0
 55 56  1  0
 55 57  1  0
 57 58  2  0
 57 59  1  0
 59 60  1  0
 60 61  1  0
 60 62  1  0
 62 63  2  0
 62 64  1  0
 64 65  1  0
 65 66  1  0
 65 67  1  0
 67 68  2  0
 67 69  1  0
 69 70  1  0
 70 71  1  0
 70 72  1  0
 72 73  2  0
 72 74  1  0
 74 75  1  0
 75 76  1  0
 75 77  1  0
 77 78  2  0
 77 79  1  0
 79 80  1  0
 80 81  1  0
 80 82  1  0
 82 83  2  0
 82 84  1  0
 84 85  1  0
 85 86  1  0
 86 87  1  0
 86 88  2  0
 85 89  1  0
 89 90  1  0
 90 91  1  0
 30  5  1  0
 14  9  1  0
 91 11  1  0
  1 92  1  0
  1 93  1  0
  1 94  1  0
  4 95  1  0
  5 96  1  6
  6 97  1  0
  6 98  1  0
  8 99  1  0
  8100  1  0
 10101  1  0
 12102  1  0
 14103  1  0
 15104  1  0
 15105  1  0
 17106  1  0
 17107  1  0
 18108  1  1
 19109  1  0
 22110  1  6
 23111  1  0
 23112  1  0
 23113  1  0
 24114  1  0
 27115  1  1
 28116  1  0
 28117  1  0
 28118  1  0
 29119  1  0
 34120  1  0
 35121  1  1
 36122  1  0
 36123  1  0
 36124  1  0
 39125  1  0
 40126  1  1
 41127  1  0
 41128  1  0
 41129  1  0
 44130  1  0
 45131  1  1
 46132  1  0
 46133  1  0
 46134  1  0
 49135  1  0
 50136  1  6
 51137  1  0
 51138  1  0
 51139  1  0
 54140  1  0
 55141  1  1
 56142  1  0
 56143  1  0
 56144  1  0
 59145  1  0
 60146  1  1
 61147  1  0
 61148  1  0
 61149  1  0
 64150  1  0
 65151  1  1
 66152  1  0
 66153  1  0
 66154  1  0
 69155  1  0
 70156  1  1
 71157  1  0
 71158  1  0
 71159  1  0
 74160  1  0
 75161  1  1
 76162  1  0
 76163  1  0
 76164  1  0
 79165  1  0
 80166  1  1
 81167  1  0
 81168  1  0
 81169  1  0
 84170  1  0
 85171  1  6
 87172  1  0
 87173  1  0
 89174  1  0
 89175  1  0
 91176  1  0
 91177  1  0
M  END
