
     RDKit          3D

127129  0  0  0  0  0  0  0  0999 V2000
    8.5209    5.3057    1.0755 C   0  0  0  0  0  0  0  0  0  0  0  0
    8.2250    5.3103   -0.3928 C   0  0  0  0  0  0  0  0  0  0  0  0
    8.6496    6.2612   -1.1008 O   0  0  0  0  0  0  0  0  0  0  0  0
    7.4600    4.2605   -1.0110 N   0  0  0  0  0  0  0  0  0  0  0  0
    6.8798    3.1215   -0.2770 C   0  0  1  0  0  0  0  0  0  0  0  0
    5.5207    3.4811    0.3901 C   0  0  0  0  0  0  0  0  0  0  0  0
    4.7558    5.0248   -0.2413 S   0  0  0  0  0  0  0  0  0  0  0  0
    3.8390    4.2738   -1.6259 C   0  0  0  0  0  0  0  0  0  0  0  0
    2.4681    3.8365   -1.1842 C   0  0  0  0  0  0  0  0  0  0  0  0
    2.0568    2.5028   -1.3488 C   0  0  0  0  0  0  0  0  0  0  0  0
    0.7490    2.1154   -1.0192 C   0  0  0  0  0  0  0  0  0  0  0  0
   -0.1565    3.0838   -0.5446 C   0  0  0  0  0  0  0  0  0  0  0  0
    0.2498    4.4116   -0.3347 C   0  0  0  0  0  0  0  0  0  0  0  0
    1.5615    4.7810   -0.6745 C   0  0  0  0  0  0  0  0  0  0  0  0
   -0.7285    5.4793    0.0946 C   0  0  0  0  0  0  0  0  0  0  0  0
   -1.9213    4.8907    1.3617 S   0  0  0  0  0  0  0  0  0  0  0  0
   -3.3787    4.8686    0.2566 C   0  0  0  0  0  0  0  0  0  0  0  0
   -4.6637    4.5364    1.0289 C   0  0  1  0  0  0  0  0  0  0  0  0
   -5.0697    5.6668    1.9438 C   0  0  0  0  0  0  0  0  0  0  0  0
   -5.3616    6.9704    1.4290 N   0  0  0  0  0  0  0  0  0  0  0  0
   -5.1854    5.4555    3.1771 O   0  0  0  0  0  0  0  0  0  0  0  0
   -5.7415    4.2628    0.0729 N   0  0  0  0  0  0  0  0  0  0  0  0
   -6.3722    2.9867   -0.1375 C   0  0  0  0  0  0  0  0  0  0  0  0
   -7.5025    2.9680   -0.6951 O   0  0  0  0  0  0  0  0  0  0  0  0
   -5.7501    1.6786    0.3105 C   0  0  1  0  0  0  0  0  0  0  0  0
   -6.4140    1.1770    1.5920 C   0  0  0  0  0  0  0  0  0  0  0  0
   -5.8054    0.6571   -0.7471 N   0  0  0  0  0  0  0  0  0  0  0  0
   -7.0212    0.1384   -1.3004 C   0  0  0  0  0  0  0  0  0  0  0  0
   -7.5449    0.7184   -2.2912 O   0  0  0  0  0  0  0  0  0  0  0  0
   -7.5972   -1.1637   -0.8045 C   0  0  1  0  0  0  0  0  0  0  0  0
   -9.0793   -1.0000   -0.4522 C   0  0  0  0  0  0  0  0  0  0  0  0
   -7.4516   -2.1838   -1.8507 N   0  0  0  0  0  0  0  0  0  0  0  0
   -6.6354   -3.3701   -1.7570 C   0  0  0  0  0  0  0  0  0  0  0  0
   -6.2176   -3.8937   -2.8298 O   0  0  0  0  0  0  0  0  0  0  0  0
   -6.3029   -4.0258   -0.4330 C   0  0  1  0  0  0  0  0  0  0  0  0
   -7.5724   -4.4897    0.2864 C   0  0  0  0  0  0  0  0  0  0  0  0
   -5.4223   -5.1836   -0.6453 N   0  0  0  0  0  0  0  0  0  0  0  0
   -3.9892   -5.1767   -0.5168 C   0  0  0  0  0  0  0  0  0  0  0  0
   -3.3570   -6.2438   -0.7381 O   0  0  0  0  0  0  0  0  0  0  0  0
   -3.2163   -3.9507   -0.0891 C   0  0  1  0  0  0  0  0  0  0  0  0
   -3.2204   -3.8238    1.4439 C   0  0  0  0  0  0  0  0  0  0  0  0
   -1.8636   -3.9799   -0.6551 N   0  0  0  0  0  0  0  0  0  0  0  0
   -0.6518   -4.1483    0.0978 C   0  0  0  0  0  0  0  0  0  0  0  0
   -0.5238   -5.1516    0.8496 O   0  0  0  0  0  0  0  0  0  0  0  0
    0.5087   -3.2016   -0.1076 C   0  0  1  0  0  0  0  0  0  0  0  0
   -0.0222   -1.7731   -0.3147 C   0  0  0  0  0  0  0  0  0  0  0  0
    1.3197   -0.5329   -0.4488 S   0  0  0  0  0  0  0  0  0  0  0  0
    0.2717    0.7187   -1.2858 C   0  0  0  0  0  0  0  0  0  0  0  0
    1.4098   -3.2414    1.0534 N   0  0  0  0  0  0  0  0  0  0  0  0
    2.3465   -4.3000    1.3290 C   0  0  0  0  0  0  0  0  0  0  0  0
    2.5661   -4.6036    2.5318 O   0  0  0  0  0  0  0  0  0  0  0  0
    3.1223   -5.0401    0.2601 C   0  0  1  0  0  0  0  0  0  0  0  0
    2.2877   -6.1178   -0.4435 C   0  0  0  0  0  0  0  0  0  0  0  0
    3.7197   -4.1122   -0.7108 N   0  0  0  0  0  0  0  0  0  0  0  0
    5.0398   -3.5543   -0.6036 C   0  0  0  0  0  0  0  0  0  0  0  0
    5.5674   -3.0482   -1.6309 O   0  0  0  0  0  0  0  0  0  0  0  0
    5.8289   -3.5640    0.6876 C   0  0  1  0  0  0  0  0  0  0  0  0
    6.7242   -4.8069    0.7526 C   0  0  0  0  0  0  0  0  0  0  0  0
    6.6585   -2.3556    0.7693 N   0  0  0  0  0  0  0  0  0  0  0  0
    6.1207   -1.0594    1.0731 C   0  0  0  0  0  0  0  0  0  0  0  0
    4.9547   -0.9594    1.5398 O   0  0  0  0  0  0  0  0  0  0  0  0
    6.8965    0.2081    0.7676 C   0  0  1  0  0  0  0  0  0  0  0  0
    8.3946    0.0662    1.0692 C   0  0  0  0  0  0  0  0  0  0  0  0
    6.7002    0.5655   -0.6444 N   0  0  0  0  0  0  0  0  0  0  0  0
    6.7494    1.9042   -1.1722 C   0  0  0  0  0  0  0  0  0  0  0  0
    6.6666    2.0522   -2.4224 O   0  0  0  0  0  0  0  0  0  0  0  0
    9.1463    4.4258    1.3320 H   0  0  0  0  0  0  0  0  0  0  0  0
    7.5709    5.2691    1.6487 H   0  0  0  0  0  0  0  0  0  0  0  0
    9.0711    6.2235    1.3648 H   0  0  0  0  0  0  0  0  0  0  0  0
    7.1978    4.4007   -2.0152 H   0  0  0  0  0  0  0  0  0  0  0  0
    7.5893    2.8495    0.5225 H   0  0  0  0  0  0  0  0  0  0  0  0
    5.6980    3.6390    1.4756 H   0  0  0  0  0  0  0  0  0  0  0  0
    4.7970    2.6410    0.3219 H   0  0  0  0  0  0  0  0  0  0  0  0
    4.4139    3.4327   -2.0696 H   0  0  0  0  0  0  0  0  0  0  0  0
    3.7215    5.0394   -2.4251 H   0  0  0  0  0  0  0  0  0  0  0  0
    2.7474    1.7732   -1.7567 H   0  0  0  0  0  0  0  0  0  0  0  0
   -1.1773    2.7959   -0.3405 H   0  0  0  0  0  0  0  0  0  0  0  0
    1.8735    5.8093   -0.5613 H   0  0  0  0  0  0  0  0  0  0  0  0
   -1.2400    5.8739   -0.8066 H   0  0  0  0  0  0  0  0  0  0  0  0
   -0.1788    6.3255    0.5598 H   0  0  0  0  0  0  0  0  0  0  0  0
   -3.2156    4.0930   -0.5282 H   0  0  0  0  0  0  0  0  0  0  0  0
   -3.4842    5.8541   -0.2552 H   0  0  0  0  0  0  0  0  0  0  0  0
   -4.4727    3.6479    1.6652 H   0  0  0  0  0  0  0  0  0  0  0  0
   -5.5778    7.7548    2.0857 H   0  0  0  0  0  0  0  0  0  0  0  0
   -5.3118    7.1780    0.4060 H   0  0  0  0  0  0  0  0  0  0  0  0
   -6.0872    5.0565   -0.5075 H   0  0  0  0  0  0  0  0  0  0  0  0
   -4.6727    1.8365    0.5294 H   0  0  0  0  0  0  0  0  0  0  0  0
   -7.5028    1.0593    1.4450 H   0  0  0  0  0  0  0  0  0  0  0  0
   -6.2410    1.8977    2.4146 H   0  0  0  0  0  0  0  0  0  0  0  0
   -5.9814    0.1958    1.8863 H   0  0  0  0  0  0  0  0  0  0  0  0
   -4.9057    0.3283   -1.1721 H   0  0  0  0  0  0  0  0  0  0  0  0
   -7.0558   -1.4619    0.1141 H   0  0  0  0  0  0  0  0  0  0  0  0
   -9.6349   -0.5211   -1.2866 H   0  0  0  0  0  0  0  0  0  0  0  0
   -9.5443   -1.9880   -0.2615 H   0  0  0  0  0  0  0  0  0  0  0  0
   -9.1891   -0.3718    0.4560 H   0  0  0  0  0  0  0  0  0  0  0  0
   -7.8752   -1.9778   -2.7883 H   0  0  0  0  0  0  0  0  0  0  0  0
   -5.8035   -3.2860    0.2209 H   0  0  0  0  0  0  0  0  0  0  0  0
   -8.1444   -3.6229    0.6696 H   0  0  0  0  0  0  0  0  0  0  0  0
   -7.3036   -5.1227    1.1590 H   0  0  0  0  0  0  0  0  0  0  0  0
   -8.2206   -5.0798   -0.3959 H   0  0  0  0  0  0  0  0  0  0  0  0
   -5.8598   -6.0651   -0.9980 H   0  0  0  0  0  0  0  0  0  0  0  0
   -3.7137   -3.0424   -0.4991 H   0  0  0  0  0  0  0  0  0  0  0  0
   -2.7799   -4.7247    1.9209 H   0  0  0  0  0  0  0  0  0  0  0  0
   -2.6379   -2.9289    1.7516 H   0  0  0  0  0  0  0  0  0  0  0  0
   -4.2490   -3.7070    1.8287 H   0  0  0  0  0  0  0  0  0  0  0  0
   -1.7766   -3.8206   -1.6856 H   0  0  0  0  0  0  0  0  0  0  0  0
    1.0485   -3.4820   -1.0284 H   0  0  0  0  0  0  0  0  0  0  0  0
   -0.6819   -1.4822    0.5314 H   0  0  0  0  0  0  0  0  0  0  0  0
   -0.6213   -1.7507   -1.2508 H   0  0  0  0  0  0  0  0  0  0  0  0
   -0.7836    0.6087   -0.9459 H   0  0  0  0  0  0  0  0  0  0  0  0
    0.2925    0.5324   -2.3830 H   0  0  0  0  0  0  0  0  0  0  0  0
    1.1409   -2.6460    1.8732 H   0  0  0  0  0  0  0  0  0  0  0  0
    3.9349   -5.5947    0.7697 H   0  0  0  0  0  0  0  0  0  0  0  0
    2.9386   -6.7058   -1.1288 H   0  0  0  0  0  0  0  0  0  0  0  0
    1.8457   -6.8093    0.3067 H   0  0  0  0  0  0  0  0  0  0  0  0
    1.4726   -5.6837   -1.0532 H   0  0  0  0  0  0  0  0  0  0  0  0
    3.1799   -3.8766   -1.5792 H   0  0  0  0  0  0  0  0  0  0  0  0
    5.1387   -3.5804    1.5556 H   0  0  0  0  0  0  0  0  0  0  0  0
    6.1340   -5.7432    0.7192 H   0  0  0  0  0  0  0  0  0  0  0  0
    7.3116   -4.7979    1.6954 H   0  0  0  0  0  0  0  0  0  0  0  0
    7.4359   -4.8150   -0.1026 H   0  0  0  0  0  0  0  0  0  0  0  0
    7.6886   -2.4510    0.6106 H   0  0  0  0  0  0  0  0  0  0  0  0
    6.4904    1.0071    1.4244 H   0  0  0  0  0  0  0  0  0  0  0  0
    8.8915    1.0620    1.0338 H   0  0  0  0  0  0  0  0  0  0  0  0
    8.8910   -0.5764    0.3147 H   0  0  0  0  0  0  0  0  0  0  0  0
    8.5539   -0.3612    2.0871 H   0  0  0  0  0  0  0  0  0  0  0  0
    6.6589   -0.2178   -1.3409 H   0  0  0  0  0  0  0  0  0  0  0  0
  1  2  1  0
  2  3  2  0
  2  4  1  0
  4  5  1  0
  5  6  1  0
  6  7  1  0
  7  8  1  0
  8  9  1  0
  9 10  1  0
 10 11  2  0
 11 12  1  0
 12 13  2  0
 13 14  1  0
 13 15  1  0
 15 16  1  0
 16 17  1  0
 17 18  1  0
 18 19  1  0
 19 20  1  0
 19 21  2  0
 18 22  1  0
 22 23  1  0
 23 24  2  0
 23 25  1  0
 25 26  1  0
 25 27  1  0
 27 28  1  0
 28 29  2  0
 28 30  1  0
 30 31  1  0
 30 32  1  0
 32 33  1  0
 33 34  2  0
 33 35  1  0
 35 36  1  0
 35 37  1  0
 37 38  1  0
 38 39  2  0
 38 40  1  0
 40 41  1  0
 40 42  1  0
 42 43  1  0
 43 44  2  0
 43 45  1  0
 45 46  1  0
 46 47  1  0
 47 48  1  0
 45 49  1  0
 49 50  1  0
 50 51  2  0
 50 52  1  0
 52 53  1  0
 52 54  1  0
 54 55  1  0
 55 56  2  0
 55 57  1  0
 57 58  1  0
 57 59  1  0
 59 60  1  0
 60 61  2  0
 60 62  1  0
 62 63  1  0
 62 64  1  0
 64 65  1  0
 65 66  2  0
 65  5  1  0
 14  9  2  0
 48 11  1  0
  1 67  1  0
  1 68  1  0
  1 69  1  0
  4 70  1  0
  5 71  1  1
  6 72  1  0
  6 73  1  0
  8 74  1  0
  8 75  1  0
 10 76  1  0
 12 77  1  0
 14 78  1  0
 15 79  1  0
 15 80  1  0
 17 81  1  0
 17 82  1  0
 18 83  1  1
 20 84  1  0
 20 85  1  0
 22 86  1  0
 25 87  1  1
 26 88  1  0
 26 89  1  0
 26 90  1  0
 27 91  1  0
 30 92  1  1
 31 93  1  0
 31 94  1  0
 31 95  1  0
 32 96  1  0
 35 97  1  1
 36 98  1  0
 36 99  1  0
 36100  1  0
 37101  1  0
 40102  1  6
 41103  1  0
 41104  1  0
 41105  1  0
 42106  1  0
 45107  1  6
 46108  1  0
 46109  1  0
 48110  1  0
 48111  1  0
 49112  1  0
 52113  1  1
 53114  1  0
 53115  1  0
 53116  1  0
 54117  1  0
 57118  1  1
 58119  1  0
 58120  1  0
 58121  1  0
 59122  1  0
 62123  1  1
 63124  1  0
 63125  1  0
 63126  1  0
 64127  1  0
M  END
