
     RDKit          3D

137139  0  0  0  0  0  0  0  0999 V2000
    7.6880    4.7391    2.5514 C   0  0  0  0  0  0  0  0  0  0  0  0
    6.8858    4.0652    1.4854 C   0  0  0  0  0  0  0  0  0  0  0  0
    5.8148    3.4685    1.7999 O   0  0  0  0  0  0  0  0  0  0  0  0
    7.3402    4.0925    0.1240 N   0  0  0  0  0  0  0  0  0  0  0  0
    7.0233    3.0703   -0.8811 C   0  0  2  0  0  0  0  0  0  0  0  0
    5.5195    3.0353   -1.2125 C   0  0  0  0  0  0  0  0  0  0  0  0
    4.8728    4.7129   -1.5780 S   0  0  0  0  0  0  0  0  0  0  0  0
    3.4037    4.1776   -2.5195 C   0  0  0  0  0  0  0  0  0  0  0  0
    2.4745    3.3255   -1.6964 C   0  0  0  0  0  0  0  0  0  0  0  0
    1.7509    3.8852   -0.6318 C   0  0  0  0  0  0  0  0  0  0  0  0
    0.8462    3.0995    0.1069 C   0  0  0  0  0  0  0  0  0  0  0  0
    0.6697    1.7491   -0.2299 C   0  0  0  0  0  0  0  0  0  0  0  0
    1.4119    1.1750   -1.2738 C   0  0  0  0  0  0  0  0  0  0  0  0
    2.3170    1.9687   -1.9941 C   0  0  0  0  0  0  0  0  0  0  0  0
    1.3190   -0.2973   -1.5675 C   0  0  0  0  0  0  0  0  0  0  0  0
    2.7489   -1.1589   -0.8182 S   0  0  0  0  0  0  0  0  0  0  0  0
    1.9009   -1.7076    0.7106 C   0  0  0  0  0  0  0  0  0  0  0  0
    1.2281   -3.0820    0.5125 C   0  0  1  0  0  0  0  0  0  0  0  0
    2.1849   -4.1648    0.7731 N   0  0  0  0  0  0  0  0  0  0  0  0
    3.3781   -4.2967   -0.0057 C   0  0  0  0  0  0  0  0  0  0  0  0
    3.2813   -4.4981   -1.2444 O   0  0  0  0  0  0  0  0  0  0  0  0
    4.7212   -4.0148    0.6189 C   0  0  1  0  0  0  0  0  0  0  0  0
    4.8333   -4.6006    2.0336 C   0  0  0  0  0  0  0  0  0  0  0  0
    5.8035   -4.5230   -0.2243 N   0  0  0  0  0  0  0  0  0  0  0  0
    7.0639   -3.8477   -0.2706 C   0  0  0  0  0  0  0  0  0  0  0  0
    7.9187   -4.0840    0.6234 O   0  0  0  0  0  0  0  0  0  0  0  0
    7.4260   -2.9661   -1.4427 C   0  0  1  0  0  0  0  0  0  0  0  0
    6.2220   -2.2451   -2.0659 C   0  0  0  0  0  0  0  0  0  0  0  0
    8.5011   -2.0223   -1.0981 N   0  0  0  0  0  0  0  0  0  0  0  0
    8.5401   -1.1670    0.0586 C   0  0  0  0  0  0  0  0  0  0  0  0
    9.6729   -0.8802    0.5516 O   0  0  0  0  0  0  0  0  0  0  0  0
    7.2946   -0.5430    0.6558 C   0  0  1  0  0  0  0  0  0  0  0  0
    7.5059   -0.0822    2.1039 C   0  0  0  0  0  0  0  0  0  0  0  0
    6.8184    0.5796   -0.1654 N   0  0  0  0  0  0  0  0  0  0  0  0
    7.6175    1.7461   -0.4493 C   0  0  0  0  0  0  0  0  0  0  0  0
    8.8698    1.6948   -0.3092 O   0  0  0  0  0  0  0  0  0  0  0  0
    0.0462   -3.2015    1.4453 C   0  0  0  0  0  0  0  0  0  0  0  0
    0.2561   -3.2128    2.6875 O   0  0  0  0  0  0  0  0  0  0  0  0
   -1.3065   -3.1827    0.9689 N   0  0  0  0  0  0  0  0  0  0  0  0
   -1.8226   -4.0788   -0.0795 C   0  0  2  0  0  0  0  0  0  0  0  0
   -1.7508   -3.4271   -1.4709 C   0  0  0  0  0  0  0  0  0  0  0  0
   -3.2362   -4.5013    0.2812 C   0  0  0  0  0  0  0  0  0  0  0  0
   -3.3976   -5.2832    1.2588 O   0  0  0  0  0  0  0  0  0  0  0  0
   -4.3873   -4.0949   -0.4776 N   0  0  0  0  0  0  0  0  0  0  0  0
   -4.8791   -2.7145   -0.6084 C   0  0  2  0  0  0  0  0  0  0  0  0
   -4.3468   -1.7642    0.4830 C   0  0  0  0  0  0  0  0  0  0  0  0
   -6.3816   -2.6939   -0.5561 C   0  0  0  0  0  0  0  0  0  0  0  0
   -7.0121   -2.0265   -1.4138 O   0  0  0  0  0  0  0  0  0  0  0  0
   -7.0751   -3.3290    0.5304 N   0  0  0  0  0  0  0  0  0  0  0  0
   -8.1042   -2.6195    1.3074 C   0  0  2  0  0  0  0  0  0  0  0  0
   -8.6544   -3.5225    2.4234 C   0  0  0  0  0  0  0  0  0  0  0  0
   -9.2229   -2.1371    0.4064 C   0  0  0  0  0  0  0  0  0  0  0  0
  -10.0750   -2.9715    0.0012 O   0  0  0  0  0  0  0  0  0  0  0  0
   -9.3330   -0.7672   -0.0251 N   0  0  0  0  0  0  0  0  0  0  0  0
   -8.3775    0.3010    0.3113 C   0  0  2  0  0  0  0  0  0  0  0  0
   -8.8464    1.0434    1.5623 C   0  0  0  0  0  0  0  0  0  0  0  0
   -8.1681    1.2575   -0.8406 C   0  0  0  0  0  0  0  0  0  0  0  0
   -8.8842    1.1991   -1.8721 O   0  0  0  0  0  0  0  0  0  0  0  0
   -7.0503    2.1616   -0.7848 N   0  0  0  0  0  0  0  0  0  0  0  0
   -6.6780    3.0407   -1.9004 C   0  0  2  0  0  0  0  0  0  0  0  0
   -6.0143    2.2221   -3.0203 C   0  0  0  0  0  0  0  0  0  0  0  0
   -5.7712    4.1274   -1.3692 C   0  0  0  0  0  0  0  0  0  0  0  0
   -6.2905    5.1571   -0.8722 O   0  0  0  0  0  0  0  0  0  0  0  0
   -4.3547    3.9143   -1.2515 N   0  0  0  0  0  0  0  0  0  0  0  0
   -3.5361    4.5998   -0.2472 C   0  0  1  0  0  0  0  0  0  0  0  0
   -4.1077    4.3567    1.1315 C   0  0  0  0  0  0  0  0  0  0  0  0
   -4.4184    5.4559    1.9864 N   0  0  0  0  0  0  0  0  0  0  0  0
   -4.3141    3.1809    1.5310 O   0  0  0  0  0  0  0  0  0  0  0  0
   -2.0875    4.0882   -0.3178 C   0  0  0  0  0  0  0  0  0  0  0  0
   -0.9876    5.0714    0.7731 S   0  0  0  0  0  0  0  0  0  0  0  0
    0.1098    3.6928    1.2778 C   0  0  0  0  0  0  0  0  0  0  0  0
    8.6658    4.2202    2.6528 H   0  0  0  0  0  0  0  0  0  0  0  0
    7.8694    5.8019    2.2768 H   0  0  0  0  0  0  0  0  0  0  0  0
    7.1602    4.7044    3.5299 H   0  0  0  0  0  0  0  0  0  0  0  0
    8.0455    4.8206   -0.1298 H   0  0  0  0  0  0  0  0  0  0  0  0
    7.5431    3.3567   -1.8220 H   0  0  0  0  0  0  0  0  0  0  0  0
    4.9308    2.6293   -0.3661 H   0  0  0  0  0  0  0  0  0  0  0  0
    5.3713    2.3841   -2.0990 H   0  0  0  0  0  0  0  0  0  0  0  0
    2.8566    5.0771   -2.8650 H   0  0  0  0  0  0  0  0  0  0  0  0
    3.7348    3.6338   -3.4295 H   0  0  0  0  0  0  0  0  0  0  0  0
    1.8962    4.9282   -0.3779 H   0  0  0  0  0  0  0  0  0  0  0  0
   -0.0307    1.1372    0.3302 H   0  0  0  0  0  0  0  0  0  0  0  0
    2.9005    1.5164   -2.7868 H   0  0  0  0  0  0  0  0  0  0  0  0
    1.3610   -0.4520   -2.6668 H   0  0  0  0  0  0  0  0  0  0  0  0
    0.3530   -0.7278   -1.2212 H   0  0  0  0  0  0  0  0  0  0  0  0
    1.1621   -0.9354    1.0188 H   0  0  0  0  0  0  0  0  0  0  0  0
    2.6552   -1.7740    1.5301 H   0  0  0  0  0  0  0  0  0  0  0  0
    0.8768   -3.1678   -0.5324 H   0  0  0  0  0  0  0  0  0  0  0  0
    2.0883   -4.7587    1.6292 H   0  0  0  0  0  0  0  0  0  0  0  0
    4.8106   -2.9093    0.6985 H   0  0  0  0  0  0  0  0  0  0  0  0
    4.5794   -5.6816    2.0240 H   0  0  0  0  0  0  0  0  0  0  0  0
    5.8661   -4.4770    2.4077 H   0  0  0  0  0  0  0  0  0  0  0  0
    4.1470   -4.0566    2.7217 H   0  0  0  0  0  0  0  0  0  0  0  0
    5.7855   -5.5303   -0.5047 H   0  0  0  0  0  0  0  0  0  0  0  0
    7.8207   -3.6488   -2.2285 H   0  0  0  0  0  0  0  0  0  0  0  0
    5.6335   -1.6969   -1.3121 H   0  0  0  0  0  0  0  0  0  0  0  0
    6.5722   -1.5339   -2.8449 H   0  0  0  0  0  0  0  0  0  0  0  0
    5.5522   -2.9859   -2.5523 H   0  0  0  0  0  0  0  0  0  0  0  0
    9.4024   -2.1382   -1.6194 H   0  0  0  0  0  0  0  0  0  0  0  0
    6.5039   -1.3163    0.7055 H   0  0  0  0  0  0  0  0  0  0  0  0
    6.5496    0.3173    2.5130 H   0  0  0  0  0  0  0  0  0  0  0  0
    7.8200   -0.9455    2.7383 H   0  0  0  0  0  0  0  0  0  0  0  0
    8.2757    0.7185    2.1688 H   0  0  0  0  0  0  0  0  0  0  0  0
    5.8107    0.5661   -0.4243 H   0  0  0  0  0  0  0  0  0  0  0  0
   -1.9913   -2.7909    1.6523 H   0  0  0  0  0  0  0  0  0  0  0  0
   -1.2076   -5.0091   -0.1049 H   0  0  0  0  0  0  0  0  0  0  0  0
   -2.4188   -3.9520   -2.1856 H   0  0  0  0  0  0  0  0  0  0  0  0
   -2.0274   -2.3516   -1.4397 H   0  0  0  0  0  0  0  0  0  0  0  0
   -0.7330   -3.5163   -1.8972 H   0  0  0  0  0  0  0  0  0  0  0  0
   -4.9226   -4.8541   -0.9592 H   0  0  0  0  0  0  0  0  0  0  0  0
   -4.5501   -2.3171   -1.5937 H   0  0  0  0  0  0  0  0  0  0  0  0
   -4.4680   -2.2158    1.4938 H   0  0  0  0  0  0  0  0  0  0  0  0
   -3.2872   -1.5147    0.2995 H   0  0  0  0  0  0  0  0  0  0  0  0
   -4.8983   -0.7984    0.4605 H   0  0  0  0  0  0  0  0  0  0  0  0
   -6.5972   -4.1302    0.9932 H   0  0  0  0  0  0  0  0  0  0  0  0
   -7.6225   -1.7718    1.8341 H   0  0  0  0  0  0  0  0  0  0  0  0
   -7.8412   -3.7993    3.1320 H   0  0  0  0  0  0  0  0  0  0  0  0
   -9.4419   -2.9876    3.0004 H   0  0  0  0  0  0  0  0  0  0  0  0
   -9.0890   -4.4564    2.0008 H   0  0  0  0  0  0  0  0  0  0  0  0
  -10.2213   -0.4950   -0.5095 H   0  0  0  0  0  0  0  0  0  0  0  0
   -7.3764   -0.1353    0.5025 H   0  0  0  0  0  0  0  0  0  0  0  0
   -9.8759    1.4427    1.4163 H   0  0  0  0  0  0  0  0  0  0  0  0
   -8.1579    1.8828    1.7978 H   0  0  0  0  0  0  0  0  0  0  0  0
   -8.8538    0.3494    2.4275 H   0  0  0  0  0  0  0  0  0  0  0  0
   -6.3318    1.9870   -0.0421 H   0  0  0  0  0  0  0  0  0  0  0  0
   -7.5938    3.5197   -2.3196 H   0  0  0  0  0  0  0  0  0  0  0  0
   -5.6249    2.8962   -3.8161 H   0  0  0  0  0  0  0  0  0  0  0  0
   -5.1836    1.5997   -2.6182 H   0  0  0  0  0  0  0  0  0  0  0  0
   -6.7595    1.5377   -3.4847 H   0  0  0  0  0  0  0  0  0  0  0  0
   -3.8632    3.4295   -2.0430 H   0  0  0  0  0  0  0  0  0  0  0  0
   -3.5401    5.6913   -0.4684 H   0  0  0  0  0  0  0  0  0  0  0  0
   -4.8510    5.2838    2.9270 H   0  0  0  0  0  0  0  0  0  0  0  0
   -4.2373    6.4383    1.6884 H   0  0  0  0  0  0  0  0  0  0  0  0
   -1.7071    4.1959   -1.3564 H   0  0  0  0  0  0  0  0  0  0  0  0
   -2.0667    3.0048   -0.0561 H   0  0  0  0  0  0  0  0  0  0  0  0
    0.8534    4.0890    2.0025 H   0  0  0  0  0  0  0  0  0  0  0  0
   -0.4911    2.9271    1.8129 H   0  0  0  0  0  0  0  0  0  0  0  0
  1  2  1  0
  2  3  2  0
  2  4  1  0
  4  5  1  0
  5  6  1  0
  6  7  1  0
  7  8  1  0
  8  9  1  0
  9 10  1  0
 10 11  2  0
 11 12  1  0
 12 13  2  0
 13 14  1  0
 13 15  1  0
 15 16  1  0
 16 17  1  0
 17 18  1  0
 18 19  1  0
 19 20  1  0
 20 21  2  0
 20 22  1  0
 22 23  1  0
 22 24  1  0
 24 25  1  0
 25 26  2  0
 25 27  1  0
 27 28  1  0
 27 29  1  0
 29 30  1  0
 30 31  2  0
 30 32  1  0
 32 33  1  0
 32 34  1  0
 34 35  1  0
 35 36  2  0
 18 37  1  0
 37 38  2  0
 37 39  1  0
 39 40  1  0
 40 41  1  0
 40 42  1  0
 42 43  2  0
 42 44  1  0
 44 45  1  0
 45 46  1  0
 45 47  1  0
 47 48  2  0
 47 49  1  0
 49 50  1  0
 50 51  1  0
 50 52  1  0
 52 53  2  0
 52 54  1  0
 54 55  1  0
 55 56  1  0
 55 57  1  0
 57 58  2  0
 57 59  1  0
 59 60  1  0
 60 61  1  0
 60 62  1  0
 62 63  2  0
 62 64  1  0
 64 65  1  0
 65 66  1  0
 66 67  1  0
 66 68  2  0
 65 69  1  0
 69 70  1  0
 70 71  1  0
 35  5  1  0
 14  9  2  0
 71 11  1  0
  1 72  1  0
  1 73  1  0
  1 74  1  0
  4 75  1  0
  5 76  1  6
  6 77  1  0
  6 78  1  0
  8 79  1  0
  8 80  1  0
 10 81  1  0
 12 82  1  0
 14 83  1  0
 15 84  1  0
 15 85  1  0
 17 86  1  0
 17 87  1  0
 18 88  1  6
 19 89  1  0
 22 90  1  1
 23 91  1  0
 23 92  1  0
 23 93  1  0
 24 94  1  0
 27 95  1  6
 28 96  1  0
 28 97  1  0
 28 98  1  0
 29 99  1  0
 32100  1  1
 33101  1  0
 33102  1  0
 33103  1  0
 34104  1  0
 39105  1  0
 40106  1  6
 41107  1  0
 41108  1  0
 41109  1  0
 44110  1  0
 45111  1  6
 46112  1  0
 46113  1  0
 46114  1  0
 49115  1  0
 50116  1  1
 51117  1  0
 51118  1  0
 51119  1  0
 54120  1  0
 55121  1  1
 56122  1  0
 56123  1  0
 56124  1  0
 59125  1  0
 60126  1  6
 61127  1  0
 61128  1  0
 61129  1  0
 64130  1  0
 65131  1  6
 67132  1  0
 67133  1  0
 69134  1  0
 69135  1  0
 71136  1  0
 71137  1  0
M  END
