
     RDKit          3D

127129  0  0  0  0  0  0  0  0999 V2000
   -8.9515    5.9188   -1.3718 C   0  0  0  0  0  0  0  0  0  0  0  0
   -8.1088    4.8939   -0.6824 C   0  0  0  0  0  0  0  0  0  0  0  0
   -7.8323    5.0647    0.5339 O   0  0  0  0  0  0  0  0  0  0  0  0
   -7.6442    3.7327   -1.3973 N   0  0  0  0  0  0  0  0  0  0  0  0
   -6.6272    2.7704   -0.9386 C   0  0  1  0  0  0  0  0  0  0  0  0
   -5.2286    3.4102   -0.7896 C   0  0  0  0  0  0  0  0  0  0  0  0
   -4.9339    4.3573    0.7590 S   0  0  0  0  0  0  0  0  0  0  0  0
   -4.0809    3.0311    1.6937 C   0  0  0  0  0  0  0  0  0  0  0  0
   -2.7081    2.7822    1.1447 C   0  0  0  0  0  0  0  0  0  0  0  0
   -1.7225    3.7780    1.2190 C   0  0  0  0  0  0  0  0  0  0  0  0
   -0.4593    3.5691    0.6396 C   0  0  0  0  0  0  0  0  0  0  0  0
   -0.1985    2.3619   -0.0331 C   0  0  0  0  0  0  0  0  0  0  0  0
   -1.1771    1.3598   -0.1098 C   0  0  0  0  0  0  0  0  0  0  0  0
   -2.4220    1.5649    0.5011 C   0  0  0  0  0  0  0  0  0  0  0  0
   -0.8656    0.0523   -0.7745 C   0  0  0  0  0  0  0  0  0  0  0  0
   -0.2567   -1.1184    0.4877 S   0  0  0  0  0  0  0  0  0  0  0  0
    0.6605   -2.2159   -0.6522 C   0  0  0  0  0  0  0  0  0  0  0  0
    0.0479   -3.6217   -0.6733 C   0  0  1  0  0  0  0  0  0  0  0  0
   -1.2922   -3.5752   -1.2736 N   0  0  0  0  0  0  0  0  0  0  0  0
   -2.2916   -4.5869   -1.0499 C   0  0  0  0  0  0  0  0  0  0  0  0
   -2.9227   -5.0470   -2.0393 O   0  0  0  0  0  0  0  0  0  0  0  0
   -2.6778   -5.0530    0.3312 C   0  0  1  0  0  0  0  0  0  0  0  0
   -1.8038   -6.2238    0.7960 C   0  0  0  0  0  0  0  0  0  0  0  0
   -2.6393   -3.9355    1.2825 N   0  0  0  0  0  0  0  0  0  0  0  0
   -3.5981   -2.8558    1.2811 C   0  0  0  0  0  0  0  0  0  0  0  0
   -3.3570   -1.8378    1.9821 O   0  0  0  0  0  0  0  0  0  0  0  0
   -4.9274   -2.9674    0.5537 C   0  0  1  0  0  0  0  0  0  0  0  0
   -5.9523   -3.6525    1.4634 C   0  0  0  0  0  0  0  0  0  0  0  0
   -5.4378   -1.6588    0.1225 N   0  0  0  0  0  0  0  0  0  0  0  0
   -6.5292   -1.5585   -0.8108 C   0  0  0  0  0  0  0  0  0  0  0  0
   -6.7344   -2.4973   -1.6294 O   0  0  0  0  0  0  0  0  0  0  0  0
   -7.4278   -0.3407   -0.8553 C   0  0  1  0  0  0  0  0  0  0  0  0
   -8.8985   -0.7636   -0.8438 C   0  0  0  0  0  0  0  0  0  0  0  0
   -7.1831    0.5376    0.2942 N   0  0  0  0  0  0  0  0  0  0  0  0
   -7.0874    1.9758    0.2758 C   0  0  0  0  0  0  0  0  0  0  0  0
   -7.3546    2.5933    1.3425 O   0  0  0  0  0  0  0  0  0  0  0  0
    0.9419   -4.5549   -1.4552 C   0  0  0  0  0  0  0  0  0  0  0  0
    0.4959   -5.1834   -2.4545 O   0  0  0  0  0  0  0  0  0  0  0  0
    2.3077   -4.7275   -1.0684 N   0  0  0  0  0  0  0  0  0  0  0  0
    3.3924   -4.1161   -1.8376 C   0  0  2  0  0  0  0  0  0  0  0  0
    3.7209   -4.9914   -3.0503 C   0  0  0  0  0  0  0  0  0  0  0  0
    4.5719   -3.8366   -0.9214 C   0  0  0  0  0  0  0  0  0  0  0  0
    4.3774   -3.0758    0.0629 O   0  0  0  0  0  0  0  0  0  0  0  0
    5.8743   -4.4165   -1.1354 N   0  0  0  0  0  0  0  0  0  0  0  0
    6.9985   -4.3291   -0.1933 C   0  0  2  0  0  0  0  0  0  0  0  0
    6.6616   -4.9586    1.1620 C   0  0  0  0  0  0  0  0  0  0  0  0
    7.5266   -2.9155   -0.0991 C   0  0  0  0  0  0  0  0  0  0  0  0
    8.4831   -2.5845   -0.8550 O   0  0  0  0  0  0  0  0  0  0  0  0
    6.9610   -1.9442    0.8009 N   0  0  0  0  0  0  0  0  0  0  0  0
    7.4732   -0.5687    0.8771 C   0  0  2  0  0  0  0  0  0  0  0  0
    8.6178   -0.5096    1.8867 C   0  0  0  0  0  0  0  0  0  0  0  0
    6.3863    0.4087    1.2530 C   0  0  0  0  0  0  0  0  0  0  0  0
    5.2317    0.0042    1.5737 O   0  0  0  0  0  0  0  0  0  0  0  0
    6.6707    1.8082    1.2996 N   0  0  0  0  0  0  0  0  0  0  0  0
    6.5667    2.6436    0.1071 C   0  0  2  0  0  0  0  0  0  0  0  0
    7.9502    2.8805   -0.5006 C   0  0  0  0  0  0  0  0  0  0  0  0
    5.9183    3.9586    0.4659 C   0  0  0  0  0  0  0  0  0  0  0  0
    6.5357    4.7753    1.2052 O   0  0  0  0  0  0  0  0  0  0  0  0
    4.5932    4.2568    0.0082 N   0  0  0  0  0  0  0  0  0  0  0  0
    3.9508    5.5564    0.2359 C   0  0  1  0  0  0  0  0  0  0  0  0
    3.1742    6.0038   -0.9813 C   0  0  0  0  0  0  0  0  0  0  0  0
    2.6370    7.3269   -1.0396 N   0  0  0  0  0  0  0  0  0  0  0  0
    2.9984    5.2202   -1.9520 O   0  0  0  0  0  0  0  0  0  0  0  0
    3.0749    5.5173    1.5078 C   0  0  0  0  0  0  0  0  0  0  0  0
    2.0318    4.0169    1.6511 S   0  0  0  0  0  0  0  0  0  0  0  0
    0.6002    4.6321    0.6969 C   0  0  0  0  0  0  0  0  0  0  0  0
   -9.9449    5.9659   -0.8815 H   0  0  0  0  0  0  0  0  0  0  0  0
   -9.0956    5.6687   -2.4442 H   0  0  0  0  0  0  0  0  0  0  0  0
   -8.4587    6.9132   -1.2973 H   0  0  0  0  0  0  0  0  0  0  0  0
   -8.0388    3.5743   -2.3506 H   0  0  0  0  0  0  0  0  0  0  0  0
   -6.4754    2.0737   -1.7774 H   0  0  0  0  0  0  0  0  0  0  0  0
   -5.0672    4.1106   -1.6387 H   0  0  0  0  0  0  0  0  0  0  0  0
   -4.4595    2.6213   -0.9064 H   0  0  0  0  0  0  0  0  0  0  0  0
   -3.9994    3.3487    2.7531 H   0  0  0  0  0  0  0  0  0  0  0  0
   -4.6952    2.1051    1.6809 H   0  0  0  0  0  0  0  0  0  0  0  0
   -1.9561    4.7204    1.6899 H   0  0  0  0  0  0  0  0  0  0  0  0
    0.7652    2.2077   -0.5052 H   0  0  0  0  0  0  0  0  0  0  0  0
   -3.1756    0.7868    0.4489 H   0  0  0  0  0  0  0  0  0  0  0  0
   -0.1031    0.2256   -1.5650 H   0  0  0  0  0  0  0  0  0  0  0  0
   -1.7745   -0.3664   -1.2611 H   0  0  0  0  0  0  0  0  0  0  0  0
    0.7217   -1.8209   -1.6897 H   0  0  0  0  0  0  0  0  0  0  0  0
    1.6971   -2.2679   -0.2560 H   0  0  0  0  0  0  0  0  0  0  0  0
   -0.0058   -3.9701    0.3763 H   0  0  0  0  0  0  0  0  0  0  0  0
   -1.3867   -3.0292   -2.1593 H   0  0  0  0  0  0  0  0  0  0  0  0
   -3.7130   -5.4564    0.2994 H   0  0  0  0  0  0  0  0  0  0  0  0
   -0.7312   -5.9677    0.8405 H   0  0  0  0  0  0  0  0  0  0  0  0
   -2.1271   -6.5520    1.8054 H   0  0  0  0  0  0  0  0  0  0  0  0
   -1.9284   -7.0810    0.0996 H   0  0  0  0  0  0  0  0  0  0  0  0
   -1.8543   -3.8840    1.9713 H   0  0  0  0  0  0  0  0  0  0  0  0
   -4.7899   -3.5871   -0.3561 H   0  0  0  0  0  0  0  0  0  0  0  0
   -5.5803   -4.6538    1.7791 H   0  0  0  0  0  0  0  0  0  0  0  0
   -6.1331   -3.0379    2.3671 H   0  0  0  0  0  0  0  0  0  0  0  0
   -6.9117   -3.7941    0.9230 H   0  0  0  0  0  0  0  0  0  0  0  0
   -5.0362   -0.7818    0.5239 H   0  0  0  0  0  0  0  0  0  0  0  0
   -7.2506    0.1636   -1.8212 H   0  0  0  0  0  0  0  0  0  0  0  0
   -9.1470   -1.3618   -1.7506 H   0  0  0  0  0  0  0  0  0  0  0  0
   -9.1224   -1.3699    0.0608 H   0  0  0  0  0  0  0  0  0  0  0  0
   -9.5495    0.1341   -0.8371 H   0  0  0  0  0  0  0  0  0  0  0  0
   -7.2938    0.1001    1.2369 H   0  0  0  0  0  0  0  0  0  0  0  0
    2.5062   -5.1850   -0.1403 H   0  0  0  0  0  0  0  0  0  0  0  0
    3.0488   -3.1292   -2.2216 H   0  0  0  0  0  0  0  0  0  0  0  0
    4.4918   -4.4934   -3.6817 H   0  0  0  0  0  0  0  0  0  0  0  0
    2.8214   -5.1264   -3.6814 H   0  0  0  0  0  0  0  0  0  0  0  0
    4.0814   -5.9881   -2.7275 H   0  0  0  0  0  0  0  0  0  0  0  0
    6.0804   -4.8866   -2.0453 H   0  0  0  0  0  0  0  0  0  0  0  0
    7.8249   -4.9478   -0.6141 H   0  0  0  0  0  0  0  0  0  0  0  0
    6.3974   -6.0301    1.0216 H   0  0  0  0  0  0  0  0  0  0  0  0
    5.8012   -4.4642    1.6567 H   0  0  0  0  0  0  0  0  0  0  0  0
    7.5433   -4.9033    1.8351 H   0  0  0  0  0  0  0  0  0  0  0  0
    6.2748   -2.2582    1.5161 H   0  0  0  0  0  0  0  0  0  0  0  0
    7.8603   -0.2650   -0.1188 H   0  0  0  0  0  0  0  0  0  0  0  0
    8.2509   -0.7578    2.9054 H   0  0  0  0  0  0  0  0  0  0  0  0
    9.0758    0.5023    1.9033 H   0  0  0  0  0  0  0  0  0  0  0  0
    9.4111   -1.2379    1.6071 H   0  0  0  0  0  0  0  0  0  0  0  0
    7.1993    2.1681    2.1246 H   0  0  0  0  0  0  0  0  0  0  0  0
    5.9394    2.1308   -0.6550 H   0  0  0  0  0  0  0  0  0  0  0  0
    8.3851    1.9175   -0.8495 H   0  0  0  0  0  0  0  0  0  0  0  0
    8.6384    3.3283    0.2471 H   0  0  0  0  0  0  0  0  0  0  0  0
    7.8758    3.5583   -1.3779 H   0  0  0  0  0  0  0  0  0  0  0  0
    4.0194    3.4658   -0.3608 H   0  0  0  0  0  0  0  0  0  0  0  0
    4.7362    6.3272    0.3924 H   0  0  0  0  0  0  0  0  0  0  0  0
    2.1127    7.6486   -1.8836 H   0  0  0  0  0  0  0  0  0  0  0  0
    2.8072    8.0021   -0.2644 H   0  0  0  0  0  0  0  0  0  0  0  0
    2.4612    6.4363    1.6210 H   0  0  0  0  0  0  0  0  0  0  0  0
    3.7648    5.4895    2.3826 H   0  0  0  0  0  0  0  0  0  0  0  0
    0.2095    5.5677    1.1467 H   0  0  0  0  0  0  0  0  0  0  0  0
    0.9020    4.8518   -0.3412 H   0  0  0  0  0  0  0  0  0  0  0  0
  1  2  1  0
  2  3  2  0
  2  4  1  0
  4  5  1  0
  5  6  1  0
  6  7  1  0
  7  8  1  0
  8  9  1  0
  9 10  1  0
 10 11  2  0
 11 12  1  0
 12 13  2  0
 13 14  1  0
 13 15  1  0
 15 16  1  0
 16 17  1  0
 17 18  1  0
 18 19  1  0
 19 20  1  0
 20 21  2  0
 20 22  1  0
 22 23  1  0
 22 24  1  0
 24 25  1  0
 25 26  2  0
 25 27  1  0
 27 28  1  0
 27 29  1  0
 29 30  1  0
 30 31  2  0
 30 32  1  0
 32 33  1  0
 32 34  1  0
 34 35  1  0
 35 36  2  0
 18 37  1  0
 37 38  2  0
 37 39  1  0
 39 40  1  0
 40 41  1  0
 40 42  1  0
 42 43  2  0
 42 44  1  0
 44 45  1  0
 45 46  1  0
 45 47  1  0
 47 48  2  0
 47 49  1  0
 49 50  1  0
 50 51  1  0
 50 52  1  0
 52 53  2  0
 52 54  1  0
 54 55  1  0
 55 56  1  0
 55 57  1  0
 57 58  2  0
 57 59  1  0
 59 60  1  0
 60 61  1  0
 61 62  1  0
 61 63  2  0
 60 64  1  0
 64 65  1  0
 65 66  1  0
 35  5  1  0
 14  9  2  0
 66 11  1  0
  1 67  1  0
  1 68  1  0
  1 69  1  0
  4 70  1  0
  5 71  1  6
  6 72  1  0
  6 73  1  0
  8 74  1  0
  8 75  1  0
 10 76  1  0
 12 77  1  0
 14 78  1  0
 15 79  1  0
 15 80  1  0
 17 81  1  0
 17 82  1  0
 18 83  1  1
 19 84  1  0
 22 85  1  6
 23 86  1  0
 23 87  1  0
 23 88  1  0
 24 89  1  0
 27 90  1  6
 28 91  1  0
 28 92  1  0
 28 93  1  0
 29 94  1  0
 32 95  1  6
 33 96  1  0
 33 97  1  0
 33 98  1  0
 34 99  1  0
 39100  1  0
 40101  1  6
 41102  1  0
 41103  1  0
 41104  1  0
 44105  1  0
 45106  1  6
 46107  1  0
 46108  1  0
 46109  1  0
 49110  1  0
 50111  1  6
 51112  1  0
 51113  1  0
 51114  1  0
 54115  1  0
 55116  1  6
 56117  1  0
 56118  1  0
 56119  1  0
 59120  1  0
 60121  1  1
 62122  1  0
 62123  1  0
 64124  1  0
 64125  1  0
 66126  1  0
 66127  1  0
M  END
