
     RDKit          3D

117119  0  0  0  0  0  0  0  0999 V2000
   -6.9395   -6.3020    0.3002 C   0  0  0  0  0  0  0  0  0  0  0  0
   -6.4689   -4.9353    0.6672 C   0  0  0  0  0  0  0  0  0  0  0  0
   -6.1127   -4.7005    1.8549 O   0  0  0  0  0  0  0  0  0  0  0  0
   -6.4339   -3.8976   -0.3271 N   0  0  0  0  0  0  0  0  0  0  0  0
   -5.9207   -2.5503   -0.0390 C   0  0  1  0  0  0  0  0  0  0  0  0
   -4.4113   -2.5788    0.2672 C   0  0  0  0  0  0  0  0  0  0  0  0
   -3.4929   -3.6306   -0.9243 S   0  0  0  0  0  0  0  0  0  0  0  0
   -2.3264   -4.4004    0.2604 C   0  0  0  0  0  0  0  0  0  0  0  0
   -1.0477   -3.6084    0.3294 C   0  0  0  0  0  0  0  0  0  0  0  0
   -1.0327   -2.3361    0.9201 C   0  0  0  0  0  0  0  0  0  0  0  0
    0.1630   -1.6100    1.0219 C   0  0  0  0  0  0  0  0  0  0  0  0
    1.3508   -2.1662    0.5271 C   0  0  0  0  0  0  0  0  0  0  0  0
    1.3515   -3.4418   -0.0547 C   0  0  0  0  0  0  0  0  0  0  0  0
    0.1500   -4.1613   -0.1448 C   0  0  0  0  0  0  0  0  0  0  0  0
    2.6461   -4.0719   -0.4673 C   0  0  0  0  0  0  0  0  0  0  0  0
    3.3691   -4.8916    0.9897 S   0  0  0  0  0  0  0  0  0  0  0  0
    4.9929   -5.2848    0.2479 C   0  0  0  0  0  0  0  0  0  0  0  0
    5.9374   -4.0547    0.2337 C   0  0  1  0  0  0  0  0  0  0  0  0
    7.3468   -4.4954    0.5420 C   0  0  0  0  0  0  0  0  0  0  0  0
    8.0691   -5.3226   -0.3686 N   0  0  0  0  0  0  0  0  0  0  0  0
    7.8919   -4.1316    1.6172 O   0  0  0  0  0  0  0  0  0  0  0  0
    5.9071   -3.3729   -1.0706 N   0  0  0  0  0  0  0  0  0  0  0  0
    6.6073   -2.1514   -1.3652 C   0  0  0  0  0  0  0  0  0  0  0  0
    6.8918   -1.8964   -2.5645 O   0  0  0  0  0  0  0  0  0  0  0  0
    7.0444   -1.1810   -0.2896 C   0  0  1  0  0  0  0  0  0  0  0  0
    8.5788   -1.1496   -0.2171 C   0  0  0  0  0  0  0  0  0  0  0  0
    6.5226    0.1642   -0.5683 N   0  0  0  0  0  0  0  0  0  0  0  0
    5.1263    0.4621   -0.4381 C   0  0  0  0  0  0  0  0  0  0  0  0
    4.2789   -0.2588   -1.0327 O   0  0  0  0  0  0  0  0  0  0  0  0
    4.6497    1.5318    0.5097 C   0  0  1  0  0  0  0  0  0  0  0  0
    4.4305    0.9273    1.8964 C   0  0  0  0  0  0  0  0  0  0  0  0
    5.6106    2.6337    0.5904 N   0  0  0  0  0  0  0  0  0  0  0  0
    5.3852    4.0025    0.2014 C   0  0  0  0  0  0  0  0  0  0  0  0
    6.3794    4.7720    0.1048 O   0  0  0  0  0  0  0  0  0  0  0  0
    4.0156    4.5807   -0.0836 C   0  0  1  0  0  0  0  0  0  0  0  0
    3.5609    4.2464   -1.5151 C   0  0  0  0  0  0  0  0  0  0  0  0
    3.0593    4.1633    0.9484 N   0  0  0  0  0  0  0  0  0  0  0  0
    1.6451    4.3551    0.8133 C   0  0  0  0  0  0  0  0  0  0  0  0
    1.0960    5.3265    1.3973 O   0  0  0  0  0  0  0  0  0  0  0  0
    0.7970    3.2927    0.1547 C   0  0  1  0  0  0  0  0  0  0  0  0
    0.0395    2.4696    1.2039 C   0  0  0  0  0  0  0  0  0  0  0  0
   -0.5985    0.9417    0.4199 S   0  0  0  0  0  0  0  0  0  0  0  0
    0.1573   -0.2285    1.6124 C   0  0  0  0  0  0  0  0  0  0  0  0
   -0.1274    3.8500   -0.8444 N   0  0  0  0  0  0  0  0  0  0  0  0
   -1.1299    4.8235   -0.5334 C   0  0  0  0  0  0  0  0  0  0  0  0
   -0.8027    6.0386   -0.4238 O   0  0  0  0  0  0  0  0  0  0  0  0
   -2.5845    4.4218   -0.4053 C   0  0  1  0  0  0  0  0  0  0  0  0
   -3.1330    4.9528    0.9258 C   0  0  0  0  0  0  0  0  0  0  0  0
   -3.3444    4.9559   -1.5446 N   0  0  0  0  0  0  0  0  0  0  0  0
   -4.7326    4.7106   -1.8449 C   0  0  0  0  0  0  0  0  0  0  0  0
   -5.2537    5.3560   -2.8011 O   0  0  0  0  0  0  0  0  0  0  0  0
   -5.6228    3.7874   -1.0308 C   0  0  1  0  0  0  0  0  0  0  0  0
   -6.5704    4.6447   -0.1763 C   0  0  0  0  0  0  0  0  0  0  0  0
   -6.4112    2.9261   -1.9276 N   0  0  0  0  0  0  0  0  0  0  0  0
   -7.2279    1.8469   -1.4461 C   0  0  0  0  0  0  0  0  0  0  0  0
   -8.4238    1.7671   -1.8335 O   0  0  0  0  0  0  0  0  0  0  0  0
   -6.6701    0.7863   -0.5334 C   0  0  1  0  0  0  0  0  0  0  0  0
   -7.1105    1.0166    0.9132 C   0  0  0  0  0  0  0  0  0  0  0  0
   -7.1306   -0.5284   -0.9756 N   0  0  0  0  0  0  0  0  0  0  0  0
   -6.2219   -1.6055   -1.1758 C   0  0  0  0  0  0  0  0  0  0  0  0
   -5.6629   -1.7449   -2.2909 O   0  0  0  0  0  0  0  0  0  0  0  0
   -7.9780   -6.2522   -0.0915 H   0  0  0  0  0  0  0  0  0  0  0  0
   -6.2707   -6.7197   -0.4858 H   0  0  0  0  0  0  0  0  0  0  0  0
   -6.9129   -6.9759    1.1846 H   0  0  0  0  0  0  0  0  0  0  0  0
   -6.7937   -4.1193   -1.2851 H   0  0  0  0  0  0  0  0  0  0  0  0
   -6.4447   -2.1650    0.8614 H   0  0  0  0  0  0  0  0  0  0  0  0
   -4.0024   -1.5482    0.2169 H   0  0  0  0  0  0  0  0  0  0  0  0
   -4.2756   -2.9255    1.3048 H   0  0  0  0  0  0  0  0  0  0  0  0
   -2.1281   -5.4283   -0.0970 H   0  0  0  0  0  0  0  0  0  0  0  0
   -2.7646   -4.5139    1.2700 H   0  0  0  0  0  0  0  0  0  0  0  0
   -1.9384   -1.9036    1.3177 H   0  0  0  0  0  0  0  0  0  0  0  0
    2.2803   -1.6146    0.6139 H   0  0  0  0  0  0  0  0  0  0  0  0
    0.1571   -5.1584   -0.5666 H   0  0  0  0  0  0  0  0  0  0  0  0
    3.3257   -3.2818   -0.8493 H   0  0  0  0  0  0  0  0  0  0  0  0
    2.4878   -4.8179   -1.2695 H   0  0  0  0  0  0  0  0  0  0  0  0
    4.8612   -5.7339   -0.7602 H   0  0  0  0  0  0  0  0  0  0  0  0
    5.4279   -6.0894    0.8785 H   0  0  0  0  0  0  0  0  0  0  0  0
    5.5979   -3.3572    1.0282 H   0  0  0  0  0  0  0  0  0  0  0  0
    7.6241   -5.6405   -1.2523 H   0  0  0  0  0  0  0  0  0  0  0  0
    9.0264   -5.6607   -0.1243 H   0  0  0  0  0  0  0  0  0  0  0  0
    5.4808   -3.8644   -1.8860 H   0  0  0  0  0  0  0  0  0  0  0  0
    6.6773   -1.4827    0.7065 H   0  0  0  0  0  0  0  0  0  0  0  0
    8.9180   -0.4463    0.5727 H   0  0  0  0  0  0  0  0  0  0  0  0
    8.9772   -2.1553    0.0147 H   0  0  0  0  0  0  0  0  0  0  0  0
    9.0048   -0.8223   -1.1895 H   0  0  0  0  0  0  0  0  0  0  0  0
    7.1922    0.9492   -0.7212 H   0  0  0  0  0  0  0  0  0  0  0  0
    3.6734    1.8835    0.1381 H   0  0  0  0  0  0  0  0  0  0  0  0
    3.6334    0.1600    1.8467 H   0  0  0  0  0  0  0  0  0  0  0  0
    5.3563    0.4615    2.2784 H   0  0  0  0  0  0  0  0  0  0  0  0
    4.1044    1.7217    2.6006 H   0  0  0  0  0  0  0  0  0  0  0  0
    6.5532    2.4133    0.9792 H   0  0  0  0  0  0  0  0  0  0  0  0
    4.0912    5.6925   -0.0175 H   0  0  0  0  0  0  0  0  0  0  0  0
    3.4515    3.1565   -1.6773 H   0  0  0  0  0  0  0  0  0  0  0  0
    4.3091    4.6298   -2.2357 H   0  0  0  0  0  0  0  0  0  0  0  0
    2.5970    4.7502   -1.7371 H   0  0  0  0  0  0  0  0  0  0  0  0
    3.4066    4.2054    1.9340 H   0  0  0  0  0  0  0  0  0  0  0  0
    1.4888    2.5978   -0.3731 H   0  0  0  0  0  0  0  0  0  0  0  0
    0.7162    2.2474    2.0589 H   0  0  0  0  0  0  0  0  0  0  0  0
   -0.8158    3.0528    1.6072 H   0  0  0  0  0  0  0  0  0  0  0  0
    1.1968    0.0772    1.8512 H   0  0  0  0  0  0  0  0  0  0  0  0
   -0.4396   -0.2248    2.5538 H   0  0  0  0  0  0  0  0  0  0  0  0
   -0.1837    3.3753   -1.7740 H   0  0  0  0  0  0  0  0  0  0  0  0
   -2.6469    3.3130   -0.4133 H   0  0  0  0  0  0  0  0  0  0  0  0
   -2.3717    4.8670    1.7374 H   0  0  0  0  0  0  0  0  0  0  0  0
   -3.4175    6.0187    0.8363 H   0  0  0  0  0  0  0  0  0  0  0  0
   -4.0084    4.3630    1.2598 H   0  0  0  0  0  0  0  0  0  0  0  0
   -2.8490    5.5954   -2.2100 H   0  0  0  0  0  0  0  0  0  0  0  0
   -5.0103    3.1438   -0.3761 H   0  0  0  0  0  0  0  0  0  0  0  0
   -7.2361    5.2559   -0.8294 H   0  0  0  0  0  0  0  0  0  0  0  0
   -5.9987    5.3309    0.4853 H   0  0  0  0  0  0  0  0  0  0  0  0
   -7.2138    4.0003    0.4627 H   0  0  0  0  0  0  0  0  0  0  0  0
   -6.6554    3.2901   -2.8818 H   0  0  0  0  0  0  0  0  0  0  0  0
   -5.5540    0.8168   -0.5658 H   0  0  0  0  0  0  0  0  0  0  0  0
   -6.6779    1.9549    1.3116 H   0  0  0  0  0  0  0  0  0  0  0  0
   -8.2174    1.0602    0.9779 H   0  0  0  0  0  0  0  0  0  0  0  0
   -6.7528    0.1829    1.5575 H   0  0  0  0  0  0  0  0  0  0  0  0
   -8.1650   -0.7298   -0.9896 H   0  0  0  0  0  0  0  0  0  0  0  0
  1  2  1  0
  2  3  2  0
  2  4  1  0
  4  5  1  0
  5  6  1  0
  6  7  1  0
  7  8  1  0
  8  9  1  0
  9 10  2  0
 10 11  1  0
 11 12  2  0
 12 13  1  0
 13 14  2  0
 13 15  1  0
 15 16  1  0
 16 17  1  0
 17 18  1  0
 18 19  1  0
 19 20  1  0
 19 21  2  0
 18 22  1  0
 22 23  1  0
 23 24  2  0
 23 25  1  0
 25 26  1  0
 25 27  1  0
 27 28  1  0
 28 29  2  0
 28 30  1  0
 30 31  1  0
 30 32  1  0
 32 33  1  0
 33 34  2  0
 33 35  1  0
 35 36  1  0
 35 37  1  0
 37 38  1  0
 38 39  2  0
 38 40  1  0
 40 41  1  0
 41 42  1  0
 42 43  1  0
 40 44  1  0
 44 45  1  0
 45 46  2  0
 45 47  1  0
 47 48  1  0
 47 49  1  0
 49 50  1  0
 50 51  2  0
 50 52  1  0
 52 53  1  0
 52 54  1  0
 54 55  1  0
 55 56  2  0
 55 57  1  0
 57 58  1  0
 57 59  1  0
 59 60  1  0
 60 61  2  0
 60  5  1  0
 14  9  1  0
 43 11  1  0
  1 62  1  0
  1 63  1  0
  1 64  1  0
  4 65  1  0
  5 66  1  1
  6 67  1  0
  6 68  1  0
  8 69  1  0
  8 70  1  0
 10 71  1  0
 12 72  1  0
 14 73  1  0
 15 74  1  0
 15 75  1  0
 17 76  1  0
 17 77  1  0
 18 78  1  1
 20 79  1  0
 20 80  1  0
 22 81  1  0
 25 82  1  1
 26 83  1  0
 26 84  1  0
 26 85  1  0
 27 86  1  0
 30 87  1  6
 31 88  1  0
 31 89  1  0
 31 90  1  0
 32 91  1  0
 35 92  1  6
 36 93  1  0
 36 94  1  0
 36 95  1  0
 37 96  1  0
 40 97  1  6
 41 98  1  0
 41 99  1  0
 43100  1  0
 43101  1  0
 44102  1  0
 47103  1  1
 48104  1  0
 48105  1  0
 48106  1  0
 49107  1  0
 52108  1  1
 53109  1  0
 53110  1  0
 53111  1  0
 54112  1  0
 57113  1  1
 58114  1  0
 58115  1  0
 58116  1  0
 59117  1  0
M  END
