
     RDKit          3D

127129  0  0  0  0  0  0  0  0999 V2000
   10.1111    3.4807    0.2370 C   0  0  0  0  0  0  0  0  0  0  0  0
    8.8962    3.6670   -0.6097 C   0  0  0  0  0  0  0  0  0  0  0  0
    9.0364    4.0509   -1.8019 O   0  0  0  0  0  0  0  0  0  0  0  0
    7.5866    3.4076   -0.0788 N   0  0  0  0  0  0  0  0  0  0  0  0
    6.3996    3.3215   -0.9432 C   0  0  2  0  0  0  0  0  0  0  0  0
    5.0877    3.2163   -0.1234 C   0  0  0  0  0  0  0  0  0  0  0  0
    4.2083    4.8242   -0.0733 S   0  0  0  0  0  0  0  0  0  0  0  0
    2.8701    4.3717   -1.2362 C   0  0  0  0  0  0  0  0  0  0  0  0
    1.7569    3.6634   -0.5117 C   0  0  0  0  0  0  0  0  0  0  0  0
    0.9956    4.3491    0.4500 C   0  0  0  0  0  0  0  0  0  0  0  0
   -0.0781    3.7174    1.0996 C   0  0  0  0  0  0  0  0  0  0  0  0
   -0.3776    2.3815    0.7920 C   0  0  0  0  0  0  0  0  0  0  0  0
    0.3623    1.6870   -0.1816 C   0  0  0  0  0  0  0  0  0  0  0  0
    1.4344    2.3287   -0.8230 C   0  0  0  0  0  0  0  0  0  0  0  0
   -0.0964    0.3325   -0.6494 C   0  0  0  0  0  0  0  0  0  0  0  0
    1.1220   -0.9776   -0.2594 S   0  0  0  0  0  0  0  0  0  0  0  0
   -0.0244   -2.3173   -0.7569 C   0  0  0  0  0  0  0  0  0  0  0  0
    0.6660   -3.6907   -0.7841 C   0  0  1  0  0  0  0  0  0  0  0  0
    0.9758   -4.1614    0.5711 N   0  0  0  0  0  0  0  0  0  0  0  0
    1.7768   -5.3310    0.8066 C   0  0  0  0  0  0  0  0  0  0  0  0
    1.2379   -6.3408    1.3311 O   0  0  0  0  0  0  0  0  0  0  0  0
    3.2439   -5.3861    0.4552 C   0  0  1  0  0  0  0  0  0  0  0  0
    3.4790   -6.0000   -0.9215 C   0  0  0  0  0  0  0  0  0  0  0  0
    3.8561   -4.0570    0.5328 N   0  0  0  0  0  0  0  0  0  0  0  0
    4.7597   -3.7072    1.5911 C   0  0  0  0  0  0  0  0  0  0  0  0
    4.5645   -4.1555    2.7550 O   0  0  0  0  0  0  0  0  0  0  0  0
    5.9773   -2.8543    1.3416 C   0  0  1  0  0  0  0  0  0  0  0  0
    7.2251   -3.7327    1.2706 C   0  0  0  0  0  0  0  0  0  0  0  0
    5.8478   -2.0833    0.1020 N   0  0  0  0  0  0  0  0  0  0  0  0
    5.6198   -0.6741    0.1369 C   0  0  0  0  0  0  0  0  0  0  0  0
    4.4458   -0.2443    0.3109 O   0  0  0  0  0  0  0  0  0  0  0  0
    6.7296    0.3048   -0.1408 C   0  0  1  0  0  0  0  0  0  0  0  0
    8.1212   -0.2996    0.0783 C   0  0  0  0  0  0  0  0  0  0  0  0
    6.6199    0.7905   -1.5194 N   0  0  0  0  0  0  0  0  0  0  0  0
    6.5455    2.1741   -1.9232 C   0  0  0  0  0  0  0  0  0  0  0  0
    6.6623    2.4481   -3.1454 O   0  0  0  0  0  0  0  0  0  0  0  0
   -0.1847   -4.7050   -1.5232 C   0  0  0  0  0  0  0  0  0  0  0  0
    0.3887   -5.5164   -2.3011 O   0  0  0  0  0  0  0  0  0  0  0  0
   -1.6233   -4.7259   -1.4480 N   0  0  0  0  0  0  0  0  0  0  0  0
   -2.3706   -4.7242   -0.1866 C   0  0  2  0  0  0  0  0  0  0  0  0
   -2.7438   -6.1644    0.1794 C   0  0  0  0  0  0  0  0  0  0  0  0
   -3.5548   -3.7822   -0.2956 C   0  0  0  0  0  0  0  0  0  0  0  0
   -3.3516   -2.6010   -0.6967 O   0  0  0  0  0  0  0  0  0  0  0  0
   -4.8872   -4.1800    0.0797 N   0  0  0  0  0  0  0  0  0  0  0  0
   -5.8923   -3.1982    0.5046 C   0  0  2  0  0  0  0  0  0  0  0  0
   -6.7114   -3.7717    1.6599 C   0  0  0  0  0  0  0  0  0  0  0  0
   -6.7899   -2.8433   -0.6563 C   0  0  0  0  0  0  0  0  0  0  0  0
   -7.2533   -3.7719   -1.3786 O   0  0  0  0  0  0  0  0  0  0  0  0
   -7.1416   -1.4839   -0.9565 N   0  0  0  0  0  0  0  0  0  0  0  0
   -7.5301   -0.5164    0.0749 C   0  0  2  0  0  0  0  0  0  0  0  0
   -8.9978   -0.7275    0.4599 C   0  0  0  0  0  0  0  0  0  0  0  0
   -7.3332    0.8881   -0.4337 C   0  0  0  0  0  0  0  0  0  0  0  0
   -7.9411    1.2496   -1.4833 O   0  0  0  0  0  0  0  0  0  0  0  0
   -6.4678    1.8067    0.2619 N   0  0  0  0  0  0  0  0  0  0  0  0
   -6.5017    3.2700    0.1161 C   0  0  2  0  0  0  0  0  0  0  0  0
   -7.9197    3.8093    0.3522 C   0  0  0  0  0  0  0  0  0  0  0  0
   -5.9611    3.7149   -1.2293 C   0  0  0  0  0  0  0  0  0  0  0  0
   -6.5470    3.3272   -2.2764 O   0  0  0  0  0  0  0  0  0  0  0  0
   -4.8137    4.5748   -1.3819 N   0  0  0  0  0  0  0  0  0  0  0  0
   -4.1668    5.4286   -0.3713 C   0  0  1  0  0  0  0  0  0  0  0  0
   -5.1786    6.1919    0.4531 C   0  0  0  0  0  0  0  0  0  0  0  0
   -6.1667    6.9959   -0.1888 N   0  0  0  0  0  0  0  0  0  0  0  0
   -5.1539    6.1398    1.7153 O   0  0  0  0  0  0  0  0  0  0  0  0
   -3.1400    4.6253    0.4530 C   0  0  0  0  0  0  0  0  0  0  0  0
   -1.9235    5.7627    1.2213 S   0  0  0  0  0  0  0  0  0  0  0  0
   -0.9357    4.4783    2.0734 C   0  0  0  0  0  0  0  0  0  0  0  0
    9.8380    3.0825    1.2371 H   0  0  0  0  0  0  0  0  0  0  0  0
   10.6304    4.4545    0.3661 H   0  0  0  0  0  0  0  0  0  0  0  0
   10.7989    2.7611   -0.2565 H   0  0  0  0  0  0  0  0  0  0  0  0
    7.4967    3.2918    0.9559 H   0  0  0  0  0  0  0  0  0  0  0  0
    6.3534    4.2580   -1.5437 H   0  0  0  0  0  0  0  0  0  0  0  0
    4.4260    2.4185   -0.5341 H   0  0  0  0  0  0  0  0  0  0  0  0
    5.2855    2.9250    0.9284 H   0  0  0  0  0  0  0  0  0  0  0  0
    3.2816    3.7568   -2.0662 H   0  0  0  0  0  0  0  0  0  0  0  0
    2.4702    5.3037   -1.6925 H   0  0  0  0  0  0  0  0  0  0  0  0
    1.2172    5.3909    0.6673 H   0  0  0  0  0  0  0  0  0  0  0  0
   -1.2205    1.9004    1.2731 H   0  0  0  0  0  0  0  0  0  0  0  0
    1.9893    1.8035   -1.5899 H   0  0  0  0  0  0  0  0  0  0  0  0
   -1.0722    0.0751   -0.1784 H   0  0  0  0  0  0  0  0  0  0  0  0
   -0.2574    0.3666   -1.7495 H   0  0  0  0  0  0  0  0  0  0  0  0
   -0.8694   -2.3260   -0.0434 H   0  0  0  0  0  0  0  0  0  0  0  0
   -0.4238   -2.0911   -1.7699 H   0  0  0  0  0  0  0  0  0  0  0  0
    1.6148   -3.5638   -1.3488 H   0  0  0  0  0  0  0  0  0  0  0  0
    0.3403   -3.8787    1.3567 H   0  0  0  0  0  0  0  0  0  0  0  0
    3.7329   -6.0527    1.1973 H   0  0  0  0  0  0  0  0  0  0  0  0
    2.9938   -5.4061   -1.7182 H   0  0  0  0  0  0  0  0  0  0  0  0
    4.5704   -6.0413   -1.1269 H   0  0  0  0  0  0  0  0  0  0  0  0
    3.0792   -7.0404   -0.9453 H   0  0  0  0  0  0  0  0  0  0  0  0
    3.6471   -3.3536   -0.2141 H   0  0  0  0  0  0  0  0  0  0  0  0
    6.0938   -2.1532    2.2006 H   0  0  0  0  0  0  0  0  0  0  0  0
    7.1095   -4.5233    0.4973 H   0  0  0  0  0  0  0  0  0  0  0  0
    7.4089   -4.2171    2.2540 H   0  0  0  0  0  0  0  0  0  0  0  0
    8.1178   -3.1157    1.0195 H   0  0  0  0  0  0  0  0  0  0  0  0
    5.8623   -2.5698   -0.8265 H   0  0  0  0  0  0  0  0  0  0  0  0
    6.6259    1.1252    0.5904 H   0  0  0  0  0  0  0  0  0  0  0  0
    8.2273   -0.6457    1.1304 H   0  0  0  0  0  0  0  0  0  0  0  0
    8.9000    0.4677   -0.1160 H   0  0  0  0  0  0  0  0  0  0  0  0
    8.2915   -1.1553   -0.6154 H   0  0  0  0  0  0  0  0  0  0  0  0
    6.6650    0.0773   -2.2832 H   0  0  0  0  0  0  0  0  0  0  0  0
   -2.1313   -5.0614   -2.2989 H   0  0  0  0  0  0  0  0  0  0  0  0
   -1.7330   -4.3429    0.6321 H   0  0  0  0  0  0  0  0  0  0  0  0
   -3.3853   -6.6111   -0.6148 H   0  0  0  0  0  0  0  0  0  0  0  0
   -3.2720   -6.1884    1.1518 H   0  0  0  0  0  0  0  0  0  0  0  0
   -1.8194   -6.7712    0.2716 H   0  0  0  0  0  0  0  0  0  0  0  0
   -5.1736   -5.1832    0.0054 H   0  0  0  0  0  0  0  0  0  0  0  0
   -5.3779   -2.2870    0.8750 H   0  0  0  0  0  0  0  0  0  0  0  0
   -6.0332   -4.0469    2.4944 H   0  0  0  0  0  0  0  0  0  0  0  0
   -7.2648   -4.6781    1.3371 H   0  0  0  0  0  0  0  0  0  0  0  0
   -7.4349   -3.0160    2.0302 H   0  0  0  0  0  0  0  0  0  0  0  0
   -7.5176   -1.3206   -1.9200 H   0  0  0  0  0  0  0  0  0  0  0  0
   -6.9078   -0.6600    0.9846 H   0  0  0  0  0  0  0  0  0  0  0  0
   -9.1391   -1.7533    0.8583 H   0  0  0  0  0  0  0  0  0  0  0  0
   -9.3040    0.0023    1.2375 H   0  0  0  0  0  0  0  0  0  0  0  0
   -9.6525   -0.6076   -0.4302 H   0  0  0  0  0  0  0  0  0  0  0  0
   -5.9246    1.4359    1.0710 H   0  0  0  0  0  0  0  0  0  0  0  0
   -5.8759    3.6895    0.9223 H   0  0  0  0  0  0  0  0  0  0  0  0
   -7.9128    4.9166    0.3985 H   0  0  0  0  0  0  0  0  0  0  0  0
   -8.3081    3.4262    1.3246 H   0  0  0  0  0  0  0  0  0  0  0  0
   -8.6137    3.4980   -0.4548 H   0  0  0  0  0  0  0  0  0  0  0  0
   -4.4743    4.7040   -2.3612 H   0  0  0  0  0  0  0  0  0  0  0  0
   -3.5888    6.2002   -0.9281 H   0  0  0  0  0  0  0  0  0  0  0  0
   -6.2126    7.0498   -1.2298 H   0  0  0  0  0  0  0  0  0  0  0  0
   -6.8965    7.4880    0.3713 H   0  0  0  0  0  0  0  0  0  0  0  0
   -2.5941    3.9350   -0.2263 H   0  0  0  0  0  0  0  0  0  0  0  0
   -3.6387    4.0186    1.2390 H   0  0  0  0  0  0  0  0  0  0  0  0
   -0.2779    4.9819    2.8104 H   0  0  0  0  0  0  0  0  0  0  0  0
   -1.6105    3.8015    2.6388 H   0  0  0  0  0  0  0  0  0  0  0  0
  1  2  1  0
  2  3  2  0
  2  4  1  0
  4  5  1  0
  5  6  1  0
  6  7  1  0
  7  8  1  0
  8  9  1  0
  9 10  1  0
 10 11  2  0
 11 12  1  0
 12 13  2  0
 13 14  1  0
 13 15  1  0
 15 16  1  0
 16 17  1  0
 17 18  1  0
 18 19  1  0
 19 20  1  0
 20 21  2  0
 20 22  1  0
 22 23  1  0
 22 24  1  0
 24 25  1  0
 25 26  2  0
 25 27  1  0
 27 28  1  0
 27 29  1  0
 29 30  1  0
 30 31  2  0
 30 32  1  0
 32 33  1  0
 32 34  1  0
 34 35  1  0
 35 36  2  0
 18 37  1  0
 37 38  2  0
 37 39  1  0
 39 40  1  0
 40 41  1  0
 40 42  1  0
 42 43  2  0
 42 44  1  0
 44 45  1  0
 45 46  1  0
 45 47  1  0
 47 48  2  0
 47 49  1  0
 49 50  1  0
 50 51  1  0
 50 52  1  0
 52 53  2  0
 52 54  1  0
 54 55  1  0
 55 56  1  0
 55 57  1  0
 57 58  2  0
 57 59  1  0
 59 60  1  0
 60 61  1  0
 61 62  1  0
 61 63  2  0
 60 64  1  0
 64 65  1  0
 65 66  1  0
 35  5  1  0
 14  9  2  0
 66 11  1  0
  1 67  1  0
  1 68  1  0
  1 69  1  0
  4 70  1  0
  5 71  1  6
  6 72  1  0
  6 73  1  0
  8 74  1  0
  8 75  1  0
 10 76  1  0
 12 77  1  0
 14 78  1  0
 15 79  1  0
 15 80  1  0
 17 81  1  0
 17 82  1  0
 18 83  1  6
 19 84  1  0
 22 85  1  1
 23 86  1  0
 23 87  1  0
 23 88  1  0
 24 89  1  0
 27 90  1  1
 28 91  1  0
 28 92  1  0
 28 93  1  0
 29 94  1  0
 32 95  1  1
 33 96  1  0
 33 97  1  0
 33 98  1  0
 34 99  1  0
 39100  1  0
 40101  1  1
 41102  1  0
 41103  1  0
 41104  1  0
 44105  1  0
 45106  1  1
 46107  1  0
 46108  1  0
 46109  1  0
 49110  1  0
 50111  1  1
 51112  1  0
 51113  1  0
 51114  1  0
 54115  1  0
 55116  1  1
 56117  1  0
 56118  1  0
 56119  1  0
 59120  1  0
 60121  1  6
 62122  1  0
 62123  1  0
 64124  1  0
 64125  1  0
 66126  1  0
 66127  1  0
M  END
