
     RDKit          3D

117119  0  0  0  0  0  0  0  0999 V2000
    6.8731    4.9656    2.7556 C   0  0  0  0  0  0  0  0  0  0  0  0
    6.0996    3.6924    2.5535 C   0  0  0  0  0  0  0  0  0  0  0  0
    5.4532    3.2349    3.5300 O   0  0  0  0  0  0  0  0  0  0  0  0
    6.0365    2.9957    1.2918 N   0  0  0  0  0  0  0  0  0  0  0  0
    6.5725    3.4928    0.0201 C   0  0  2  0  0  0  0  0  0  0  0  0
    5.6064    4.5302   -0.5876 C   0  0  0  0  0  0  0  0  0  0  0  0
    4.0463    3.7741   -1.1959 S   0  0  0  0  0  0  0  0  0  0  0  0
    3.0149    4.1657    0.2670 C   0  0  0  0  0  0  0  0  0  0  0  0
    1.6782    3.4861    0.1283 C   0  0  0  0  0  0  0  0  0  0  0  0
    1.6140    2.0900    0.0406 C   0  0  0  0  0  0  0  0  0  0  0  0
    0.3978    1.4221   -0.1846 C   0  0  0  0  0  0  0  0  0  0  0  0
   -0.7808    2.1790   -0.2730 C   0  0  0  0  0  0  0  0  0  0  0  0
   -0.7380    3.5807   -0.1429 C   0  0  0  0  0  0  0  0  0  0  0  0
    0.4968    4.2274    0.0415 C   0  0  0  0  0  0  0  0  0  0  0  0
   -2.0175    4.3767   -0.1590 C   0  0  0  0  0  0  0  0  0  0  0  0
   -2.9665    4.0510   -1.6890 S   0  0  0  0  0  0  0  0  0  0  0  0
   -4.5157    4.8502   -1.1167 C   0  0  0  0  0  0  0  0  0  0  0  0
   -5.3812    3.8731   -0.3036 C   0  0  1  0  0  0  0  0  0  0  0  0
   -6.5488    4.6136    0.2963 C   0  0  0  0  0  0  0  0  0  0  0  0
   -6.6843    4.7414    1.7118 N   0  0  0  0  0  0  0  0  0  0  0  0
   -7.4061    5.1479   -0.4602 O   0  0  0  0  0  0  0  0  0  0  0  0
   -5.8654    2.7681   -1.1412 N   0  0  0  0  0  0  0  0  0  0  0  0
   -6.5523    1.6354   -0.5768 C   0  0  0  0  0  0  0  0  0  0  0  0
   -6.7500    1.5880    0.6665 O   0  0  0  0  0  0  0  0  0  0  0  0
   -6.9621    0.4525   -1.4172 C   0  0  1  0  0  0  0  0  0  0  0  0
   -7.3419    0.8263   -2.8562 C   0  0  0  0  0  0  0  0  0  0  0  0
   -5.8703   -0.5267   -1.4319 N   0  0  0  0  0  0  0  0  0  0  0  0
   -6.0430   -1.9306   -1.1590 C   0  0  0  0  0  0  0  0  0  0  0  0
   -5.3647   -2.7620   -1.8231 O   0  0  0  0  0  0  0  0  0  0  0  0
   -6.9214   -2.4371   -0.0330 C   0  0  1  0  0  0  0  0  0  0  0  0
   -7.8723   -3.5418   -0.5221 C   0  0  0  0  0  0  0  0  0  0  0  0
   -6.0912   -2.8953    1.0881 N   0  0  0  0  0  0  0  0  0  0  0  0
   -5.0662   -3.8864    0.9516 C   0  0  0  0  0  0  0  0  0  0  0  0
   -5.3387   -5.0134    0.4493 O   0  0  0  0  0  0  0  0  0  0  0  0
   -3.6818   -3.6210    1.4858 C   0  0  1  0  0  0  0  0  0  0  0  0
   -3.5062   -4.3288    2.8381 C   0  0  0  0  0  0  0  0  0  0  0  0
   -2.6882   -4.0528    0.4932 N   0  0  0  0  0  0  0  0  0  0  0  0
   -1.2708   -4.0745    0.7219 C   0  0  0  0  0  0  0  0  0  0  0  0
   -0.8090   -4.6407    1.7538 O   0  0  0  0  0  0  0  0  0  0  0  0
   -0.3364   -3.6811   -0.4062 C   0  0  1  0  0  0  0  0  0  0  0  0
   -0.7809   -2.4163   -1.1727 C   0  0  0  0  0  0  0  0  0  0  0  0
   -1.0951   -0.9603   -0.1012 S   0  0  0  0  0  0  0  0  0  0  0  0
    0.4451   -0.0556   -0.5003 C   0  0  0  0  0  0  0  0  0  0  0  0
    1.0838   -3.5976   -0.0158 N   0  0  0  0  0  0  0  0  0  0  0  0
    1.5823   -3.1755    1.2685 C   0  0  0  0  0  0  0  0  0  0  0  0
    0.9005   -2.3955    1.9871 O   0  0  0  0  0  0  0  0  0  0  0  0
    2.8950   -3.6956    1.8093 C   0  0  1  0  0  0  0  0  0  0  0  0
    2.6298   -4.7376    2.8933 C   0  0  0  0  0  0  0  0  0  0  0  0
    3.7206   -4.2897    0.7529 N   0  0  0  0  0  0  0  0  0  0  0  0
    5.1144   -3.9844    0.6466 C   0  0  0  0  0  0  0  0  0  0  0  0
    5.9133   -4.4236    1.5226 O   0  0  0  0  0  0  0  0  0  0  0  0
    5.6475   -3.2460   -0.5494 C   0  0  1  0  0  0  0  0  0  0  0  0
    5.7450   -4.1737   -1.7637 C   0  0  0  0  0  0  0  0  0  0  0  0
    4.7834   -2.1082   -0.8516 N   0  0  0  0  0  0  0  0  0  0  0  0
    5.1823   -0.7488   -0.6328 C   0  0  0  0  0  0  0  0  0  0  0  0
    4.4310    0.0005    0.0416 O   0  0  0  0  0  0  0  0  0  0  0  0
    6.4165   -0.1747   -1.2845 C   0  0  1  0  0  0  0  0  0  0  0  0
    6.1079    0.1394   -2.7558 C   0  0  0  0  0  0  0  0  0  0  0  0
    6.8852    0.9894   -0.5103 N   0  0  0  0  0  0  0  0  0  0  0  0
    6.8748    2.3654   -0.9435 C   0  0  0  0  0  0  0  0  0  0  0  0
    7.3043    2.6558   -2.0981 O   0  0  0  0  0  0  0  0  0  0  0  0
    7.3387    5.3499    1.8325 H   0  0  0  0  0  0  0  0  0  0  0  0
    6.1899    5.7528    3.1433 H   0  0  0  0  0  0  0  0  0  0  0  0
    7.6766    4.7982    3.5005 H   0  0  0  0  0  0  0  0  0  0  0  0
    5.3873    2.1814    1.2639 H   0  0  0  0  0  0  0  0  0  0  0  0
    7.5475    3.9893    0.1975 H   0  0  0  0  0  0  0  0  0  0  0  0
    5.3934    5.3227    0.1619 H   0  0  0  0  0  0  0  0  0  0  0  0
    6.1013    5.0240   -1.4515 H   0  0  0  0  0  0  0  0  0  0  0  0
    3.4929    3.7741    1.1853 H   0  0  0  0  0  0  0  0  0  0  0  0
    2.9030    5.2659    0.3680 H   0  0  0  0  0  0  0  0  0  0  0  0
    2.5321    1.5234    0.0957 H   0  0  0  0  0  0  0  0  0  0  0  0
   -1.7280    1.6933   -0.4606 H   0  0  0  0  0  0  0  0  0  0  0  0
    0.5308    5.3095    0.1140 H   0  0  0  0  0  0  0  0  0  0  0  0
   -2.6082    4.0911    0.7325 H   0  0  0  0  0  0  0  0  0  0  0  0
   -1.8123    5.4713   -0.1019 H   0  0  0  0  0  0  0  0  0  0  0  0
   -4.2747    5.7568   -0.5137 H   0  0  0  0  0  0  0  0  0  0  0  0
   -5.0855    5.1808   -2.0167 H   0  0  0  0  0  0  0  0  0  0  0  0
   -4.7640    3.4425    0.5138 H   0  0  0  0  0  0  0  0  0  0  0  0
   -5.9400    4.3874    2.3575 H   0  0  0  0  0  0  0  0  0  0  0  0
   -7.4842    5.2758    2.1186 H   0  0  0  0  0  0  0  0  0  0  0  0
   -5.7957    2.8551   -2.1756 H   0  0  0  0  0  0  0  0  0  0  0  0
   -7.8782    0.0255   -0.9700 H   0  0  0  0  0  0  0  0  0  0  0  0
   -6.4394    1.0549   -3.4638 H   0  0  0  0  0  0  0  0  0  0  0  0
   -7.8649   -0.0316   -3.3237 H   0  0  0  0  0  0  0  0  0  0  0  0
   -8.0187    1.7039   -2.8731 H   0  0  0  0  0  0  0  0  0  0  0  0
   -4.9703   -0.2337   -1.8767 H   0  0  0  0  0  0  0  0  0  0  0  0
   -7.5592   -1.6215    0.3558 H   0  0  0  0  0  0  0  0  0  0  0  0
   -7.3299   -4.3844   -0.9877 H   0  0  0  0  0  0  0  0  0  0  0  0
   -8.5771   -3.1257   -1.2747 H   0  0  0  0  0  0  0  0  0  0  0  0
   -8.4672   -3.9367    0.3313 H   0  0  0  0  0  0  0  0  0  0  0  0
   -6.1373   -2.3614    1.9938 H   0  0  0  0  0  0  0  0  0  0  0  0
   -3.5681   -2.5242    1.6407 H   0  0  0  0  0  0  0  0  0  0  0  0
   -3.4218   -5.4295    2.6995 H   0  0  0  0  0  0  0  0  0  0  0  0
   -4.3723   -4.1107    3.4994 H   0  0  0  0  0  0  0  0  0  0  0  0
   -2.5998   -3.9425    3.3511 H   0  0  0  0  0  0  0  0  0  0  0  0
   -3.0039   -4.1640   -0.5037 H   0  0  0  0  0  0  0  0  0  0  0  0
   -0.4105   -4.5211   -1.1375 H   0  0  0  0  0  0  0  0  0  0  0  0
   -1.7265   -2.6316   -1.7176 H   0  0  0  0  0  0  0  0  0  0  0  0
   -0.0309   -2.2007   -1.9619 H   0  0  0  0  0  0  0  0  0  0  0  0
    1.2547   -0.5306    0.0819 H   0  0  0  0  0  0  0  0  0  0  0  0
    0.6986   -0.1642   -1.5728 H   0  0  0  0  0  0  0  0  0  0  0  0
    1.7773   -3.7936   -0.7795 H   0  0  0  0  0  0  0  0  0  0  0  0
    3.4452   -2.8424    2.2640 H   0  0  0  0  0  0  0  0  0  0  0  0
    3.5911   -5.1705    3.2552 H   0  0  0  0  0  0  0  0  0  0  0  0
    1.9969   -5.5620    2.4895 H   0  0  0  0  0  0  0  0  0  0  0  0
    2.1057   -4.2672    3.7548 H   0  0  0  0  0  0  0  0  0  0  0  0
    3.3657   -5.1124    0.2109 H   0  0  0  0  0  0  0  0  0  0  0  0
    6.6732   -2.8875   -0.3020 H   0  0  0  0  0  0  0  0  0  0  0  0
    6.4277   -5.0264   -1.5497 H   0  0  0  0  0  0  0  0  0  0  0  0
    4.7441   -4.5703   -2.0270 H   0  0  0  0  0  0  0  0  0  0  0  0
    6.1432   -3.6040   -2.6328 H   0  0  0  0  0  0  0  0  0  0  0  0
    3.7712   -2.2880   -1.0123 H   0  0  0  0  0  0  0  0  0  0  0  0
    7.2318   -0.9281   -1.2658 H   0  0  0  0  0  0  0  0  0  0  0  0
    7.0344    0.4389   -3.2874 H   0  0  0  0  0  0  0  0  0  0  0  0
    5.3390    0.9387   -2.8435 H   0  0  0  0  0  0  0  0  0  0  0  0
    5.7255   -0.7774   -3.2602 H   0  0  0  0  0  0  0  0  0  0  0  0
    7.1447    0.8011    0.4831 H   0  0  0  0  0  0  0  0  0  0  0  0
  1  2  1  0
  2  3  2  0
  2  4  1  0
  4  5  1  0
  5  6  1  0
  6  7  1  0
  7  8  1  0
  8  9  1  0
  9 10  2  0
 10 11  1  0
 11 12  2  0
 12 13  1  0
 13 14  2  0
 13 15  1  0
 15 16  1  0
 16 17  1  0
 17 18  1  0
 18 19  1  0
 19 20  1  0
 19 21  2  0
 18 22  1  0
 22 23  1  0
 23 24  2  0
 23 25  1  0
 25 26  1  0
 25 27  1  0
 27 28  1  0
 28 29  2  0
 28 30  1  0
 30 31  1  0
 30 32  1  0
 32 33  1  0
 33 34  2  0
 33 35  1  0
 35 36  1  0
 35 37  1  0
 37 38  1  0
 38 39  2  0
 38 40  1  0
 40 41  1  0
 41 42  1  0
 42 43  1  0
 40 44  1  0
 44 45  1  0
 45 46  2  0
 45 47  1  0
 47 48  1  0
 47 49  1  0
 49 50  1  0
 50 51  2  0
 50 52  1  0
 52 53  1  0
 52 54  1  0
 54 55  1  0
 55 56  2  0
 55 57  1  0
 57 58  1  0
 57 59  1  0
 59 60  1  0
 60 61  2  0
 60  5  1  0
 14  9  1  0
 43 11  1  0
  1 62  1  0
  1 63  1  0
  1 64  1  0
  4 65  1  0
  5 66  1  1
  6 67  1  0
  6 68  1  0
  8 69  1  0
  8 70  1  0
 10 71  1  0
 12 72  1  0
 14 73  1  0
 15 74  1  0
 15 75  1  0
 17 76  1  0
 17 77  1  0
 18 78  1  1
 20 79  1  0
 20 80  1  0
 22 81  1  0
 25 82  1  1
 26 83  1  0
 26 84  1  0
 26 85  1  0
 27 86  1  0
 30 87  1  1
 31 88  1  0
 31 89  1  0
 31 90  1  0
 32 91  1  0
 35 92  1  1
 36 93  1  0
 36 94  1  0
 36 95  1  0
 37 96  1  0
 40 97  1  6
 41 98  1  0
 41 99  1  0
 43100  1  0
 43101  1  0
 44102  1  0
 47103  1  1
 48104  1  0
 48105  1  0
 48106  1  0
 49107  1  0
 52108  1  1
 53109  1  0
 53110  1  0
 53111  1  0
 54112  1  0
 57113  1  6
 58114  1  0
 58115  1  0
 58116  1  0
 59117  1  0
M  END
