
     RDKit          3D

127129  0  0  0  0  0  0  0  0999 V2000
    9.4527    1.4365   -0.3633 C   0  0  0  0  0  0  0  0  0  0  0  0
    9.0656    1.3548   -1.8106 C   0  0  0  0  0  0  0  0  0  0  0  0
    9.9757    1.3274   -2.6823 O   0  0  0  0  0  0  0  0  0  0  0  0
    7.6932    1.3214   -2.2442 N   0  0  0  0  0  0  0  0  0  0  0  0
    6.5270    1.3994   -1.3544 C   0  0  1  0  0  0  0  0  0  0  0  0
    5.5747    2.5090   -1.8517 C   0  0  0  0  0  0  0  0  0  0  0  0
    4.8992    3.4782   -0.4442 S   0  0  0  0  0  0  0  0  0  0  0  0
    3.1878    3.7077   -1.0688 C   0  0  0  0  0  0  0  0  0  0  0  0
    2.2180    3.0773   -0.1132 C   0  0  0  0  0  0  0  0  0  0  0  0
    1.1711    3.8269    0.4458 C   0  0  0  0  0  0  0  0  0  0  0  0
    0.2747    3.2336    1.3627 C   0  0  0  0  0  0  0  0  0  0  0  0
    0.4226    1.8763    1.6769 C   0  0  0  0  0  0  0  0  0  0  0  0
    1.4506    1.1160    1.1046 C   0  0  0  0  0  0  0  0  0  0  0  0
    2.3507    1.7253    0.2217 C   0  0  0  0  0  0  0  0  0  0  0  0
    1.6596   -0.3106    1.5300 C   0  0  0  0  0  0  0  0  0  0  0  0
    2.0009   -1.3721    0.0809 S   0  0  0  0  0  0  0  0  0  0  0  0
    2.7187   -2.7492    1.0462 C   0  0  0  0  0  0  0  0  0  0  0  0
    3.2174   -3.8556    0.1083 C   0  0  1  0  0  0  0  0  0  0  0  0
    4.0541   -3.3401   -0.9916 N   0  0  0  0  0  0  0  0  0  0  0  0
    5.4360   -2.9378   -0.9298 C   0  0  0  0  0  0  0  0  0  0  0  0
    6.1862   -3.2622   -1.8892 O   0  0  0  0  0  0  0  0  0  0  0  0
    5.9778   -2.0237    0.1529 C   0  0  1  0  0  0  0  0  0  0  0  0
    7.5053   -2.1365    0.2830 C   0  0  0  0  0  0  0  0  0  0  0  0
    5.6126   -0.6186   -0.0788 N   0  0  0  0  0  0  0  0  0  0  0  0
    5.8418    0.0545   -1.3277 C   0  0  0  0  0  0  0  0  0  0  0  0
    5.4938   -0.4814   -2.4110 O   0  0  0  0  0  0  0  0  0  0  0  0
    3.8981   -4.9771    0.8602 C   0  0  0  0  0  0  0  0  0  0  0  0
    5.0584   -4.8040    1.3315 O   0  0  0  0  0  0  0  0  0  0  0  0
    3.2650   -6.2514    1.0611 N   0  0  0  0  0  0  0  0  0  0  0  0
    1.8209   -6.3968    1.2791 C   0  0  2  0  0  0  0  0  0  0  0  0
    1.5462   -7.5692    2.2293 C   0  0  0  0  0  0  0  0  0  0  0  0
    1.1202   -6.6326   -0.0369 C   0  0  0  0  0  0  0  0  0  0  0  0
    1.5421   -7.5409   -0.7976 O   0  0  0  0  0  0  0  0  0  0  0  0
   -0.0157   -5.8523   -0.4528 N   0  0  0  0  0  0  0  0  0  0  0  0
   -1.0556   -5.3547    0.4577 C   0  0  2  0  0  0  0  0  0  0  0  0
   -2.1774   -6.3932    0.5414 C   0  0  0  0  0  0  0  0  0  0  0  0
   -1.5268   -3.9988   -0.0290 C   0  0  0  0  0  0  0  0  0  0  0  0
   -0.6594   -3.1175   -0.2682 O   0  0  0  0  0  0  0  0  0  0  0  0
   -2.9188   -3.6858   -0.2196 N   0  0  0  0  0  0  0  0  0  0  0  0
   -3.4020   -2.8019   -1.2834 C   0  0  2  0  0  0  0  0  0  0  0  0
   -2.9252   -3.2983   -2.6605 C   0  0  0  0  0  0  0  0  0  0  0  0
   -2.9981   -1.3634   -1.0107 C   0  0  0  0  0  0  0  0  0  0  0  0
   -2.0142   -0.8740   -1.6286 O   0  0  0  0  0  0  0  0  0  0  0  0
   -3.6352   -0.5570    0.0009 N   0  0  0  0  0  0  0  0  0  0  0  0
   -5.0759   -0.4783    0.2975 C   0  0  2  0  0  0  0  0  0  0  0  0
   -5.5744   -1.7161    1.0565 C   0  0  0  0  0  0  0  0  0  0  0  0
   -5.8790   -0.1788   -0.9543 C   0  0  0  0  0  0  0  0  0  0  0  0
   -6.0542   -1.0867   -1.8067 O   0  0  0  0  0  0  0  0  0  0  0  0
   -6.4105    1.1309   -1.2440 N   0  0  0  0  0  0  0  0  0  0  0  0
   -6.8394    2.1105   -0.2353 C   0  0  2  0  0  0  0  0  0  0  0  0
   -7.9799    1.5294    0.6120 C   0  0  0  0  0  0  0  0  0  0  0  0
   -7.3290    3.3812   -0.9163 C   0  0  0  0  0  0  0  0  0  0  0  0
   -8.2528    3.2802   -1.7697 O   0  0  0  0  0  0  0  0  0  0  0  0
   -6.8346    4.6966   -0.5949 N   0  0  0  0  0  0  0  0  0  0  0  0
   -5.7007    4.9918    0.2890 C   0  0  2  0  0  0  0  0  0  0  0  0
   -6.1314    4.8964    1.7577 C   0  0  0  0  0  0  0  0  0  0  0  0
   -5.1768    6.3875    0.0034 C   0  0  0  0  0  0  0  0  0  0  0  0
   -5.9438    7.3689    0.1790 O   0  0  0  0  0  0  0  0  0  0  0  0
   -3.8569    6.6305   -0.5143 N   0  0  0  0  0  0  0  0  0  0  0  0
   -2.6593    5.9044   -0.0712 C   0  0  1  0  0  0  0  0  0  0  0  0
   -1.5061    6.2054   -0.9936 C   0  0  0  0  0  0  0  0  0  0  0  0
   -0.9592    5.1800   -1.8251 N   0  0  0  0  0  0  0  0  0  0  0  0
   -1.0067    7.3671   -1.0352 O   0  0  0  0  0  0  0  0  0  0  0  0
   -2.3532    6.2656    1.3993 C   0  0  0  0  0  0  0  0  0  0  0  0
   -0.6659    5.8040    1.9614 S   0  0  0  0  0  0  0  0  0  0  0  0
   -0.8972    3.9816    1.9484 C   0  0  0  0  0  0  0  0  0  0  0  0
    9.1228    0.5190    0.1677 H   0  0  0  0  0  0  0  0  0  0  0  0
   10.5451    1.5494   -0.2602 H   0  0  0  0  0  0  0  0  0  0  0  0
    8.9738    2.3201    0.1002 H   0  0  0  0  0  0  0  0  0  0  0  0
    7.5176    1.1998   -3.2667 H   0  0  0  0  0  0  0  0  0  0  0  0
    6.8529    1.6486   -0.3191 H   0  0  0  0  0  0  0  0  0  0  0  0
    6.1357    3.2340   -2.4814 H   0  0  0  0  0  0  0  0  0  0  0  0
    4.7796    2.0745   -2.4949 H   0  0  0  0  0  0  0  0  0  0  0  0
    3.0081    4.7995   -1.1591 H   0  0  0  0  0  0  0  0  0  0  0  0
    3.0346    3.2762   -2.0757 H   0  0  0  0  0  0  0  0  0  0  0  0
    1.0715    4.8673    0.1611 H   0  0  0  0  0  0  0  0  0  0  0  0
   -0.2641    1.4189    2.3807 H   0  0  0  0  0  0  0  0  0  0  0  0
    3.1766    1.1526   -0.1831 H   0  0  0  0  0  0  0  0  0  0  0  0
    0.7552   -0.7114    2.0362 H   0  0  0  0  0  0  0  0  0  0  0  0
    2.5100   -0.3436    2.2426 H   0  0  0  0  0  0  0  0  0  0  0  0
    3.5248   -2.3779    1.7105 H   0  0  0  0  0  0  0  0  0  0  0  0
    1.9202   -3.1580    1.7052 H   0  0  0  0  0  0  0  0  0  0  0  0
    2.3027   -4.2718   -0.3591 H   0  0  0  0  0  0  0  0  0  0  0  0
    3.6810   -3.5049   -1.9550 H   0  0  0  0  0  0  0  0  0  0  0  0
    5.5787   -2.3403    1.1315 H   0  0  0  0  0  0  0  0  0  0  0  0
    8.0078   -1.7712   -0.6372 H   0  0  0  0  0  0  0  0  0  0  0  0
    7.7987   -3.1901    0.4626 H   0  0  0  0  0  0  0  0  0  0  0  0
    7.8579   -1.5264    1.1370 H   0  0  0  0  0  0  0  0  0  0  0  0
    5.4970   -0.0229    0.7753 H   0  0  0  0  0  0  0  0  0  0  0  0
    3.8926   -7.0592    1.2877 H   0  0  0  0  0  0  0  0  0  0  0  0
    1.4531   -5.4762    1.7760 H   0  0  0  0  0  0  0  0  0  0  0  0
    2.0666   -7.3994    3.1997 H   0  0  0  0  0  0  0  0  0  0  0  0
    1.9137   -8.5239    1.7888 H   0  0  0  0  0  0  0  0  0  0  0  0
    0.4583   -7.6604    2.4163 H   0  0  0  0  0  0  0  0  0  0  0  0
   -0.2600   -5.8823   -1.4701 H   0  0  0  0  0  0  0  0  0  0  0  0
   -0.6528   -5.2149    1.4788 H   0  0  0  0  0  0  0  0  0  0  0  0
   -2.9133   -6.1146    1.3304 H   0  0  0  0  0  0  0  0  0  0  0  0
   -2.6951   -6.4954   -0.4339 H   0  0  0  0  0  0  0  0  0  0  0  0
   -1.7529   -7.3828    0.8205 H   0  0  0  0  0  0  0  0  0  0  0  0
   -3.6385   -4.1782    0.3604 H   0  0  0  0  0  0  0  0  0  0  0  0
   -4.5021   -2.8730   -1.3215 H   0  0  0  0  0  0  0  0  0  0  0  0
   -3.3625   -2.6708   -3.4617 H   0  0  0  0  0  0  0  0  0  0  0  0
   -1.8166   -3.2551   -2.7401 H   0  0  0  0  0  0  0  0  0  0  0  0
   -3.2483   -4.3480   -2.8106 H   0  0  0  0  0  0  0  0  0  0  0  0
   -3.0443    0.1991    0.4120 H   0  0  0  0  0  0  0  0  0  0  0  0
   -5.2029    0.3634    1.0061 H   0  0  0  0  0  0  0  0  0  0  0  0
   -6.5120   -1.4715    1.6004 H   0  0  0  0  0  0  0  0  0  0  0  0
   -5.7989   -2.5634    0.3866 H   0  0  0  0  0  0  0  0  0  0  0  0
   -4.8168   -2.0346    1.8043 H   0  0  0  0  0  0  0  0  0  0  0  0
   -6.5994    1.3329   -2.2549 H   0  0  0  0  0  0  0  0  0  0  0  0
   -5.9802    2.3374    0.4209 H   0  0  0  0  0  0  0  0  0  0  0  0
   -8.8359    1.2379   -0.0361 H   0  0  0  0  0  0  0  0  0  0  0  0
   -8.3314    2.2889    1.3491 H   0  0  0  0  0  0  0  0  0  0  0  0
   -7.6433    0.6364    1.1737 H   0  0  0  0  0  0  0  0  0  0  0  0
   -7.2963    5.4915   -1.0909 H   0  0  0  0  0  0  0  0  0  0  0  0
   -4.9057    4.2492    0.1013 H   0  0  0  0  0  0  0  0  0  0  0  0
   -6.5155    3.8871    2.0009 H   0  0  0  0  0  0  0  0  0  0  0  0
   -5.2729    5.0990    2.4261 H   0  0  0  0  0  0  0  0  0  0  0  0
   -6.9372    5.6282    1.9777 H   0  0  0  0  0  0  0  0  0  0  0  0
   -3.7042    7.5636   -0.9745 H   0  0  0  0  0  0  0  0  0  0  0  0
   -2.8546    4.8216   -0.1448 H   0  0  0  0  0  0  0  0  0  0  0  0
   -0.1349    5.3792   -2.4359 H   0  0  0  0  0  0  0  0  0  0  0  0
   -1.3606    4.2167   -1.8143 H   0  0  0  0  0  0  0  0  0  0  0  0
   -3.0880    5.7853    2.0729 H   0  0  0  0  0  0  0  0  0  0  0  0
   -2.4468    7.3618    1.5337 H   0  0  0  0  0  0  0  0  0  0  0  0
   -1.8099    3.6755    1.4012 H   0  0  0  0  0  0  0  0  0  0  0  0
   -1.0422    3.6671    3.0031 H   0  0  0  0  0  0  0  0  0  0  0  0
  1  2  1  0
  2  3  2  0
  2  4  1  0
  4  5  1  0
  5  6  1  0
  6  7  1  0
  7  8  1  0
  8  9  1  0
  9 10  1  0
 10 11  2  0
 11 12  1  0
 12 13  2  0
 13 14  1  0
 13 15  1  0
 15 16  1  0
 16 17  1  0
 17 18  1  0
 18 19  1  0
 19 20  1  0
 20 21  2  0
 20 22  1  0
 22 23  1  0
 22 24  1  0
 24 25  1  0
 25 26  2  0
 18 27  1  0
 27 28  2  0
 27 29  1  0
 29 30  1  0
 30 31  1  0
 30 32  1  0
 32 33  2  0
 32 34  1  0
 34 35  1  0
 35 36  1  0
 35 37  1  0
 37 38  2  0
 37 39  1  0
 39 40  1  0
 40 41  1  0
 40 42  1  0
 42 43  2  0
 42 44  1  0
 44 45  1  0
 45 46  1  0
 45 47  1  0
 47 48  2  0
 47 49  1  0
 49 50  1  0
 50 51  1  0
 50 52  1  0
 52 53  2  0
 52 54  1  0
 54 55  1  0
 55 56  1  0
 55 57  1  0
 57 58  2  0
 57 59  1  0
 59 60  1  0
 60 61  1  0
 61 62  1  0
 61 63  2  0
 60 64  1  0
 64 65  1  0
 65 66  1  0
 25  5  1  0
 14  9  2  0
 66 11  1  0
  1 67  1  0
  1 68  1  0
  1 69  1  0
  4 70  1  0
  5 71  1  1
  6 72  1  0
  6 73  1  0
  8 74  1  0
  8 75  1  0
 10 76  1  0
 12 77  1  0
 14 78  1  0
 15 79  1  0
 15 80  1  0
 17 81  1  0
 17 82  1  0
 18 83  1  6
 19 84  1  0
 22 85  1  1
 23 86  1  0
 23 87  1  0
 23 88  1  0
 24 89  1  0
 29 90  1  0
 30 91  1  1
 31 92  1  0
 31 93  1  0
 31 94  1  0
 34 95  1  0
 35 96  1  1
 36 97  1  0
 36 98  1  0
 36 99  1  0
 39100  1  0
 40101  1  6
 41102  1  0
 41103  1  0
 41104  1  0
 44105  1  0
 45106  1  1
 46107  1  0
 46108  1  0
 46109  1  0
 49110  1  0
 50111  1  1
 51112  1  0
 51113  1  0
 51114  1  0
 54115  1  0
 55116  1  1
 56117  1  0
 56118  1  0
 56119  1  0
 59120  1  0
 60121  1  1
 62122  1  0
 62123  1  0
 64124  1  0
 64125  1  0
 66126  1  0
 66127  1  0
M  END
