
     RDKit          3D

157159  0  0  0  0  0  0  0  0999 V2000
  -10.8053    5.1029   -1.4196 C   0  0  0  0  0  0  0  0  0  0  0  0
   -9.3471    5.3699   -1.2111 C   0  0  0  0  0  0  0  0  0  0  0  0
   -8.9900    6.4114   -0.5890 O   0  0  0  0  0  0  0  0  0  0  0  0
   -8.3629    4.4849   -1.7625 N   0  0  0  0  0  0  0  0  0  0  0  0
   -7.2794    3.8743   -0.9825 C   0  0  1  0  0  0  0  0  0  0  0  0
   -6.2106    4.9088   -0.5754 C   0  0  0  0  0  0  0  0  0  0  0  0
   -4.9402    4.2433    0.5704 S   0  0  0  0  0  0  0  0  0  0  0  0
   -4.1430    3.0799   -0.5918 C   0  0  0  0  0  0  0  0  0  0  0  0
   -2.9185    2.5030    0.0519 C   0  0  0  0  0  0  0  0  0  0  0  0
   -3.0005    1.3157    0.8044 C   0  0  0  0  0  0  0  0  0  0  0  0
   -1.8681    0.8113    1.4630 C   0  0  0  0  0  0  0  0  0  0  0  0
   -0.6476    1.4929    1.3561 C   0  0  0  0  0  0  0  0  0  0  0  0
   -0.5580    2.6854    0.6202 C   0  0  0  0  0  0  0  0  0  0  0  0
   -1.6939    3.1825   -0.0342 C   0  0  0  0  0  0  0  0  0  0  0  0
    0.7349    3.4537    0.5656 C   0  0  0  0  0  0  0  0  0  0  0  0
    0.5338    5.0714    1.4066 S   0  0  0  0  0  0  0  0  0  0  0  0
    1.0789    6.1095    0.0030 C   0  0  0  0  0  0  0  0  0  0  0  0
    2.6162    6.1745   -0.0654 C   0  0  1  0  0  0  0  0  0  0  0  0
    3.0526    6.6843   -1.4116 C   0  0  0  0  0  0  0  0  0  0  0  0
    2.7275    8.0129   -1.8251 N   0  0  0  0  0  0  0  0  0  0  0  0
    3.7010    5.9324   -2.1854 O   0  0  0  0  0  0  0  0  0  0  0  0
    3.1436    7.0311    1.0026 N   0  0  0  0  0  0  0  0  0  0  0  0
    4.4196    6.7999    1.6194 C   0  0  0  0  0  0  0  0  0  0  0  0
    4.5183    6.9224    2.8732 O   0  0  0  0  0  0  0  0  0  0  0  0
    5.6463    6.4486    0.8071 C   0  0  1  0  0  0  0  0  0  0  0  0
    6.1154    7.6800    0.0188 C   0  0  0  0  0  0  0  0  0  0  0  0
    6.7285    6.0020    1.6905 N   0  0  0  0  0  0  0  0  0  0  0  0
    7.1230    4.6310    1.8199 C   0  0  0  0  0  0  0  0  0  0  0  0
    7.1242    4.1154    2.9691 O   0  0  0  0  0  0  0  0  0  0  0  0
    7.5355    3.7909    0.6293 C   0  0  1  0  0  0  0  0  0  0  0  0
    8.2265    4.6391   -0.4500 C   0  0  0  0  0  0  0  0  0  0  0  0
    8.4692    2.7461    1.0691 N   0  0  0  0  0  0  0  0  0  0  0  0
    8.2240    1.3319    0.9949 C   0  0  0  0  0  0  0  0  0  0  0  0
    8.7671    0.5860    1.8576 O   0  0  0  0  0  0  0  0  0  0  0  0
    7.3483    0.7125   -0.0776 C   0  0  1  0  0  0  0  0  0  0  0  0
    7.7372    1.1665   -1.4954 C   0  0  0  0  0  0  0  0  0  0  0  0
    7.3736   -0.7554   -0.0008 N   0  0  0  0  0  0  0  0  0  0  0  0
    8.5197   -1.5493   -0.3405 C   0  0  0  0  0  0  0  0  0  0  0  0
    9.6719   -1.0356   -0.3359 O   0  0  0  0  0  0  0  0  0  0  0  0
    8.3352   -3.0029   -0.6998 C   0  0  1  0  0  0  0  0  0  0  0  0
    9.5132   -3.5487   -1.5103 C   0  0  0  0  0  0  0  0  0  0  0  0
    8.1648   -3.7960    0.5232 N   0  0  0  0  0  0  0  0  0  0  0  0
    7.0601   -4.6796    0.7893 C   0  0  0  0  0  0  0  0  0  0  0  0
    7.2148   -5.6026    1.6374 O   0  0  0  0  0  0  0  0  0  0  0  0
    5.7399   -4.5695    0.0617 C   0  0  1  0  0  0  0  0  0  0  0  0
    5.7729   -5.4402   -1.2056 C   0  0  0  0  0  0  0  0  0  0  0  0
    4.6325   -4.9177    0.9702 N   0  0  0  0  0  0  0  0  0  0  0  0
    4.0424   -6.2194    1.0634 C   0  0  0  0  0  0  0  0  0  0  0  0
    4.3475   -6.9747    2.0276 O   0  0  0  0  0  0  0  0  0  0  0  0
    2.9511   -6.6298    0.1063 C   0  0  1  0  0  0  0  0  0  0  0  0
    3.2153   -8.0159   -0.4891 C   0  0  0  0  0  0  0  0  0  0  0  0
    1.6583   -6.6254    0.7802 N   0  0  0  0  0  0  0  0  0  0  0  0
    0.6415   -5.6961    0.4093 C   0  0  0  0  0  0  0  0  0  0  0  0
    0.7348   -4.4986    0.7887 O   0  0  0  0  0  0  0  0  0  0  0  0
   -0.5399   -6.1678   -0.3938 C   0  0  1  0  0  0  0  0  0  0  0  0
   -1.7166   -6.5468    0.5058 C   0  0  0  0  0  0  0  0  0  0  0  0
   -0.9128   -5.2073   -1.4472 N   0  0  0  0  0  0  0  0  0  0  0  0
   -1.2193   -3.8163   -1.2479 C   0  0  0  0  0  0  0  0  0  0  0  0
   -0.5263   -2.9545   -1.8591 O   0  0  0  0  0  0  0  0  0  0  0  0
   -2.4760   -3.3838   -0.5280 C   0  0  1  0  0  0  0  0  0  0  0  0
   -2.3985   -1.9621    0.0489 C   0  0  0  0  0  0  0  0  0  0  0  0
   -1.1938   -1.8716    1.4231 S   0  0  0  0  0  0  0  0  0  0  0  0
   -1.9635   -0.4521    2.2808 C   0  0  0  0  0  0  0  0  0  0  0  0
   -3.6050   -3.4667   -1.4503 N   0  0  0  0  0  0  0  0  0  0  0  0
   -4.4666   -4.6062   -1.4573 C   0  0  0  0  0  0  0  0  0  0  0  0
   -4.2477   -5.5277   -2.2906 O   0  0  0  0  0  0  0  0  0  0  0  0
   -5.7330   -4.6278   -0.6308 C   0  0  1  0  0  0  0  0  0  0  0  0
   -6.0795   -6.0539   -0.1873 C   0  0  0  0  0  0  0  0  0  0  0  0
   -5.6078   -3.7813    0.5629 N   0  0  0  0  0  0  0  0  0  0  0  0
   -6.6840   -3.0422    1.1743 C   0  0  0  0  0  0  0  0  0  0  0  0
   -6.4220   -2.3137    2.1733 O   0  0  0  0  0  0  0  0  0  0  0  0
   -8.1036   -3.0732    0.6496 C   0  0  1  0  0  0  0  0  0  0  0  0
   -9.1276   -3.2928    1.7730 C   0  0  0  0  0  0  0  0  0  0  0  0
   -8.3840   -1.8550   -0.1226 N   0  0  0  0  0  0  0  0  0  0  0  0
   -8.3672   -0.5276    0.4276 C   0  0  0  0  0  0  0  0  0  0  0  0
   -8.7187   -0.3369    1.6234 O   0  0  0  0  0  0  0  0  0  0  0  0
   -7.9891    0.6442   -0.4403 C   0  0  1  0  0  0  0  0  0  0  0  0
   -9.1830    1.0382   -1.3252 C   0  0  0  0  0  0  0  0  0  0  0  0
   -7.5100    1.7505    0.4051 N   0  0  0  0  0  0  0  0  0  0  0  0
   -7.8289    3.1319    0.2121 C   0  0  0  0  0  0  0  0  0  0  0  0
   -8.4877    3.7416    1.0931 O   0  0  0  0  0  0  0  0  0  0  0  0
  -11.3050    5.0222   -0.4313 H   0  0  0  0  0  0  0  0  0  0  0  0
  -11.2658    5.9274   -2.0002 H   0  0  0  0  0  0  0  0  0  0  0  0
  -10.9517    4.1417   -1.9645 H   0  0  0  0  0  0  0  0  0  0  0  0
   -8.5516    4.0949   -2.7128 H   0  0  0  0  0  0  0  0  0  0  0  0
   -6.7783    3.1340   -1.6381 H   0  0  0  0  0  0  0  0  0  0  0  0
   -5.7108    5.3134   -1.4825 H   0  0  0  0  0  0  0  0  0  0  0  0
   -6.6837    5.7588   -0.0471 H   0  0  0  0  0  0  0  0  0  0  0  0
   -3.8738    3.6057   -1.5332 H   0  0  0  0  0  0  0  0  0  0  0  0
   -4.8435    2.2592   -0.8465 H   0  0  0  0  0  0  0  0  0  0  0  0
   -3.9451    0.7875    0.8743 H   0  0  0  0  0  0  0  0  0  0  0  0
    0.2257    1.1025    1.8688 H   0  0  0  0  0  0  0  0  0  0  0  0
   -1.6263    4.0993   -0.6068 H   0  0  0  0  0  0  0  0  0  0  0  0
    1.5464    2.8985    1.0816 H   0  0  0  0  0  0  0  0  0  0  0  0
    1.0420    3.5572   -0.4945 H   0  0  0  0  0  0  0  0  0  0  0  0
    0.6580    7.1282    0.1509 H   0  0  0  0  0  0  0  0  0  0  0  0
    0.6451    5.7239   -0.9413 H   0  0  0  0  0  0  0  0  0  0  0  0
    3.0045    5.1420    0.0670 H   0  0  0  0  0  0  0  0  0  0  0  0
    3.0072    8.3470   -2.7724 H   0  0  0  0  0  0  0  0  0  0  0  0
    2.2237    8.6687   -1.1846 H   0  0  0  0  0  0  0  0  0  0  0  0
    2.4862    7.6600    1.5193 H   0  0  0  0  0  0  0  0  0  0  0  0
    5.3836    5.6406    0.0916 H   0  0  0  0  0  0  0  0  0  0  0  0
    5.3107    8.0597   -0.6416 H   0  0  0  0  0  0  0  0  0  0  0  0
    6.9848    7.4178   -0.6186 H   0  0  0  0  0  0  0  0  0  0  0  0
    6.4213    8.4928    0.7143 H   0  0  0  0  0  0  0  0  0  0  0  0
    7.0578    6.6619    2.4322 H   0  0  0  0  0  0  0  0  0  0  0  0
    6.6159    3.3405    0.2004 H   0  0  0  0  0  0  0  0  0  0  0  0
    8.7942    3.9922   -1.1474 H   0  0  0  0  0  0  0  0  0  0  0  0
    8.9403    5.3613    0.0082 H   0  0  0  0  0  0  0  0  0  0  0  0
    7.4717    5.1876   -1.0483 H   0  0  0  0  0  0  0  0  0  0  0  0
    9.3322    3.0561    1.5745 H   0  0  0  0  0  0  0  0  0  0  0  0
    6.3001    1.0375    0.1111 H   0  0  0  0  0  0  0  0  0  0  0  0
    7.3349    2.1760   -1.7063 H   0  0  0  0  0  0  0  0  0  0  0  0
    7.3028    0.4773   -2.2495 H   0  0  0  0  0  0  0  0  0  0  0  0
    8.8378    1.1845   -1.6220 H   0  0  0  0  0  0  0  0  0  0  0  0
    6.4703   -1.2499    0.1897 H   0  0  0  0  0  0  0  0  0  0  0  0
    7.4434   -3.0663   -1.3524 H   0  0  0  0  0  0  0  0  0  0  0  0
    9.2994   -4.5910   -1.8307 H   0  0  0  0  0  0  0  0  0  0  0  0
   10.4436   -3.5477   -0.9063 H   0  0  0  0  0  0  0  0  0  0  0  0
    9.6687   -2.9304   -2.4218 H   0  0  0  0  0  0  0  0  0  0  0  0
    8.9688   -3.8246    1.1940 H   0  0  0  0  0  0  0  0  0  0  0  0
    5.5784   -3.5156   -0.2476 H   0  0  0  0  0  0  0  0  0  0  0  0
    6.6145   -5.1405   -1.8625 H   0  0  0  0  0  0  0  0  0  0  0  0
    5.9192   -6.5073   -0.9450 H   0  0  0  0  0  0  0  0  0  0  0  0
    4.8400   -5.3096   -1.7874 H   0  0  0  0  0  0  0  0  0  0  0  0
    4.5175   -4.3000    1.8054 H   0  0  0  0  0  0  0  0  0  0  0  0
    2.9251   -5.9024   -0.7355 H   0  0  0  0  0  0  0  0  0  0  0  0
    2.4004   -8.2787   -1.1967 H   0  0  0  0  0  0  0  0  0  0  0  0
    3.2528   -8.7876    0.3099 H   0  0  0  0  0  0  0  0  0  0  0  0
    4.1765   -8.0355   -1.0463 H   0  0  0  0  0  0  0  0  0  0  0  0
    1.4248   -7.3808    1.4642 H   0  0  0  0  0  0  0  0  0  0  0  0
   -0.2295   -7.1082   -0.9095 H   0  0  0  0  0  0  0  0  0  0  0  0
   -1.5235   -7.5394    0.9706 H   0  0  0  0  0  0  0  0  0  0  0  0
   -1.8483   -5.8195    1.3345 H   0  0  0  0  0  0  0  0  0  0  0  0
   -2.6520   -6.6219   -0.0854 H   0  0  0  0  0  0  0  0  0  0  0  0
   -0.6721   -5.4848   -2.4274 H   0  0  0  0  0  0  0  0  0  0  0  0
   -2.6491   -4.0660    0.3183 H   0  0  0  0  0  0  0  0  0  0  0  0
   -3.4134   -1.6860    0.4151 H   0  0  0  0  0  0  0  0  0  0  0  0
   -2.1157   -1.2316   -0.7385 H   0  0  0  0  0  0  0  0  0  0  0  0
   -3.0200   -0.6881    2.5380 H   0  0  0  0  0  0  0  0  0  0  0  0
   -1.4334   -0.2999    3.2433 H   0  0  0  0  0  0  0  0  0  0  0  0
   -3.5985   -2.8607   -2.3037 H   0  0  0  0  0  0  0  0  0  0  0  0
   -6.5335   -4.2462   -1.2920 H   0  0  0  0  0  0  0  0  0  0  0  0
   -5.2739   -6.4688    0.4546 H   0  0  0  0  0  0  0  0  0  0  0  0
   -6.2145   -6.7203   -1.0643 H   0  0  0  0  0  0  0  0  0  0  0  0
   -7.0302   -6.0500    0.3903 H   0  0  0  0  0  0  0  0  0  0  0  0
   -4.7286   -3.8481    1.1241 H   0  0  0  0  0  0  0  0  0  0  0  0
   -8.2416   -3.9451   -0.0242 H   0  0  0  0  0  0  0  0  0  0  0  0
   -9.0003   -4.3154    2.2000 H   0  0  0  0  0  0  0  0  0  0  0  0
  -10.1575   -3.2020    1.3783 H   0  0  0  0  0  0  0  0  0  0  0  0
   -8.9929   -2.5686    2.6074 H   0  0  0  0  0  0  0  0  0  0  0  0
   -8.4594   -1.9592   -1.1628 H   0  0  0  0  0  0  0  0  0  0  0  0
   -7.1501    0.3227   -1.0977 H   0  0  0  0  0  0  0  0  0  0  0  0
  -10.0030    1.4710   -0.7111 H   0  0  0  0  0  0  0  0  0  0  0  0
   -9.5716    0.1537   -1.8736 H   0  0  0  0  0  0  0  0  0  0  0  0
   -8.8658    1.7794   -2.0856 H   0  0  0  0  0  0  0  0  0  0  0  0
   -6.8602    1.5230    1.1904 H   0  0  0  0  0  0  0  0  0  0  0  0
  1  2  1  0
  2  3  2  0
  2  4  1  0
  4  5  1  0
  5  6  1  0
  6  7  1  0
  7  8  1  0
  8  9  1  0
  9 10  1  0
 10 11  2  0
 11 12  1  0
 12 13  2  0
 13 14  1  0
 13 15  1  0
 15 16  1  0
 16 17  1  0
 17 18  1  0
 18 19  1  0
 19 20  1  0
 19 21  2  0
 18 22  1  0
 22 23  1  0
 23 24  2  0
 23 25  1  0
 25 26  1  0
 25 27  1  0
 27 28  1  0
 28 29  2  0
 28 30  1  0
 30 31  1  0
 30 32  1  0
 32 33  1  0
 33 34  2  0
 33 35  1  0
 35 36  1  0
 35 37  1  0
 37 38  1  0
 38 39  2  0
 38 40  1  0
 40 41  1  0
 40 42  1  0
 42 43  1  0
 43 44  2  0
 43 45  1  0
 45 46  1  0
 45 47  1  0
 47 48  1  0
 48 49  2  0
 48 50  1  0
 50 51  1  0
 50 52  1  0
 52 53  1  0
 53 54  2  0
 53 55  1  0
 55 56  1  0
 55 57  1  0
 57 58  1  0
 58 59  2  0
 58 60  1  0
 60 61  1  0
 61 62  1  0
 62 63  1  0
 60 64  1  0
 64 65  1  0
 65 66  2  0
 65 67  1  0
 67 68  1  0
 67 69  1  0
 69 70  1  0
 70 71  2  0
 70 72  1  0
 72 73  1  0
 72 74  1  0
 74 75  1  0
 75 76  2  0
 75 77  1  0
 77 78  1  0
 77 79  1  0
 79 80  1  0
 80 81  2  0
 80  5  1  0
 14  9  2  0
 63 11  1  0
  1 82  1  0
  1 83  1  0
  1 84  1  0
  4 85  1  0
  5 86  1  6
  6 87  1  0
  6 88  1  0
  8 89  1  0
  8 90  1  0
 10 91  1  0
 12 92  1  0
 14 93  1  0
 15 94  1  0
 15 95  1  0
 17 96  1  0
 17 97  1  0
 18 98  1  1
 20 99  1  0
 20100  1  0
 22101  1  0
 25102  1  6
 26103  1  0
 26104  1  0
 26105  1  0
 27106  1  0
 30107  1  6
 31108  1  0
 31109  1  0
 31110  1  0
 32111  1  0
 35112  1  1
 36113  1  0
 36114  1  0
 36115  1  0
 37116  1  0
 40117  1  6
 41118  1  0
 41119  1  0
 41120  1  0
 42121  1  0
 45122  1  6
 46123  1  0
 46124  1  0
 46125  1  0
 47126  1  0
 50127  1  6
 51128  1  0
 51129  1  0
 51130  1  0
 52131  1  0
 55132  1  6
 56133  1  0
 56134  1  0
 56135  1  0
 57136  1  0
 60137  1  1
 61138  1  0
 61139  1  0
 63140  1  0
 63141  1  0
 64142  1  0
 67143  1  6
 68144  1  0
 68145  1  0
 68146  1  0
 69147  1  0
 72148  1  6
 73149  1  0
 73150  1  0
 73151  1  0
 74152  1  0
 77153  1  6
 78154  1  0
 78155  1  0
 78156  1  0
 79157  1  0
M  END
