
     RDKit          3D

147149  0  0  0  0  0  0  0  0999 V2000
   -8.6619    6.2276    0.9223 C   0  0  0  0  0  0  0  0  0  0  0  0
   -8.5939    4.9597    1.7087 C   0  0  0  0  0  0  0  0  0  0  0  0
   -9.4466    4.7582    2.6163 O   0  0  0  0  0  0  0  0  0  0  0  0
   -7.5448    4.0037    1.5045 N   0  0  0  0  0  0  0  0  0  0  0  0
   -7.3109    3.2531    0.2612 C   0  0  2  0  0  0  0  0  0  0  0  0
   -6.8301    4.1412   -0.8938 C   0  0  0  0  0  0  0  0  0  0  0  0
   -5.1957    4.8629   -0.4877 S   0  0  0  0  0  0  0  0  0  0  0  0
   -4.3203    4.4826   -2.0596 C   0  0  0  0  0  0  0  0  0  0  0  0
   -3.0459    3.7406   -1.7685 C   0  0  0  0  0  0  0  0  0  0  0  0
   -2.9178    2.3802   -2.0909 C   0  0  0  0  0  0  0  0  0  0  0  0
   -1.7107    1.6997   -1.8585 C   0  0  0  0  0  0  0  0  0  0  0  0
   -0.6349    2.3881   -1.2689 C   0  0  0  0  0  0  0  0  0  0  0  0
   -0.7645    3.7405   -0.9168 C   0  0  0  0  0  0  0  0  0  0  0  0
   -1.9692    4.4109   -1.1713 C   0  0  0  0  0  0  0  0  0  0  0  0
    0.3597    4.4500   -0.2194 C   0  0  0  0  0  0  0  0  0  0  0  0
    0.1305    4.3323    1.5977 S   0  0  0  0  0  0  0  0  0  0  0  0
    1.9041    4.1091    2.0174 C   0  0  0  0  0  0  0  0  0  0  0  0
    2.7381    5.3899    1.7937 C   0  0  1  0  0  0  0  0  0  0  0  0
    2.3001    6.4677    2.7562 C   0  0  0  0  0  0  0  0  0  0  0  0
    2.5341    6.3235    4.1599 N   0  0  0  0  0  0  0  0  0  0  0  0
    1.7102    7.4965    2.3247 O   0  0  0  0  0  0  0  0  0  0  0  0
    4.1792    5.1438    1.9625 N   0  0  0  0  0  0  0  0  0  0  0  0
    4.8394    4.0739    1.2737 C   0  0  0  0  0  0  0  0  0  0  0  0
    4.6475    2.8831    1.6477 O   0  0  0  0  0  0  0  0  0  0  0  0
    5.8827    4.3424    0.2250 C   0  0  1  0  0  0  0  0  0  0  0  0
    5.5813    5.6050   -0.5908 C   0  0  0  0  0  0  0  0  0  0  0  0
    7.1930    4.4600    0.8723 N   0  0  0  0  0  0  0  0  0  0  0  0
    8.2335    3.4657    0.8522 C   0  0  0  0  0  0  0  0  0  0  0  0
    9.2805    3.6960    1.5144 O   0  0  0  0  0  0  0  0  0  0  0  0
    8.1566    2.2121   -0.0061 C   0  0  1  0  0  0  0  0  0  0  0  0
    8.6235    2.5626   -1.4235 C   0  0  0  0  0  0  0  0  0  0  0  0
    8.9823    1.1287    0.5495 N   0  0  0  0  0  0  0  0  0  0  0  0
    8.6627   -0.2695    0.4459 C   0  0  0  0  0  0  0  0  0  0  0  0
    9.1154   -1.0480    1.3249 O   0  0  0  0  0  0  0  0  0  0  0  0
    7.9246   -0.8447   -0.7481 C   0  0  1  0  0  0  0  0  0  0  0  0
    8.9156   -1.3457   -1.8071 C   0  0  0  0  0  0  0  0  0  0  0  0
    6.9754   -1.9034   -0.3617 N   0  0  0  0  0  0  0  0  0  0  0  0
    7.3475   -3.2618   -0.0693 C   0  0  0  0  0  0  0  0  0  0  0  0
    8.4343   -3.5111    0.5189 O   0  0  0  0  0  0  0  0  0  0  0  0
    6.4717   -4.3995   -0.5281 C   0  0  1  0  0  0  0  0  0  0  0  0
    7.1811   -5.1832   -1.6395 C   0  0  0  0  0  0  0  0  0  0  0  0
    6.1483   -5.2773    0.5971 N   0  0  0  0  0  0  0  0  0  0  0  0
    5.0988   -6.2433    0.4856 C   0  0  0  0  0  0  0  0  0  0  0  0
    5.3791   -7.4141    0.1112 O   0  0  0  0  0  0  0  0  0  0  0  0
    3.6871   -5.9278    0.9084 C   0  0  1  0  0  0  0  0  0  0  0  0
    3.5589   -5.9693    2.4324 C   0  0  0  0  0  0  0  0  0  0  0  0
    3.2692   -4.6181    0.4103 N   0  0  0  0  0  0  0  0  0  0  0  0
    2.3349   -4.4637   -0.6663 C   0  0  0  0  0  0  0  0  0  0  0  0
    2.7573   -4.0725   -1.7850 O   0  0  0  0  0  0  0  0  0  0  0  0
    0.8507   -4.7062   -0.4839 C   0  0  1  0  0  0  0  0  0  0  0  0
    0.5172   -6.2004   -0.4367 C   0  0  0  0  0  0  0  0  0  0  0  0
    0.3626   -4.0443    0.7320 N   0  0  0  0  0  0  0  0  0  0  0  0
   -1.0272   -3.8007    1.0073 C   0  0  0  0  0  0  0  0  0  0  0  0
   -1.4479   -4.0236    2.1740 O   0  0  0  0  0  0  0  0  0  0  0  0
   -1.9931   -3.2157   -0.0065 C   0  0  1  0  0  0  0  0  0  0  0  0
   -1.3705   -2.0327   -0.7756 C   0  0  0  0  0  0  0  0  0  0  0  0
   -2.6535   -0.8034   -1.2250 S   0  0  0  0  0  0  0  0  0  0  0  0
   -1.5728    0.2518   -2.2596 C   0  0  0  0  0  0  0  0  0  0  0  0
   -2.4665   -4.2522   -0.9375 N   0  0  0  0  0  0  0  0  0  0  0  0
   -3.8519   -4.4840   -1.2353 C   0  0  0  0  0  0  0  0  0  0  0  0
   -4.2204   -4.4680   -2.4425 O   0  0  0  0  0  0  0  0  0  0  0  0
   -4.8964   -4.7607   -0.1753 C   0  0  1  0  0  0  0  0  0  0  0  0
   -4.3205   -5.2833    1.1463 C   0  0  0  0  0  0  0  0  0  0  0  0
   -5.7072   -3.5600    0.0489 N   0  0  0  0  0  0  0  0  0  0  0  0
   -7.0565   -3.6203    0.5425 C   0  0  0  0  0  0  0  0  0  0  0  0
   -7.5381   -4.7275    0.9161 O   0  0  0  0  0  0  0  0  0  0  0  0
   -7.9353   -2.3864    0.5061 C   0  0  1  0  0  0  0  0  0  0  0  0
   -9.2024   -2.5425    1.3547 C   0  0  0  0  0  0  0  0  0  0  0  0
   -7.1828   -1.2199    0.9742 N   0  0  0  0  0  0  0  0  0  0  0  0
   -6.5087   -0.2910    0.1128 C   0  0  0  0  0  0  0  0  0  0  0  0
   -5.3139    0.0091    0.3783 O   0  0  0  0  0  0  0  0  0  0  0  0
   -7.1982    0.4485   -1.0159 C   0  0  1  0  0  0  0  0  0  0  0  0
   -7.4529   -0.4069   -2.2636 C   0  0  0  0  0  0  0  0  0  0  0  0
   -8.4362    1.0706   -0.5323 N   0  0  0  0  0  0  0  0  0  0  0  0
   -8.5335    2.4544   -0.1456 C   0  0  0  0  0  0  0  0  0  0  0  0
   -9.6650    3.0078   -0.1550 O   0  0  0  0  0  0  0  0  0  0  0  0
   -7.6456    6.5299    0.5916 H   0  0  0  0  0  0  0  0  0  0  0  0
   -9.0601    7.0444    1.5648 H   0  0  0  0  0  0  0  0  0  0  0  0
   -9.3331    6.0976    0.0453 H   0  0  0  0  0  0  0  0  0  0  0  0
   -7.0837    3.6334    2.3678 H   0  0  0  0  0  0  0  0  0  0  0  0
   -6.4863    2.5406    0.4757 H   0  0  0  0  0  0  0  0  0  0  0  0
   -6.7867    3.5178   -1.8065 H   0  0  0  0  0  0  0  0  0  0  0  0
   -7.5504    4.9485   -1.1170 H   0  0  0  0  0  0  0  0  0  0  0  0
   -4.0835    5.4392   -2.5746 H   0  0  0  0  0  0  0  0  0  0  0  0
   -4.9357    3.8970   -2.7748 H   0  0  0  0  0  0  0  0  0  0  0  0
   -3.7574    1.8454   -2.5250 H   0  0  0  0  0  0  0  0  0  0  0  0
    0.3021    1.8740   -1.0889 H   0  0  0  0  0  0  0  0  0  0  0  0
   -2.0720    5.4572   -0.9002 H   0  0  0  0  0  0  0  0  0  0  0  0
    1.3359    4.0345   -0.5540 H   0  0  0  0  0  0  0  0  0  0  0  0
    0.3628    5.5229   -0.5009 H   0  0  0  0  0  0  0  0  0  0  0  0
    1.9796    3.7824    3.0768 H   0  0  0  0  0  0  0  0  0  0  0  0
    2.2765    3.2735    1.3937 H   0  0  0  0  0  0  0  0  0  0  0  0
    2.5712    5.7504    0.7551 H   0  0  0  0  0  0  0  0  0  0  0  0
    2.1986    7.0525    4.8301 H   0  0  0  0  0  0  0  0  0  0  0  0
    3.0578    5.4980    4.5321 H   0  0  0  0  0  0  0  0  0  0  0  0
    4.7742    5.9818    2.1506 H   0  0  0  0  0  0  0  0  0  0  0  0
    5.8573    3.5085   -0.5025 H   0  0  0  0  0  0  0  0  0  0  0  0
    6.3145    5.7018   -1.4210 H   0  0  0  0  0  0  0  0  0  0  0  0
    5.6521    6.5208    0.0362 H   0  0  0  0  0  0  0  0  0  0  0  0
    4.5589    5.5430   -1.0301 H   0  0  0  0  0  0  0  0  0  0  0  0
    7.3522    5.2996    1.4766 H   0  0  0  0  0  0  0  0  0  0  0  0
    7.1083    1.8588   -0.0250 H   0  0  0  0  0  0  0  0  0  0  0  0
    9.6753    2.9204   -1.4071 H   0  0  0  0  0  0  0  0  0  0  0  0
    7.9818    3.3645   -1.8512 H   0  0  0  0  0  0  0  0  0  0  0  0
    8.5605    1.6865   -2.0956 H   0  0  0  0  0  0  0  0  0  0  0  0
    9.8174    1.3699    1.1336 H   0  0  0  0  0  0  0  0  0  0  0  0
    7.3248   -0.0435   -1.2286 H   0  0  0  0  0  0  0  0  0  0  0  0
    9.5559   -2.1588   -1.4086 H   0  0  0  0  0  0  0  0  0  0  0  0
    8.3606   -1.7253   -2.6894 H   0  0  0  0  0  0  0  0  0  0  0  0
    9.5751   -0.5170   -2.1381 H   0  0  0  0  0  0  0  0  0  0  0  0
    5.9637   -1.7151   -0.5457 H   0  0  0  0  0  0  0  0  0  0  0  0
    5.5342   -3.9888   -0.9524 H   0  0  0  0  0  0  0  0  0  0  0  0
    8.1204   -5.6368   -1.2567 H   0  0  0  0  0  0  0  0  0  0  0  0
    6.5204   -5.9939   -2.0125 H   0  0  0  0  0  0  0  0  0  0  0  0
    7.4201   -4.5065   -2.4885 H   0  0  0  0  0  0  0  0  0  0  0  0
    6.9148   -5.5168    1.2650 H   0  0  0  0  0  0  0  0  0  0  0  0
    3.0349   -6.7204    0.4857 H   0  0  0  0  0  0  0  0  0  0  0  0
    4.2100   -5.1992    2.8996 H   0  0  0  0  0  0  0  0  0  0  0  0
    2.5049   -5.7775    2.7277 H   0  0  0  0  0  0  0  0  0  0  0  0
    3.8503   -6.9732    2.8154 H   0  0  0  0  0  0  0  0  0  0  0  0
    3.8136   -3.7766    0.6987 H   0  0  0  0  0  0  0  0  0  0  0  0
    0.3539   -4.2701   -1.3680 H   0  0  0  0  0  0  0  0  0  0  0  0
    1.0349   -6.7448   -1.2560 H   0  0  0  0  0  0  0  0  0  0  0  0
   -0.5743   -6.3528   -0.5582 H   0  0  0  0  0  0  0  0  0  0  0  0
    0.8004   -6.6380    0.5453 H   0  0  0  0  0  0  0  0  0  0  0  0
    0.9921   -4.0481    1.5652 H   0  0  0  0  0  0  0  0  0  0  0  0
   -2.8598   -2.8143    0.5640 H   0  0  0  0  0  0  0  0  0  0  0  0
   -0.6118   -1.5131   -0.1432 H   0  0  0  0  0  0  0  0  0  0  0  0
   -0.8616   -2.3874   -1.7024 H   0  0  0  0  0  0  0  0  0  0  0  0
   -1.8878    0.1358   -3.3197 H   0  0  0  0  0  0  0  0  0  0  0  0
   -0.5069   -0.0680   -2.2039 H   0  0  0  0  0  0  0  0  0  0  0  0
   -1.7963   -4.6198   -1.6453 H   0  0  0  0  0  0  0  0  0  0  0  0
   -5.5481   -5.5645   -0.5881 H   0  0  0  0  0  0  0  0  0  0  0  0
   -5.1178   -5.7907    1.7336 H   0  0  0  0  0  0  0  0  0  0  0  0
   -3.5112   -6.0199    0.9594 H   0  0  0  0  0  0  0  0  0  0  0  0
   -3.9384   -4.4467    1.7674 H   0  0  0  0  0  0  0  0  0  0  0  0
   -5.3173   -2.6389   -0.2419 H   0  0  0  0  0  0  0  0  0  0  0  0
   -8.2531   -2.2557   -0.5402 H   0  0  0  0  0  0  0  0  0  0  0  0
   -9.8245   -3.3794    0.9700 H   0  0  0  0  0  0  0  0  0  0  0  0
   -9.8047   -1.6116    1.2983 H   0  0  0  0  0  0  0  0  0  0  0  0
   -8.9374   -2.7402    2.4148 H   0  0  0  0  0  0  0  0  0  0  0  0
   -6.8733   -1.2398    1.9722 H   0  0  0  0  0  0  0  0  0  0  0  0
   -6.4965    1.2378   -1.3602 H   0  0  0  0  0  0  0  0  0  0  0  0
   -7.4881    0.2491   -3.1622 H   0  0  0  0  0  0  0  0  0  0  0  0
   -8.4364   -0.9210   -2.2182 H   0  0  0  0  0  0  0  0  0  0  0  0
   -6.6422   -1.1530   -2.4089 H   0  0  0  0  0  0  0  0  0  0  0  0
   -9.3099    0.4993   -0.5112 H   0  0  0  0  0  0  0  0  0  0  0  0
  1  2  1  0
  2  3  2  0
  2  4  1  0
  4  5  1  0
  5  6  1  0
  6  7  1  0
  7  8  1  0
  8  9  1  0
  9 10  1  0
 10 11  2  0
 11 12  1  0
 12 13  2  0
 13 14  1  0
 13 15  1  0
 15 16  1  0
 16 17  1  0
 17 18  1  0
 18 19  1  0
 19 20  1  0
 19 21  2  0
 18 22  1  0
 22 23  1  0
 23 24  2  0
 23 25  1  0
 25 26  1  0
 25 27  1  0
 27 28  1  0
 28 29  2  0
 28 30  1  0
 30 31  1  0
 30 32  1  0
 32 33  1  0
 33 34  2  0
 33 35  1  0
 35 36  1  0
 35 37  1  0
 37 38  1  0
 38 39  2  0
 38 40  1  0
 40 41  1  0
 40 42  1  0
 42 43  1  0
 43 44  2  0
 43 45  1  0
 45 46  1  0
 45 47  1  0
 47 48  1  0
 48 49  2  0
 48 50  1  0
 50 51  1  0
 50 52  1  0
 52 53  1  0
 53 54  2  0
 53 55  1  0
 55 56  1  0
 56 57  1  0
 57 58  1  0
 55 59  1  0
 59 60  1  0
 60 61  2  0
 60 62  1  0
 62 63  1  0
 62 64  1  0
 64 65  1  0
 65 66  2  0
 65 67  1  0
 67 68  1  0
 67 69  1  0
 69 70  1  0
 70 71  2  0
 70 72  1  0
 72 73  1  0
 72 74  1  0
 74 75  1  0
 75 76  2  0
 75  5  1  0
 14  9  2  0
 58 11  1  0
  1 77  1  0
  1 78  1  0
  1 79  1  0
  4 80  1  0
  5 81  1  1
  6 82  1  0
  6 83  1  0
  8 84  1  0
  8 85  1  0
 10 86  1  0
 12 87  1  0
 14 88  1  0
 15 89  1  0
 15 90  1  0
 17 91  1  0
 17 92  1  0
 18 93  1  6
 20 94  1  0
 20 95  1  0
 22 96  1  0
 25 97  1  6
 26 98  1  0
 26 99  1  0
 26100  1  0
 27101  1  0
 30102  1  6
 31103  1  0
 31104  1  0
 31105  1  0
 32106  1  0
 35107  1  6
 36108  1  0
 36109  1  0
 36110  1  0
 37111  1  0
 40112  1  6
 41113  1  0
 41114  1  0
 41115  1  0
 42116  1  0
 45117  1  6
 46118  1  0
 46119  1  0
 46120  1  0
 47121  1  0
 50122  1  6
 51123  1  0
 51124  1  0
 51125  1  0
 52126  1  0
 55127  1  1
 56128  1  0
 56129  1  0
 58130  1  0
 58131  1  0
 59132  1  0
 62133  1  6
 63134  1  0
 63135  1  0
 63136  1  0
 64137  1  0
 67138  1  6
 68139  1  0
 68140  1  0
 68141  1  0
 69142  1  0
 72143  1  6
 73144  1  0
 73145  1  0
 73146  1  0
 74147  1  0
M  END
