
     RDKit          3D

147149  0  0  0  0  0  0  0  0999 V2000
  -10.2341    6.3700    0.1283 C   0  0  0  0  0  0  0  0  0  0  0  0
   -9.7927    4.9731   -0.1660 C   0  0  0  0  0  0  0  0  0  0  0  0
  -10.3777    4.3208   -1.0729 O   0  0  0  0  0  0  0  0  0  0  0  0
   -8.6962    4.3871    0.5589 N   0  0  0  0  0  0  0  0  0  0  0  0
   -8.0129    3.1542    0.1481 C   0  0  2  0  0  0  0  0  0  0  0  0
   -7.3959    3.3341   -1.2625 C   0  0  0  0  0  0  0  0  0  0  0  0
   -5.7639    2.5133   -1.4207 S   0  0  0  0  0  0  0  0  0  0  0  0
   -4.8267    3.8094   -0.5374 C   0  0  0  0  0  0  0  0  0  0  0  0
   -3.4109    3.3884   -0.2203 C   0  0  0  0  0  0  0  0  0  0  0  0
   -2.3640    4.3082   -0.3894 C   0  0  0  0  0  0  0  0  0  0  0  0
   -1.0552    3.9911    0.0119 C   0  0  0  0  0  0  0  0  0  0  0  0
   -0.7971    2.7302    0.5789 C   0  0  0  0  0  0  0  0  0  0  0  0
   -1.8291    1.7913    0.7182 C   0  0  0  0  0  0  0  0  0  0  0  0
   -3.1350    2.1281    0.3234 C   0  0  0  0  0  0  0  0  0  0  0  0
   -1.5491    0.4328    1.2950 C   0  0  0  0  0  0  0  0  0  0  0  0
   -1.0282   -0.7022   -0.0382 S   0  0  0  0  0  0  0  0  0  0  0  0
   -0.9247   -2.1975    1.0178 C   0  0  0  0  0  0  0  0  0  0  0  0
   -1.1930   -3.5066    0.2454 C   0  0  1  0  0  0  0  0  0  0  0  0
   -2.3103   -3.3616   -0.6936 N   0  0  0  0  0  0  0  0  0  0  0  0
   -3.4683   -4.1977   -0.6328 C   0  0  0  0  0  0  0  0  0  0  0  0
   -3.7369   -4.9433   -1.6140 O   0  0  0  0  0  0  0  0  0  0  0  0
   -4.3611   -4.2150    0.5901 C   0  0  1  0  0  0  0  0  0  0  0  0
   -4.5503   -2.8234    1.2175 C   0  0  0  0  0  0  0  0  0  0  0  0
   -5.6593   -4.8342    0.2932 N   0  0  0  0  0  0  0  0  0  0  0  0
   -6.6591   -4.3510   -0.6287 C   0  0  0  0  0  0  0  0  0  0  0  0
   -7.7151   -5.0314   -0.7606 O   0  0  0  0  0  0  0  0  0  0  0  0
   -6.5177   -3.0494   -1.4000 C   0  0  1  0  0  0  0  0  0  0  0  0
   -7.1816   -3.1255   -2.7812 C   0  0  0  0  0  0  0  0  0  0  0  0
   -7.0504   -1.9183   -0.6301 N   0  0  0  0  0  0  0  0  0  0  0  0
   -8.4164   -1.7949   -0.1930 C   0  0  0  0  0  0  0  0  0  0  0  0
   -9.2270   -2.7430   -0.3596 O   0  0  0  0  0  0  0  0  0  0  0  0
   -8.8767   -0.5638    0.5451 C   0  0  1  0  0  0  0  0  0  0  0  0
   -8.3252   -0.5797    1.9733 C   0  0  0  0  0  0  0  0  0  0  0  0
   -8.4638    0.6616   -0.1514 N   0  0  0  0  0  0  0  0  0  0  0  0
   -8.9278    1.9535    0.2536 C   0  0  0  0  0  0  0  0  0  0  0  0
  -10.0710    2.0656    0.7691 O   0  0  0  0  0  0  0  0  0  0  0  0
    0.0251   -3.9804   -0.5051 C   0  0  0  0  0  0  0  0  0  0  0  0
    0.6439   -3.1888   -1.2668 O   0  0  0  0  0  0  0  0  0  0  0  0
    0.4131   -5.3588   -0.4660 N   0  0  0  0  0  0  0  0  0  0  0  0
    1.2466   -5.9437    0.5937 C   0  0  2  0  0  0  0  0  0  0  0  0
    0.4642   -6.1167    1.9001 C   0  0  0  0  0  0  0  0  0  0  0  0
    2.5016   -5.1343    0.7957 C   0  0  0  0  0  0  0  0  0  0  0  0
    2.4375   -3.9527    1.2308 O   0  0  0  0  0  0  0  0  0  0  0  0
    3.7669   -5.6826    0.4163 N   0  0  0  0  0  0  0  0  0  0  0  0
    4.5789   -5.0274   -0.6055 C   0  0  2  0  0  0  0  0  0  0  0  0
    4.0473   -5.3802   -1.9969 C   0  0  0  0  0  0  0  0  0  0  0  0
    6.0192   -5.4425   -0.4654 C   0  0  0  0  0  0  0  0  0  0  0  0
    6.3433   -6.6531   -0.6029 O   0  0  0  0  0  0  0  0  0  0  0  0
    7.0429   -4.4659   -0.2582 N   0  0  0  0  0  0  0  0  0  0  0  0
    7.3698   -3.9751    1.0866 C   0  0  2  0  0  0  0  0  0  0  0  0
    6.1821   -3.2888    1.7758 C   0  0  0  0  0  0  0  0  0  0  0  0
    8.5992   -3.0863    1.0594 C   0  0  0  0  0  0  0  0  0  0  0  0
    9.5614   -3.3984    1.8126 O   0  0  0  0  0  0  0  0  0  0  0  0
    8.7500   -1.9237    0.2174 N   0  0  0  0  0  0  0  0  0  0  0  0
    7.7808   -1.3949   -0.7508 C   0  0  2  0  0  0  0  0  0  0  0  0
    8.2667   -1.6814   -2.1781 C   0  0  0  0  0  0  0  0  0  0  0  0
    7.6206    0.0894   -0.5079 C   0  0  0  0  0  0  0  0  0  0  0  0
    8.2204    0.9215   -1.2419 O   0  0  0  0  0  0  0  0  0  0  0  0
    6.8354    0.5477    0.6029 N   0  0  0  0  0  0  0  0  0  0  0  0
    7.2628    1.6782    1.4377 C   0  0  2  0  0  0  0  0  0  0  0  0
    7.8463    1.1197    2.7441 C   0  0  0  0  0  0  0  0  0  0  0  0
    6.0783    2.5964    1.6692 C   0  0  0  0  0  0  0  0  0  0  0  0
    5.5848    2.6964    2.8262 O   0  0  0  0  0  0  0  0  0  0  0  0
    5.4740    3.3368    0.5914 N   0  0  0  0  0  0  0  0  0  0  0  0
    6.2375    3.8788   -0.5397 C   0  0  2  0  0  0  0  0  0  0  0  0
    6.9136    5.2071   -0.1753 C   0  0  0  0  0  0  0  0  0  0  0  0
    5.3964    3.9390   -1.8034 C   0  0  0  0  0  0  0  0  0  0  0  0
    5.6624    3.1095   -2.7124 O   0  0  0  0  0  0  0  0  0  0  0  0
    4.3167    4.8648   -2.0419 N   0  0  0  0  0  0  0  0  0  0  0  0
    3.8344    5.9111   -1.1292 C   0  0  1  0  0  0  0  0  0  0  0  0
    4.4212    7.2493   -1.5035 C   0  0  0  0  0  0  0  0  0  0  0  0
    4.4442    8.3173   -0.5569 N   0  0  0  0  0  0  0  0  0  0  0  0
    4.8676    7.4439   -2.6715 O   0  0  0  0  0  0  0  0  0  0  0  0
    2.3045    5.9906   -1.1815 C   0  0  0  0  0  0  0  0  0  0  0  0
    1.5586    4.3611   -0.7894 S   0  0  0  0  0  0  0  0  0  0  0  0
    0.0245    5.0388   -0.0665 C   0  0  0  0  0  0  0  0  0  0  0  0
  -10.1893    6.9810   -0.7995 H   0  0  0  0  0  0  0  0  0  0  0  0
   -9.5811    6.8390    0.8928 H   0  0  0  0  0  0  0  0  0  0  0  0
  -11.2790    6.3537    0.5048 H   0  0  0  0  0  0  0  0  0  0  0  0
   -8.2858    4.9223    1.3612 H   0  0  0  0  0  0  0  0  0  0  0  0
   -7.2003    2.9652    0.8823 H   0  0  0  0  0  0  0  0  0  0  0  0
   -8.0786    2.9196   -2.0371 H   0  0  0  0  0  0  0  0  0  0  0  0
   -7.2626    4.4130   -1.4965 H   0  0  0  0  0  0  0  0  0  0  0  0
   -4.8238    4.7165   -1.1794 H   0  0  0  0  0  0  0  0  0  0  0  0
   -5.3246    4.0796    0.4144 H   0  0  0  0  0  0  0  0  0  0  0  0
   -2.5693    5.2840   -0.8251 H   0  0  0  0  0  0  0  0  0  0  0  0
    0.2035    2.4743    0.8974 H   0  0  0  0  0  0  0  0  0  0  0  0
   -3.9316    1.4087    0.4631 H   0  0  0  0  0  0  0  0  0  0  0  0
   -0.7487    0.4901    2.0647 H   0  0  0  0  0  0  0  0  0  0  0  0
   -2.4626    0.0366    1.7836 H   0  0  0  0  0  0  0  0  0  0  0  0
   -1.6590   -2.1310    1.8432 H   0  0  0  0  0  0  0  0  0  0  0  0
    0.0764   -2.2332    1.4925 H   0  0  0  0  0  0  0  0  0  0  0  0
   -1.4569   -4.2846    0.9893 H   0  0  0  0  0  0  0  0  0  0  0  0
   -2.1358   -2.8640   -1.5936 H   0  0  0  0  0  0  0  0  0  0  0  0
   -3.8536   -4.8529    1.3502 H   0  0  0  0  0  0  0  0  0  0  0  0
   -4.3851   -2.0137    0.4781 H   0  0  0  0  0  0  0  0  0  0  0  0
   -5.5684   -2.7103    1.6426 H   0  0  0  0  0  0  0  0  0  0  0  0
   -3.8325   -2.6793    2.0528 H   0  0  0  0  0  0  0  0  0  0  0  0
   -5.8668   -5.7387    0.7748 H   0  0  0  0  0  0  0  0  0  0  0  0
   -5.4510   -2.8547   -1.5979 H   0  0  0  0  0  0  0  0  0  0  0  0
   -8.2639   -3.3455   -2.7008 H   0  0  0  0  0  0  0  0  0  0  0  0
   -7.0537   -2.1565   -3.3111 H   0  0  0  0  0  0  0  0  0  0  0  0
   -6.7032   -3.9201   -3.3905 H   0  0  0  0  0  0  0  0  0  0  0  0
   -6.3985   -1.1168   -0.4538 H   0  0  0  0  0  0  0  0  0  0  0  0
   -9.9886   -0.5834    0.5978 H   0  0  0  0  0  0  0  0  0  0  0  0
   -8.6923   -1.4747    2.5139 H   0  0  0  0  0  0  0  0  0  0  0  0
   -7.2131   -0.5902    1.9637 H   0  0  0  0  0  0  0  0  0  0  0  0
   -8.6623    0.3223    2.5304 H   0  0  0  0  0  0  0  0  0  0  0  0
   -7.8283    0.6015   -0.9816 H   0  0  0  0  0  0  0  0  0  0  0  0
    0.2861   -5.9067   -1.3460 H   0  0  0  0  0  0  0  0  0  0  0  0
    1.5421   -6.9614    0.2548 H   0  0  0  0  0  0  0  0  0  0  0  0
   -0.5010   -6.6351    1.6895 H   0  0  0  0  0  0  0  0  0  0  0  0
    1.0565   -6.7422    2.6052 H   0  0  0  0  0  0  0  0  0  0  0  0
    0.2598   -5.1343    2.3804 H   0  0  0  0  0  0  0  0  0  0  0  0
    3.9363   -6.6973    0.6288 H   0  0  0  0  0  0  0  0  0  0  0  0
    4.5075   -3.9293   -0.4890 H   0  0  0  0  0  0  0  0  0  0  0  0
    4.6594   -4.8841   -2.7826 H   0  0  0  0  0  0  0  0  0  0  0  0
    2.9950   -5.0382   -2.0958 H   0  0  0  0  0  0  0  0  0  0  0  0
    4.0696   -6.4799   -2.1561 H   0  0  0  0  0  0  0  0  0  0  0  0
    7.8282   -4.5000   -0.9463 H   0  0  0  0  0  0  0  0  0  0  0  0
    7.6184   -4.8662    1.7105 H   0  0  0  0  0  0  0  0  0  0  0  0
    6.5082   -2.8248    2.7305 H   0  0  0  0  0  0  0  0  0  0  0  0
    5.4075   -4.0430    2.0239 H   0  0  0  0  0  0  0  0  0  0  0  0
    5.7149   -2.5111    1.1465 H   0  0  0  0  0  0  0  0  0  0  0  0
    9.6750   -1.4342    0.2671 H   0  0  0  0  0  0  0  0  0  0  0  0
    6.7903   -1.8758   -0.6434 H   0  0  0  0  0  0  0  0  0  0  0  0
    8.3133   -2.7752   -2.3595 H   0  0  0  0  0  0  0  0  0  0  0  0
    9.2794   -1.2559   -2.3449 H   0  0  0  0  0  0  0  0  0  0  0  0
    7.5613   -1.2430   -2.9166 H   0  0  0  0  0  0  0  0  0  0  0  0
    6.1525   -0.1203    1.0172 H   0  0  0  0  0  0  0  0  0  0  0  0
    8.0802    2.2504    0.9483 H   0  0  0  0  0  0  0  0  0  0  0  0
    8.1459    1.9509    3.4230 H   0  0  0  0  0  0  0  0  0  0  0  0
    7.0937    0.4794    3.2604 H   0  0  0  0  0  0  0  0  0  0  0  0
    8.7474    0.5020    2.5171 H   0  0  0  0  0  0  0  0  0  0  0  0
    4.5088    3.7018    0.7694 H   0  0  0  0  0  0  0  0  0  0  0  0
    7.0667    3.1840   -0.7748 H   0  0  0  0  0  0  0  0  0  0  0  0
    7.3537    5.6775   -1.0749 H   0  0  0  0  0  0  0  0  0  0  0  0
    6.2258    5.9199    0.3128 H   0  0  0  0  0  0  0  0  0  0  0  0
    7.7348    5.0101    0.5475 H   0  0  0  0  0  0  0  0  0  0  0  0
    3.9246    4.8723   -3.0078 H   0  0  0  0  0  0  0  0  0  0  0  0
    4.1059    5.6802   -0.0834 H   0  0  0  0  0  0  0  0  0  0  0  0
    4.7805    9.2621   -0.8394 H   0  0  0  0  0  0  0  0  0  0  0  0
    4.1490    8.1534    0.4266 H   0  0  0  0  0  0  0  0  0  0  0  0
    1.9610    6.7522   -0.4488 H   0  0  0  0  0  0  0  0  0  0  0  0
    1.9662    6.2949   -2.1961 H   0  0  0  0  0  0  0  0  0  0  0  0
   -0.3190    5.8934   -0.6919 H   0  0  0  0  0  0  0  0  0  0  0  0
    0.2446    5.4201    0.9520 H   0  0  0  0  0  0  0  0  0  0  0  0
  1  2  1  0
  2  3  2  0
  2  4  1  0
  4  5  1  0
  5  6  1  0
  6  7  1  0
  7  8  1  0
  8  9  1  0
  9 10  1  0
 10 11  2  0
 11 12  1  0
 12 13  2  0
 13 14  1  0
 13 15  1  0
 15 16  1  0
 16 17  1  0
 17 18  1  0
 18 19  1  0
 19 20  1  0
 20 21  2  0
 20 22  1  0
 22 23  1  0
 22 24  1  0
 24 25  1  0
 25 26  2  0
 25 27  1  0
 27 28  1  0
 27 29  1  0
 29 30  1  0
 30 31  2  0
 30 32  1  0
 32 33  1  0
 32 34  1  0
 34 35  1  0
 35 36  2  0
 18 37  1  0
 37 38  2  0
 37 39  1  0
 39 40  1  0
 40 41  1  0
 40 42  1  0
 42 43  2  0
 42 44  1  0
 44 45  1  0
 45 46  1  0
 45 47  1  0
 47 48  2  0
 47 49  1  0
 49 50  1  0
 50 51  1  0
 50 52  1  0
 52 53  2  0
 52 54  1  0
 54 55  1  0
 55 56  1  0
 55 57  1  0
 57 58  2  0
 57 59  1  0
 59 60  1  0
 60 61  1  0
 60 62  1  0
 62 63  2  0
 62 64  1  0
 64 65  1  0
 65 66  1  0
 65 67  1  0
 67 68  2  0
 67 69  1  0
 69 70  1  0
 70 71  1  0
 71 72  1  0
 71 73  2  0
 70 74  1  0
 74 75  1  0
 75 76  1  0
 35  5  1  0
 14  9  2  0
 76 11  1  0
  1 77  1  0
  1 78  1  0
  1 79  1  0
  4 80  1  0
  5 81  1  1
  6 82  1  0
  6 83  1  0
  8 84  1  0
  8 85  1  0
 10 86  1  0
 12 87  1  0
 14 88  1  0
 15 89  1  0
 15 90  1  0
 17 91  1  0
 17 92  1  0
 18 93  1  1
 19 94  1  0
 22 95  1  1
 23 96  1  0
 23 97  1  0
 23 98  1  0
 24 99  1  0
 27100  1  6
 28101  1  0
 28102  1  0
 28103  1  0
 29104  1  0
 32105  1  1
 33106  1  0
 33107  1  0
 33108  1  0
 34109  1  0
 39110  1  0
 40111  1  6
 41112  1  0
 41113  1  0
 41114  1  0
 44115  1  0
 45116  1  1
 46117  1  0
 46118  1  0
 46119  1  0
 49120  1  0
 50121  1  1
 51122  1  0
 51123  1  0
 51124  1  0
 54125  1  0
 55126  1  1
 56127  1  0
 56128  1  0
 56129  1  0
 59130  1  0
 60131  1  6
 61132  1  0
 61133  1  0
 61134  1  0
 64135  1  0
 65136  1  6
 66137  1  0
 66138  1  0
 66139  1  0
 69140  1  0
 70141  1  1
 72142  1  0
 72143  1  0
 74144  1  0
 74145  1  0
 76146  1  0
 76147  1  0
M  END
