
     RDKit          3D

147149  0  0  0  0  0  0  0  0999 V2000
    7.9224   -6.8340   -0.4528 C   0  0  0  0  0  0  0  0  0  0  0  0
    8.7745   -5.8849    0.3416 C   0  0  0  0  0  0  0  0  0  0  0  0
    9.5528   -6.3736    1.2012 O   0  0  0  0  0  0  0  0  0  0  0  0
    8.7888   -4.4597    0.1270 N   0  0  0  0  0  0  0  0  0  0  0  0
    7.7220   -3.6702   -0.5055 C   0  0  1  0  0  0  0  0  0  0  0  0
    6.5613   -3.4676    0.5023 C   0  0  0  0  0  0  0  0  0  0  0  0
    5.3969   -4.8818    0.5122 S   0  0  0  0  0  0  0  0  0  0  0  0
    4.4962   -4.4538   -1.0248 C   0  0  0  0  0  0  0  0  0  0  0  0
    3.1958   -3.7751   -0.6991 C   0  0  0  0  0  0  0  0  0  0  0  0
    2.0152   -4.5225   -0.5675 C   0  0  0  0  0  0  0  0  0  0  0  0
    0.8143   -3.8973   -0.2086 C   0  0  0  0  0  0  0  0  0  0  0  0
    0.8016   -2.5127    0.0332 C   0  0  0  0  0  0  0  0  0  0  0  0
    1.9689   -1.7481   -0.1238 C   0  0  0  0  0  0  0  0  0  0  0  0
    3.1586   -2.3881   -0.4979 C   0  0  0  0  0  0  0  0  0  0  0  0
    1.9915   -0.2799    0.2126 C   0  0  0  0  0  0  0  0  0  0  0  0
    0.5285    0.5881   -0.4666 S   0  0  0  0  0  0  0  0  0  0  0  0
    1.4115    1.9606   -1.3125 C   0  0  0  0  0  0  0  0  0  0  0  0
    2.1170    2.9519   -0.3610 C   0  0  1  0  0  0  0  0  0  0  0  0
    2.4600    4.1650   -1.1067 N   0  0  0  0  0  0  0  0  0  0  0  0
    3.6542    4.9349   -0.9077 C   0  0  0  0  0  0  0  0  0  0  0  0
    3.5702    6.1933   -0.9340 O   0  0  0  0  0  0  0  0  0  0  0  0
    5.0102    4.2917   -0.7078 C   0  0  1  0  0  0  0  0  0  0  0  0
    5.9896    4.8695   -1.7418 C   0  0  0  0  0  0  0  0  0  0  0  0
    5.4813    4.5502    0.6584 N   0  0  0  0  0  0  0  0  0  0  0  0
    6.6594    3.9930    1.2741 C   0  0  0  0  0  0  0  0  0  0  0  0
    7.0106    4.4390    2.4017 O   0  0  0  0  0  0  0  0  0  0  0  0
    7.5097    2.9153    0.6307 C   0  0  1  0  0  0  0  0  0  0  0  0
    8.8941    3.5009    0.3126 C   0  0  0  0  0  0  0  0  0  0  0  0
    7.6405    1.7649    1.5365 N   0  0  0  0  0  0  0  0  0  0  0  0
    8.0553    0.4381    1.1558 C   0  0  0  0  0  0  0  0  0  0  0  0
    8.0604   -0.4638    2.0358 O   0  0  0  0  0  0  0  0  0  0  0  0
    8.5283    0.0812   -0.2373 C   0  0  1  0  0  0  0  0  0  0  0  0
   10.0483   -0.1496   -0.2142 C   0  0  0  0  0  0  0  0  0  0  0  0
    7.7661   -1.0812   -0.7143 N   0  0  0  0  0  0  0  0  0  0  0  0
    8.3188   -2.3740   -1.0289 C   0  0  0  0  0  0  0  0  0  0  0  0
    9.2950   -2.4475   -1.8234 O   0  0  0  0  0  0  0  0  0  0  0  0
    1.2612    3.3020    0.8325 C   0  0  0  0  0  0  0  0  0  0  0  0
    1.6353    2.9598    1.9866 O   0  0  0  0  0  0  0  0  0  0  0  0
   -0.0067    3.9429    0.6721 N   0  0  0  0  0  0  0  0  0  0  0  0
   -0.0996    5.4002    0.5749 C   0  0  2  0  0  0  0  0  0  0  0  0
   -0.4610    5.9881    1.9401 C   0  0  0  0  0  0  0  0  0  0  0  0
   -1.1111    5.8237   -0.4599 C   0  0  0  0  0  0  0  0  0  0  0  0
   -1.0574    7.0032   -0.9032 O   0  0  0  0  0  0  0  0  0  0  0  0
   -2.0997    4.9092   -0.9686 N   0  0  0  0  0  0  0  0  0  0  0  0
   -3.5191    5.2146   -1.2093 C   0  0  2  0  0  0  0  0  0  0  0  0
   -3.8526    6.7127   -1.2029 C   0  0  0  0  0  0  0  0  0  0  0  0
   -4.3706    4.5005   -0.1929 C   0  0  0  0  0  0  0  0  0  0  0  0
   -4.2582    4.7908    1.0291 O   0  0  0  0  0  0  0  0  0  0  0  0
   -5.3043    3.4911   -0.6115 N   0  0  0  0  0  0  0  0  0  0  0  0
   -6.7173    3.4679   -0.2080 C   0  0  2  0  0  0  0  0  0  0  0  0
   -7.3574    4.8533   -0.3833 C   0  0  0  0  0  0  0  0  0  0  0  0
   -6.8845    2.9700    1.2150 C   0  0  0  0  0  0  0  0  0  0  0  0
   -6.4037    3.6600    2.1564 O   0  0  0  0  0  0  0  0  0  0  0  0
   -7.6069    1.7687    1.5577 N   0  0  0  0  0  0  0  0  0  0  0  0
   -8.4275    0.9612    0.6348 C   0  0  2  0  0  0  0  0  0  0  0  0
   -9.6886    1.7286    0.2203 C   0  0  0  0  0  0  0  0  0  0  0  0
   -8.8673   -0.3475    1.2691 C   0  0  0  0  0  0  0  0  0  0  0  0
   -8.9583   -0.4362    2.5230 O   0  0  0  0  0  0  0  0  0  0  0  0
   -9.3253   -1.4547    0.4728 N   0  0  0  0  0  0  0  0  0  0  0  0
   -8.7959   -1.7798   -0.8540 C   0  0  2  0  0  0  0  0  0  0  0  0
   -9.7354   -2.7566   -1.5742 C   0  0  0  0  0  0  0  0  0  0  0  0
   -7.4001   -2.3374   -0.7180 C   0  0  0  0  0  0  0  0  0  0  0  0
   -6.4171   -1.5478   -0.7637 O   0  0  0  0  0  0  0  0  0  0  0  0
   -7.1688   -3.7436   -0.5555 N   0  0  0  0  0  0  0  0  0  0  0  0
   -6.7120   -4.3667    0.6955 C   0  0  2  0  0  0  0  0  0  0  0  0
   -7.8805   -4.5034    1.6756 C   0  0  0  0  0  0  0  0  0  0  0  0
   -5.5708   -3.5949    1.3327 C   0  0  0  0  0  0  0  0  0  0  0  0
   -5.8186   -2.4761    1.8602 O   0  0  0  0  0  0  0  0  0  0  0  0
   -4.2153   -4.0764    1.3710 N   0  0  0  0  0  0  0  0  0  0  0  0
   -3.7534   -5.3697    0.8355 C   0  0  1  0  0  0  0  0  0  0  0  0
   -3.6727   -5.3373   -0.6703 C   0  0  0  0  0  0  0  0  0  0  0  0
   -3.4556   -6.5427   -1.4061 N   0  0  0  0  0  0  0  0  0  0  0  0
   -3.8091   -4.2503   -1.2997 O   0  0  0  0  0  0  0  0  0  0  0  0
   -2.4238   -5.8323    1.4801 C   0  0  0  0  0  0  0  0  0  0  0  0
   -1.1103   -4.5626    1.6095 S   0  0  0  0  0  0  0  0  0  0  0  0
   -0.4601   -4.6893   -0.0924 C   0  0  0  0  0  0  0  0  0  0  0  0
    7.3439   -6.3407   -1.2517 H   0  0  0  0  0  0  0  0  0  0  0  0
    7.2188   -7.3510    0.2307 H   0  0  0  0  0  0  0  0  0  0  0  0
    8.5719   -7.5937   -0.9326 H   0  0  0  0  0  0  0  0  0  0  0  0
    9.5735   -3.9338    0.5808 H   0  0  0  0  0  0  0  0  0  0  0  0
    7.3493   -4.1947   -1.4063 H   0  0  0  0  0  0  0  0  0  0  0  0
    5.9673   -2.5655    0.2997 H   0  0  0  0  0  0  0  0  0  0  0  0
    6.9757   -3.3433    1.5266 H   0  0  0  0  0  0  0  0  0  0  0  0
    5.0970   -3.8128   -1.7019 H   0  0  0  0  0  0  0  0  0  0  0  0
    4.3049   -5.3950   -1.5797 H   0  0  0  0  0  0  0  0  0  0  0  0
    2.0333   -5.5899   -0.7421 H   0  0  0  0  0  0  0  0  0  0  0  0
   -0.1158   -2.0393    0.3540 H   0  0  0  0  0  0  0  0  0  0  0  0
    4.0623   -1.8056   -0.6166 H   0  0  0  0  0  0  0  0  0  0  0  0
    1.9799   -0.1715    1.3177 H   0  0  0  0  0  0  0  0  0  0  0  0
    2.9343    0.1752   -0.1548 H   0  0  0  0  0  0  0  0  0  0  0  0
    0.6513    2.5058   -1.9124 H   0  0  0  0  0  0  0  0  0  0  0  0
    2.1496    1.5395   -2.0288 H   0  0  0  0  0  0  0  0  0  0  0  0
    3.0383    2.4651    0.0194 H   0  0  0  0  0  0  0  0  0  0  0  0
    1.6908    4.6310   -1.6379 H   0  0  0  0  0  0  0  0  0  0  0  0
    4.9286    3.1980   -0.8805 H   0  0  0  0  0  0  0  0  0  0  0  0
    5.5455    4.8229   -2.7616 H   0  0  0  0  0  0  0  0  0  0  0  0
    6.9325    4.2905   -1.7746 H   0  0  0  0  0  0  0  0  0  0  0  0
    6.2308    5.9288   -1.5038 H   0  0  0  0  0  0  0  0  0  0  0  0
    4.9480    5.2363    1.2393 H   0  0  0  0  0  0  0  0  0  0  0  0
    7.0249    2.5715   -0.3014 H   0  0  0  0  0  0  0  0  0  0  0  0
    9.4262    3.7659    1.2524 H   0  0  0  0  0  0  0  0  0  0  0  0
    8.7950    4.4167   -0.3032 H   0  0  0  0  0  0  0  0  0  0  0  0
    9.5141    2.7828   -0.2533 H   0  0  0  0  0  0  0  0  0  0  0  0
    7.4329    1.9057    2.5546 H   0  0  0  0  0  0  0  0  0  0  0  0
    8.3362    0.9084   -0.9448 H   0  0  0  0  0  0  0  0  0  0  0  0
   10.4329   -0.2551   -1.2481 H   0  0  0  0  0  0  0  0  0  0  0  0
   10.3087   -1.0525    0.3756 H   0  0  0  0  0  0  0  0  0  0  0  0
   10.5653    0.7213    0.2388 H   0  0  0  0  0  0  0  0  0  0  0  0
    6.7405   -0.9435   -0.8370 H   0  0  0  0  0  0  0  0  0  0  0  0
   -0.8423    3.4253    1.0254 H   0  0  0  0  0  0  0  0  0  0  0  0
    0.8877    5.8205    0.2787 H   0  0  0  0  0  0  0  0  0  0  0  0
   -1.4610    5.6305    2.2671 H   0  0  0  0  0  0  0  0  0  0  0  0
   -0.4689    7.0957    1.8894 H   0  0  0  0  0  0  0  0  0  0  0  0
    0.2962    5.6789    2.6935 H   0  0  0  0  0  0  0  0  0  0  0  0
   -1.8305    3.9043   -1.0706 H   0  0  0  0  0  0  0  0  0  0  0  0
   -3.7843    4.8334   -2.2212 H   0  0  0  0  0  0  0  0  0  0  0  0
   -3.5910    7.1755   -0.2255 H   0  0  0  0  0  0  0  0  0  0  0  0
   -4.9417    6.8622   -1.3738 H   0  0  0  0  0  0  0  0  0  0  0  0
   -3.3134    7.2290   -2.0231 H   0  0  0  0  0  0  0  0  0  0  0  0
   -5.0540    2.9402   -1.4628 H   0  0  0  0  0  0  0  0  0  0  0  0
   -7.2440    2.7891   -0.9051 H   0  0  0  0  0  0  0  0  0  0  0  0
   -7.2443    5.1855   -1.4347 H   0  0  0  0  0  0  0  0  0  0  0  0
   -8.4411    4.8087   -0.1429 H   0  0  0  0  0  0  0  0  0  0  0  0
   -6.8797    5.6021    0.2818 H   0  0  0  0  0  0  0  0  0  0  0  0
   -7.5349    1.4800    2.5606 H   0  0  0  0  0  0  0  0  0  0  0  0
   -7.8110    0.7332   -0.2583 H   0  0  0  0  0  0  0  0  0  0  0  0
   -9.4407    2.6658   -0.3151 H   0  0  0  0  0  0  0  0  0  0  0  0
  -10.3126    1.1084   -0.4599 H   0  0  0  0  0  0  0  0  0  0  0  0
  -10.2903    1.9924    1.1200 H   0  0  0  0  0  0  0  0  0  0  0  0
   -9.9665   -2.1366    0.9385 H   0  0  0  0  0  0  0  0  0  0  0  0
   -8.7673   -0.8664   -1.4838 H   0  0  0  0  0  0  0  0  0  0  0  0
   -9.8858   -3.6822   -0.9787 H   0  0  0  0  0  0  0  0  0  0  0  0
  -10.7238   -2.2784   -1.7368 H   0  0  0  0  0  0  0  0  0  0  0  0
   -9.3174   -3.0288   -2.5678 H   0  0  0  0  0  0  0  0  0  0  0  0
   -7.4734   -4.3808   -1.3288 H   0  0  0  0  0  0  0  0  0  0  0  0
   -6.3946   -5.3964    0.4483 H   0  0  0  0  0  0  0  0  0  0  0  0
   -7.5535   -5.0732    2.5710 H   0  0  0  0  0  0  0  0  0  0  0  0
   -8.2485   -3.5115    2.0035 H   0  0  0  0  0  0  0  0  0  0  0  0
   -8.7200   -5.0530    1.1972 H   0  0  0  0  0  0  0  0  0  0  0  0
   -3.5177   -3.4139    1.7605 H   0  0  0  0  0  0  0  0  0  0  0  0
   -4.4899   -6.1500    1.1121 H   0  0  0  0  0  0  0  0  0  0  0  0
   -3.3805   -6.5218   -2.4483 H   0  0  0  0  0  0  0  0  0  0  0  0
   -3.3756   -7.4618   -0.9192 H   0  0  0  0  0  0  0  0  0  0  0  0
   -2.0297   -6.7369    0.9730 H   0  0  0  0  0  0  0  0  0  0  0  0
   -2.6469   -6.1398    2.5232 H   0  0  0  0  0  0  0  0  0  0  0  0
   -0.2895   -5.7566   -0.3528 H   0  0  0  0  0  0  0  0  0  0  0  0
   -1.1953   -4.2649   -0.8060 H   0  0  0  0  0  0  0  0  0  0  0  0
  1  2  1  0
  2  3  2  0
  2  4  1  0
  4  5  1  0
  5  6  1  0
  6  7  1  0
  7  8  1  0
  8  9  1  0
  9 10  1  0
 10 11  2  0
 11 12  1  0
 12 13  2  0
 13 14  1  0
 13 15  1  0
 15 16  1  0
 16 17  1  0
 17 18  1  0
 18 19  1  0
 19 20  1  0
 20 21  2  0
 20 22  1  0
 22 23  1  0
 22 24  1  0
 24 25  1  0
 25 26  2  0
 25 27  1  0
 27 28  1  0
 27 29  1  0
 29 30  1  0
 30 31  2  0
 30 32  1  0
 32 33  1  0
 32 34  1  0
 34 35  1  0
 35 36  2  0
 18 37  1  0
 37 38  2  0
 37 39  1  0
 39 40  1  0
 40 41  1  0
 40 42  1  0
 42 43  2  0
 42 44  1  0
 44 45  1  0
 45 46  1  0
 45 47  1  0
 47 48  2  0
 47 49  1  0
 49 50  1  0
 50 51  1  0
 50 52  1  0
 52 53  2  0
 52 54  1  0
 54 55  1  0
 55 56  1  0
 55 57  1  0
 57 58  2  0
 57 59  1  0
 59 60  1  0
 60 61  1  0
 60 62  1  0
 62 63  2  0
 62 64  1  0
 64 65  1  0
 65 66  1  0
 65 67  1  0
 67 68  2  0
 67 69  1  0
 69 70  1  0
 70 71  1  0
 71 72  1  0
 71 73  2  0
 70 74  1  0
 74 75  1  0
 75 76  1  0
 35  5  1  0
 14  9  2  0
 76 11  1  0
  1 77  1  0
  1 78  1  0
  1 79  1  0
  4 80  1  0
  5 81  1  6
  6 82  1  0
  6 83  1  0
  8 84  1  0
  8 85  1  0
 10 86  1  0
 12 87  1  0
 14 88  1  0
 15 89  1  0
 15 90  1  0
 17 91  1  0
 17 92  1  0
 18 93  1  1
 19 94  1  0
 22 95  1  6
 23 96  1  0
 23 97  1  0
 23 98  1  0
 24 99  1  0
 27100  1  6
 28101  1  0
 28102  1  0
 28103  1  0
 29104  1  0
 32105  1  6
 33106  1  0
 33107  1  0
 33108  1  0
 34109  1  0
 39110  1  0
 40111  1  6
 41112  1  0
 41113  1  0
 41114  1  0
 44115  1  0
 45116  1  6
 46117  1  0
 46118  1  0
 46119  1  0
 49120  1  0
 50121  1  6
 51122  1  0
 51123  1  0
 51124  1  0
 54125  1  0
 55126  1  6
 56127  1  0
 56128  1  0
 56129  1  0
 59130  1  0
 60131  1  6
 61132  1  0
 61133  1  0
 61134  1  0
 64135  1  0
 65136  1  6
 66137  1  0
 66138  1  0
 66139  1  0
 69140  1  0
 70141  1  6
 72142  1  0
 72143  1  0
 74144  1  0
 74145  1  0
 76146  1  0
 76147  1  0
M  END
