
     RDKit          3D

147149  0  0  0  0  0  0  0  0999 V2000
  -11.0636    3.9406    0.3764 C   0  0  0  0  0  0  0  0  0  0  0  0
  -10.1688    3.8617   -0.8171 C   0  0  0  0  0  0  0  0  0  0  0  0
  -10.6199    4.1659   -1.9552 O   0  0  0  0  0  0  0  0  0  0  0  0
   -8.8012    3.4501   -0.6541 N   0  0  0  0  0  0  0  0  0  0  0  0
   -7.9362    3.1004   -1.7885 C   0  0  1  0  0  0  0  0  0  0  0  0
   -6.6626    3.9649   -1.7874 C   0  0  0  0  0  0  0  0  0  0  0  0
   -5.6185    3.6923   -0.3056 S   0  0  0  0  0  0  0  0  0  0  0  0
   -4.1194    3.1460   -1.1856 C   0  0  0  0  0  0  0  0  0  0  0  0
   -3.0453    2.8463   -0.1792 C   0  0  0  0  0  0  0  0  0  0  0  0
   -3.1233    1.6857    0.6029 C   0  0  0  0  0  0  0  0  0  0  0  0
   -2.1847    1.4464    1.6191 C   0  0  0  0  0  0  0  0  0  0  0  0
   -1.1357    2.3580    1.8217 C   0  0  0  0  0  0  0  0  0  0  0  0
   -1.0218    3.4967    1.0072 C   0  0  0  0  0  0  0  0  0  0  0  0
   -1.9786    3.7352    0.0079 C   0  0  0  0  0  0  0  0  0  0  0  0
    0.1218    4.4576    1.2026 C   0  0  0  0  0  0  0  0  0  0  0  0
    1.7091    3.6300    0.8313 S   0  0  0  0  0  0  0  0  0  0  0  0
    2.7271    5.1518    0.9474 C   0  0  0  0  0  0  0  0  0  0  0  0
    3.0812    5.6879   -0.4518 C   0  0  1  0  0  0  0  0  0  0  0  0
    3.5053    7.1391   -0.4002 C   0  0  0  0  0  0  0  0  0  0  0  0
    4.2916    7.6490    0.6853 N   0  0  0  0  0  0  0  0  0  0  0  0
    3.1910    7.9079   -1.3546 O   0  0  0  0  0  0  0  0  0  0  0  0
    4.1069    4.8282   -1.0732 N   0  0  0  0  0  0  0  0  0  0  0  0
    5.3363    5.3064   -1.6350 C   0  0  0  0  0  0  0  0  0  0  0  0
    5.3004    6.0462   -2.6574 O   0  0  0  0  0  0  0  0  0  0  0  0
    6.6706    4.9160   -1.0466 C   0  0  1  0  0  0  0  0  0  0  0  0
    7.3797    6.1514   -0.4815 C   0  0  0  0  0  0  0  0  0  0  0  0
    6.5091    3.9116    0.0117 N   0  0  0  0  0  0  0  0  0  0  0  0
    7.6068    3.0894    0.4171 C   0  0  0  0  0  0  0  0  0  0  0  0
    8.3032    3.4552    1.3978 O   0  0  0  0  0  0  0  0  0  0  0  0
    7.8231    1.7254   -0.1942 C   0  0  1  0  0  0  0  0  0  0  0  0
    7.6265    1.7288   -1.7106 C   0  0  0  0  0  0  0  0  0  0  0  0
    9.1750    1.2488    0.1145 N   0  0  0  0  0  0  0  0  0  0  0  0
    9.4508    0.0060    0.7757 C   0  0  0  0  0  0  0  0  0  0  0  0
   10.3737   -0.0250    1.6405 O   0  0  0  0  0  0  0  0  0  0  0  0
    8.7821   -1.2828    0.3321 C   0  0  1  0  0  0  0  0  0  0  0  0
    9.4791   -1.7718   -0.9459 C   0  0  0  0  0  0  0  0  0  0  0  0
    8.8556   -2.3132    1.3800 N   0  0  0  0  0  0  0  0  0  0  0  0
    8.3299   -3.6506    1.2641 C   0  0  0  0  0  0  0  0  0  0  0  0
    8.9063   -4.5810    1.8894 O   0  0  0  0  0  0  0  0  0  0  0  0
    7.0870   -3.9814    0.4589 C   0  0  1  0  0  0  0  0  0  0  0  0
    7.4405   -4.9804   -0.6537 C   0  0  0  0  0  0  0  0  0  0  0  0
    6.0631   -4.5509    1.3509 N   0  0  0  0  0  0  0  0  0  0  0  0
    4.7298   -4.9419    0.9737 C   0  0  0  0  0  0  0  0  0  0  0  0
    4.0927   -5.7129    1.7428 O   0  0  0  0  0  0  0  0  0  0  0  0
    4.0496   -4.4603   -0.2848 C   0  0  1  0  0  0  0  0  0  0  0  0
    3.8802   -5.6402   -1.2565 C   0  0  0  0  0  0  0  0  0  0  0  0
    2.7647   -3.8444    0.0788 N   0  0  0  0  0  0  0  0  0  0  0  0
    1.5849   -3.9053   -0.7328 C   0  0  0  0  0  0  0  0  0  0  0  0
    1.3819   -3.0005   -1.5881 O   0  0  0  0  0  0  0  0  0  0  0  0
    0.6241   -5.0696   -0.6223 C   0  0  1  0  0  0  0  0  0  0  0  0
    0.5886   -5.6925    0.7844 C   0  0  0  0  0  0  0  0  0  0  0  0
   -0.7268   -4.7298   -1.1005 N   0  0  0  0  0  0  0  0  0  0  0  0
   -1.4719   -3.5341   -0.7988 C   0  0  0  0  0  0  0  0  0  0  0  0
   -2.1110   -2.9724   -1.7278 O   0  0  0  0  0  0  0  0  0  0  0  0
   -1.6112   -2.9922    0.6082 C   0  0  1  0  0  0  0  0  0  0  0  0
   -1.2241   -1.5004    0.6301 C   0  0  0  0  0  0  0  0  0  0  0  0
   -0.8989   -0.9144    2.3369 S   0  0  0  0  0  0  0  0  0  0  0  0
   -2.3249    0.2300    2.4991 C   0  0  0  0  0  0  0  0  0  0  0  0
   -2.9901   -3.1808    1.0778 N   0  0  0  0  0  0  0  0  0  0  0  0
   -3.6892   -4.4353    0.9903 C   0  0  0  0  0  0  0  0  0  0  0  0
   -3.0430   -5.4994    0.7927 O   0  0  0  0  0  0  0  0  0  0  0  0
   -5.1933   -4.5134    1.1101 C   0  0  1  0  0  0  0  0  0  0  0  0
   -5.5941   -5.1497    2.4437 C   0  0  0  0  0  0  0  0  0  0  0  0
   -5.8280   -3.2003    0.9647 N   0  0  0  0  0  0  0  0  0  0  0  0
   -5.9294   -2.5544   -0.3048 C   0  0  0  0  0  0  0  0  0  0  0  0
   -4.8833   -2.1993   -0.9155 O   0  0  0  0  0  0  0  0  0  0  0  0
   -7.2665   -2.3138   -0.9471 C   0  0  1  0  0  0  0  0  0  0  0  0
   -7.5704   -3.4326   -1.9470 C   0  0  0  0  0  0  0  0  0  0  0  0
   -8.3277   -2.2417    0.0645 N   0  0  0  0  0  0  0  0  0  0  0  0
   -9.0028   -1.0509    0.5093 C   0  0  0  0  0  0  0  0  0  0  0  0
  -10.0328   -1.1754    1.2223 O   0  0  0  0  0  0  0  0  0  0  0  0
   -8.4859    0.3483    0.2555 C   0  0  1  0  0  0  0  0  0  0  0  0
   -7.0902    0.5322    0.8799 C   0  0  0  0  0  0  0  0  0  0  0  0
   -8.5199    0.6741   -1.1775 N   0  0  0  0  0  0  0  0  0  0  0  0
   -7.6418    1.6169   -1.8119 C   0  0  0  0  0  0  0  0  0  0  0  0
   -6.7115    1.1801   -2.5363 O   0  0  0  0  0  0  0  0  0  0  0  0
  -10.6490    4.6668    1.1070 H   0  0  0  0  0  0  0  0  0  0  0  0
  -12.0840    4.2721    0.0781 H   0  0  0  0  0  0  0  0  0  0  0  0
  -11.1391    2.9389    0.8563 H   0  0  0  0  0  0  0  0  0  0  0  0
   -8.4381    3.3349    0.3170 H   0  0  0  0  0  0  0  0  0  0  0  0
   -8.4622    3.3212   -2.7438 H   0  0  0  0  0  0  0  0  0  0  0  0
   -6.0957    3.7884   -2.7240 H   0  0  0  0  0  0  0  0  0  0  0  0
   -6.9567    5.0330   -1.7938 H   0  0  0  0  0  0  0  0  0  0  0  0
   -3.7950    3.9513   -1.8796 H   0  0  0  0  0  0  0  0  0  0  0  0
   -4.3335    2.2370   -1.7845 H   0  0  0  0  0  0  0  0  0  0  0  0
   -3.9312    0.9855    0.4347 H   0  0  0  0  0  0  0  0  0  0  0  0
   -0.4141    2.1858    2.6111 H   0  0  0  0  0  0  0  0  0  0  0  0
   -1.9060    4.6236   -0.6064 H   0  0  0  0  0  0  0  0  0  0  0  0
    0.1274    4.8139    2.2542 H   0  0  0  0  0  0  0  0  0  0  0  0
    0.0096    5.3414    0.5350 H   0  0  0  0  0  0  0  0  0  0  0  0
    2.1982    5.9301    1.5459 H   0  0  0  0  0  0  0  0  0  0  0  0
    3.6558    4.8840    1.4998 H   0  0  0  0  0  0  0  0  0  0  0  0
    2.1649    5.6352   -1.0847 H   0  0  0  0  0  0  0  0  0  0  0  0
    4.5964    7.0342    1.4801 H   0  0  0  0  0  0  0  0  0  0  0  0
    4.5900    8.6556    0.6834 H   0  0  0  0  0  0  0  0  0  0  0  0
    3.9053    3.8018   -1.1653 H   0  0  0  0  0  0  0  0  0  0  0  0
    7.2927    4.5028   -1.8667 H   0  0  0  0  0  0  0  0  0  0  0  0
    6.8089    6.5728    0.3699 H   0  0  0  0  0  0  0  0  0  0  0  0
    7.4872    6.9322   -1.2661 H   0  0  0  0  0  0  0  0  0  0  0  0
    8.3971    5.8776   -0.1310 H   0  0  0  0  0  0  0  0  0  0  0  0
    5.8063    4.1126    0.7587 H   0  0  0  0  0  0  0  0  0  0  0  0
    7.0617    1.0493    0.2551 H   0  0  0  0  0  0  0  0  0  0  0  0
    6.6047    2.0796   -1.9675 H   0  0  0  0  0  0  0  0  0  0  0  0
    8.3788    2.3844   -2.1997 H   0  0  0  0  0  0  0  0  0  0  0  0
    7.7402    0.7002   -2.1075 H   0  0  0  0  0  0  0  0  0  0  0  0
    9.9785    1.9034   -0.0337 H   0  0  0  0  0  0  0  0  0  0  0  0
    7.7179   -1.0735    0.1064 H   0  0  0  0  0  0  0  0  0  0  0  0
    9.5358   -0.9539   -1.6937 H   0  0  0  0  0  0  0  0  0  0  0  0
    8.8967   -2.5917   -1.4052 H   0  0  0  0  0  0  0  0  0  0  0  0
   10.5048   -2.1256   -0.7199 H   0  0  0  0  0  0  0  0  0  0  0  0
    9.4101   -2.1322    2.2488 H   0  0  0  0  0  0  0  0  0  0  0  0
    6.6921   -3.0515   -0.0000 H   0  0  0  0  0  0  0  0  0  0  0  0
    8.4719   -4.8125   -1.0380 H   0  0  0  0  0  0  0  0  0  0  0  0
    6.7535   -4.8541   -1.5107 H   0  0  0  0  0  0  0  0  0  0  0  0
    7.3934   -6.0241   -0.2732 H   0  0  0  0  0  0  0  0  0  0  0  0
    6.3365   -4.7773    2.3361 H   0  0  0  0  0  0  0  0  0  0  0  0
    4.6614   -3.6843   -0.7846 H   0  0  0  0  0  0  0  0  0  0  0  0
    3.2248   -6.4210   -0.8258 H   0  0  0  0  0  0  0  0  0  0  0  0
    3.4519   -5.2876   -2.2212 H   0  0  0  0  0  0  0  0  0  0  0  0
    4.8604   -6.1121   -1.4791 H   0  0  0  0  0  0  0  0  0  0  0  0
    2.7983   -3.0627    0.7752 H   0  0  0  0  0  0  0  0  0  0  0  0
    1.0106   -5.8633   -1.3019 H   0  0  0  0  0  0  0  0  0  0  0  0
    0.6695   -4.9314    1.5859 H   0  0  0  0  0  0  0  0  0  0  0  0
    1.4515   -6.3847    0.9086 H   0  0  0  0  0  0  0  0  0  0  0  0
   -0.3415   -6.2845    0.9223 H   0  0  0  0  0  0  0  0  0  0  0  0
   -1.0742   -5.2839   -1.9155 H   0  0  0  0  0  0  0  0  0  0  0  0
   -0.9453   -3.5362    1.2956 H   0  0  0  0  0  0  0  0  0  0  0  0
   -0.2758   -1.3581    0.0651 H   0  0  0  0  0  0  0  0  0  0  0  0
   -2.0020   -0.8971    0.1225 H   0  0  0  0  0  0  0  0  0  0  0  0
   -3.2708   -0.3075    2.2867 H   0  0  0  0  0  0  0  0  0  0  0  0
   -2.3728    0.5654    3.5561 H   0  0  0  0  0  0  0  0  0  0  0  0
   -3.4876   -2.3816    1.5299 H   0  0  0  0  0  0  0  0  0  0  0  0
   -5.5710   -5.1720    0.2889 H   0  0  0  0  0  0  0  0  0  0  0  0
   -6.7014   -5.1608    2.5404 H   0  0  0  0  0  0  0  0  0  0  0  0
   -5.1676   -4.5719    3.2941 H   0  0  0  0  0  0  0  0  0  0  0  0
   -5.2218   -6.1948    2.4990 H   0  0  0  0  0  0  0  0  0  0  0  0
   -5.9855   -2.6077    1.8199 H   0  0  0  0  0  0  0  0  0  0  0  0
   -7.2071   -1.3731   -1.5203 H   0  0  0  0  0  0  0  0  0  0  0  0
   -8.5397   -3.2358   -2.4537 H   0  0  0  0  0  0  0  0  0  0  0  0
   -7.6272   -4.4148   -1.4278 H   0  0  0  0  0  0  0  0  0  0  0  0
   -6.7742   -3.4829   -2.7229 H   0  0  0  0  0  0  0  0  0  0  0  0
   -8.6307   -3.1454    0.5014 H   0  0  0  0  0  0  0  0  0  0  0  0
   -9.1648    1.0578    0.7789 H   0  0  0  0  0  0  0  0  0  0  0  0
   -7.0492    0.0536    1.8827 H   0  0  0  0  0  0  0  0  0  0  0  0
   -6.2976    0.0966    0.2378 H   0  0  0  0  0  0  0  0  0  0  0  0
   -6.8834    1.6075    1.0204 H   0  0  0  0  0  0  0  0  0  0  0  0
   -9.1299    0.1080   -1.8116 H   0  0  0  0  0  0  0  0  0  0  0  0
  1  2  1  0
  2  3  2  0
  2  4  1  0
  4  5  1  0
  5  6  1  0
  6  7  1  0
  7  8  1  0
  8  9  1  0
  9 10  1  0
 10 11  2  0
 11 12  1  0
 12 13  2  0
 13 14  1  0
 13 15  1  0
 15 16  1  0
 16 17  1  0
 17 18  1  0
 18 19  1  0
 19 20  1  0
 19 21  2  0
 18 22  1  0
 22 23  1  0
 23 24  2  0
 23 25  1  0
 25 26  1  0
 25 27  1  0
 27 28  1  0
 28 29  2  0
 28 30  1  0
 30 31  1  0
 30 32  1  0
 32 33  1  0
 33 34  2  0
 33 35  1  0
 35 36  1  0
 35 37  1  0
 37 38  1  0
 38 39  2  0
 38 40  1  0
 40 41  1  0
 40 42  1  0
 42 43  1  0
 43 44  2  0
 43 45  1  0
 45 46  1  0
 45 47  1  0
 47 48  1  0
 48 49  2  0
 48 50  1  0
 50 51  1  0
 50 52  1  0
 52 53  1  0
 53 54  2  0
 53 55  1  0
 55 56  1  0
 56 57  1  0
 57 58  1  0
 55 59  1  0
 59 60  1  0
 60 61  2  0
 60 62  1  0
 62 63  1  0
 62 64  1  0
 64 65  1  0
 65 66  2  0
 65 67  1  0
 67 68  1  0
 67 69  1  0
 69 70  1  0
 70 71  2  0
 70 72  1  0
 72 73  1  0
 72 74  1  0
 74 75  1  0
 75 76  2  0
 75  5  1  0
 14  9  2  0
 58 11  1  0
  1 77  1  0
  1 78  1  0
  1 79  1  0
  4 80  1  0
  5 81  1  6
  6 82  1  0
  6 83  1  0
  8 84  1  0
  8 85  1  0
 10 86  1  0
 12 87  1  0
 14 88  1  0
 15 89  1  0
 15 90  1  0
 17 91  1  0
 17 92  1  0
 18 93  1  6
 20 94  1  0
 20 95  1  0
 22 96  1  0
 25 97  1  6
 26 98  1  0
 26 99  1  0
 26100  1  0
 27101  1  0
 30102  1  1
 31103  1  0
 31104  1  0
 31105  1  0
 32106  1  0
 35107  1  6
 36108  1  0
 36109  1  0
 36110  1  0
 37111  1  0
 40112  1  6
 41113  1  0
 41114  1  0
 41115  1  0
 42116  1  0
 45117  1  6
 46118  1  0
 46119  1  0
 46120  1  0
 47121  1  0
 50122  1  6
 51123  1  0
 51124  1  0
 51125  1  0
 52126  1  0
 55127  1  1
 56128  1  0
 56129  1  0
 58130  1  0
 58131  1  0
 59132  1  0
 62133  1  6
 63134  1  0
 63135  1  0
 63136  1  0
 64137  1  0
 67138  1  6
 68139  1  0
 68140  1  0
 68141  1  0
 69142  1  0
 72143  1  1
 73144  1  0
 73145  1  0
 73146  1  0
 74147  1  0
M  END
