
     RDKit          3D

157159  0  0  0  0  0  0  0  0999 V2000
   10.1871   -4.2866   -1.3990 C   0  0  0  0  0  0  0  0  0  0  0  0
    9.2608   -3.2686   -1.9956 C   0  0  0  0  0  0  0  0  0  0  0  0
    9.5584   -2.7569   -3.1084 O   0  0  0  0  0  0  0  0  0  0  0  0
    8.0314   -2.8929   -1.3606 N   0  0  0  0  0  0  0  0  0  0  0  0
    7.6305   -3.2939   -0.0060 C   0  0  2  0  0  0  0  0  0  0  0  0
    6.2380   -2.7304    0.3272 C   0  0  0  0  0  0  0  0  0  0  0  0
    5.6596   -3.2891    1.9795 S   0  0  0  0  0  0  0  0  0  0  0  0
    4.3881   -1.9914    2.1815 C   0  0  0  0  0  0  0  0  0  0  0  0
    3.2960   -2.1697    1.1673 C   0  0  0  0  0  0  0  0  0  0  0  0
    2.3993   -3.2377    1.2876 C   0  0  0  0  0  0  0  0  0  0  0  0
    1.4225   -3.4533    0.3054 C   0  0  0  0  0  0  0  0  0  0  0  0
    1.3262   -2.5740   -0.7857 C   0  0  0  0  0  0  0  0  0  0  0  0
    2.2360   -1.5138   -0.9315 C   0  0  0  0  0  0  0  0  0  0  0  0
    3.2161   -1.3130    0.0615 C   0  0  0  0  0  0  0  0  0  0  0  0
    2.1395   -0.6614   -2.1804 C   0  0  0  0  0  0  0  0  0  0  0  0
    3.4509    0.6111   -2.3547 S   0  0  0  0  0  0  0  0  0  0  0  0
    2.3802    2.0952   -2.3286 C   0  0  0  0  0  0  0  0  0  0  0  0
    1.7508    2.3907   -0.9445 C   0  0  1  0  0  0  0  0  0  0  0  0
    2.5833    1.9297    0.1824 N   0  0  0  0  0  0  0  0  0  0  0  0
    3.8736    2.4203    0.6046 C   0  0  0  0  0  0  0  0  0  0  0  0
    4.3522    1.9855    1.6900 O   0  0  0  0  0  0  0  0  0  0  0  0
    4.7167    3.3912   -0.1974 C   0  0  1  0  0  0  0  0  0  0  0  0
    5.1053    4.5754    0.7058 C   0  0  0  0  0  0  0  0  0  0  0  0
    5.9034    2.6853   -0.7009 N   0  0  0  0  0  0  0  0  0  0  0  0
    7.1301    3.3270   -1.0789 C   0  0  0  0  0  0  0  0  0  0  0  0
    7.1096    4.4833   -1.5740 O   0  0  0  0  0  0  0  0  0  0  0  0
    8.4353    2.6009   -0.8410 C   0  0  1  0  0  0  0  0  0  0  0  0
    9.6618    3.4777   -1.1402 C   0  0  0  0  0  0  0  0  0  0  0  0
    8.4867    2.1654    0.5614 N   0  0  0  0  0  0  0  0  0  0  0  0
    8.2287    0.8161    0.9736 C   0  0  0  0  0  0  0  0  0  0  0  0
    7.3785    0.6163    1.8862 O   0  0  0  0  0  0  0  0  0  0  0  0
    8.9114   -0.3721    0.3297 C   0  0  1  0  0  0  0  0  0  0  0  0
   10.3306   -0.0557   -0.1410 C   0  0  0  0  0  0  0  0  0  0  0  0
    8.9835   -1.4758    1.2930 N   0  0  0  0  0  0  0  0  0  0  0  0
    8.6372   -2.8534    1.0393 C   0  0  0  0  0  0  0  0  0  0  0  0
    9.1214   -3.7420    1.7885 O   0  0  0  0  0  0  0  0  0  0  0  0
    1.3538    3.8405   -0.7861 C   0  0  0  0  0  0  0  0  0  0  0  0
    1.7543    4.5028    0.2157 O   0  0  0  0  0  0  0  0  0  0  0  0
    0.4447    4.4742   -1.7012 N   0  0  0  0  0  0  0  0  0  0  0  0
   -0.7953    3.8189   -2.1287 C   0  0  2  0  0  0  0  0  0  0  0  0
   -1.4009    4.5291   -3.3445 C   0  0  0  0  0  0  0  0  0  0  0  0
   -1.7524    3.7417   -0.9581 C   0  0  0  0  0  0  0  0  0  0  0  0
   -1.8571    2.6523   -0.3359 O   0  0  0  0  0  0  0  0  0  0  0  0
   -2.4749    4.9114   -0.5125 N   0  0  0  0  0  0  0  0  0  0  0  0
   -2.9175    5.1320    0.8751 C   0  0  2  0  0  0  0  0  0  0  0  0
   -1.7668    4.9453    1.8678 C   0  0  0  0  0  0  0  0  0  0  0  0
   -4.1054    4.2723    1.2197 C   0  0  0  0  0  0  0  0  0  0  0  0
   -4.0111    3.0181    1.2186 O   0  0  0  0  0  0  0  0  0  0  0  0
   -5.3403    4.8766    1.6099 N   0  0  0  0  0  0  0  0  0  0  0  0
   -6.3452    5.2629    0.6153 C   0  0  2  0  0  0  0  0  0  0  0  0
   -5.9951    6.6235   -0.0029 C   0  0  0  0  0  0  0  0  0  0  0  0
   -7.7159    5.3192    1.2706 C   0  0  0  0  0  0  0  0  0  0  0  0
   -7.9614    6.2557    2.0790 O   0  0  0  0  0  0  0  0  0  0  0  0
   -8.7170    4.2978    1.0757 N   0  0  0  0  0  0  0  0  0  0  0  0
   -8.5293    3.0833    0.2686 C   0  0  2  0  0  0  0  0  0  0  0  0
   -8.8612    3.3971   -1.1948 C   0  0  0  0  0  0  0  0  0  0  0  0
   -9.3986    1.9405    0.7745 C   0  0  0  0  0  0  0  0  0  0  0  0
  -10.2672    2.1665    1.6602 O   0  0  0  0  0  0  0  0  0  0  0  0
   -9.3000    0.6017    0.2471 N   0  0  0  0  0  0  0  0  0  0  0  0
   -8.1457    0.0377   -0.4599 C   0  0  2  0  0  0  0  0  0  0  0  0
   -8.6065   -0.5083   -1.8150 C   0  0  0  0  0  0  0  0  0  0  0  0
   -7.4956   -1.0063    0.4222 C   0  0  0  0  0  0  0  0  0  0  0  0
   -6.8266   -0.6138    1.4172 O   0  0  0  0  0  0  0  0  0  0  0  0
   -7.6776   -2.4169    0.1936 N   0  0  0  0  0  0  0  0  0  0  0  0
   -7.5793   -3.4246    1.2547 C   0  0  2  0  0  0  0  0  0  0  0  0
   -8.5464   -3.1060    2.4055 C   0  0  0  0  0  0  0  0  0  0  0  0
   -6.1401   -3.5627    1.7111 C   0  0  0  0  0  0  0  0  0  0  0  0
   -5.7915   -3.0938    2.8296 O   0  0  0  0  0  0  0  0  0  0  0  0
   -5.1379   -4.1483    0.8623 N   0  0  0  0  0  0  0  0  0  0  0  0
   -5.4258   -5.1806   -0.1431 C   0  0  2  0  0  0  0  0  0  0  0  0
   -5.7589   -6.5093    0.5441 C   0  0  0  0  0  0  0  0  0  0  0  0
   -4.2863   -5.3251   -1.1304 C   0  0  0  0  0  0  0  0  0  0  0  0
   -4.5499   -5.3606   -2.3617 O   0  0  0  0  0  0  0  0  0  0  0  0
   -2.9143   -5.3203   -0.7222 N   0  0  0  0  0  0  0  0  0  0  0  0
   -2.3261   -6.3601    0.1343 C   0  0  1  0  0  0  0  0  0  0  0  0
   -1.2619   -7.1612   -0.5874 C   0  0  0  0  0  0  0  0  0  0  0  0
   -0.9563   -6.9539   -1.9684 N   0  0  0  0  0  0  0  0  0  0  0  0
   -0.6271   -8.0474    0.0499 O   0  0  0  0  0  0  0  0  0  0  0  0
   -1.8013   -5.7470    1.4587 C   0  0  0  0  0  0  0  0  0  0  0  0
   -1.0398   -4.0833    1.3073 S   0  0  0  0  0  0  0  0  0  0  0  0
    0.4705   -4.6098    0.4237 C   0  0  0  0  0  0  0  0  0  0  0  0
   11.0163   -4.5092   -2.0949 H   0  0  0  0  0  0  0  0  0  0  0  0
    9.6240   -5.2259   -1.1916 H   0  0  0  0  0  0  0  0  0  0  0  0
   10.6260   -3.8983   -0.4580 H   0  0  0  0  0  0  0  0  0  0  0  0
    7.3557   -2.3378   -1.9314 H   0  0  0  0  0  0  0  0  0  0  0  0
    7.5468   -4.4023    0.0147 H   0  0  0  0  0  0  0  0  0  0  0  0
    5.5105   -3.0918   -0.4323 H   0  0  0  0  0  0  0  0  0  0  0  0
    6.2562   -1.6233    0.2777 H   0  0  0  0  0  0  0  0  0  0  0  0
    3.9625   -2.0598    3.2023 H   0  0  0  0  0  0  0  0  0  0  0  0
    4.8623   -0.9985    2.0988 H   0  0  0  0  0  0  0  0  0  0  0  0
    2.4676   -3.9109    2.1373 H   0  0  0  0  0  0  0  0  0  0  0  0
    0.5612   -2.7374   -1.5447 H   0  0  0  0  0  0  0  0  0  0  0  0
    3.9481   -0.5224   -0.0252 H   0  0  0  0  0  0  0  0  0  0  0  0
    2.2193   -1.3347   -3.0629 H   0  0  0  0  0  0  0  0  0  0  0  0
    1.1323   -0.2046   -2.2287 H   0  0  0  0  0  0  0  0  0  0  0  0
    1.5782    1.9604   -3.0850 H   0  0  0  0  0  0  0  0  0  0  0  0
    2.9833    2.9562   -2.6860 H   0  0  0  0  0  0  0  0  0  0  0  0
    0.8073    1.8137   -0.8964 H   0  0  0  0  0  0  0  0  0  0  0  0
    2.1346    1.2326    0.8158 H   0  0  0  0  0  0  0  0  0  0  0  0
    4.1559    3.8026   -1.0528 H   0  0  0  0  0  0  0  0  0  0  0  0
    5.8772    4.2663    1.4425 H   0  0  0  0  0  0  0  0  0  0  0  0
    5.4987    5.4135    0.0944 H   0  0  0  0  0  0  0  0  0  0  0  0
    4.2196    4.9560    1.2538 H   0  0  0  0  0  0  0  0  0  0  0  0
    5.8805    1.6349   -0.7475 H   0  0  0  0  0  0  0  0  0  0  0  0
    8.4423    1.7251   -1.5202 H   0  0  0  0  0  0  0  0  0  0  0  0
    9.6326    4.4175   -0.5534 H   0  0  0  0  0  0  0  0  0  0  0  0
    9.6979    3.7292   -2.2247 H   0  0  0  0  0  0  0  0  0  0  0  0
   10.5888    2.9321   -0.8836 H   0  0  0  0  0  0  0  0  0  0  0  0
    8.4388    2.9085    1.2923 H   0  0  0  0  0  0  0  0  0  0  0  0
    8.3060   -0.6459   -0.5542 H   0  0  0  0  0  0  0  0  0  0  0  0
   10.8927    0.5056    0.6339 H   0  0  0  0  0  0  0  0  0  0  0  0
   10.8791   -0.9986   -0.3574 H   0  0  0  0  0  0  0  0  0  0  0  0
   10.3214    0.5273   -1.0832 H   0  0  0  0  0  0  0  0  0  0  0  0
    9.4957   -1.2830    2.1880 H   0  0  0  0  0  0  0  0  0  0  0  0
    0.4931    5.5182   -1.7673 H   0  0  0  0  0  0  0  0  0  0  0  0
   -0.5661    2.7830   -2.4580 H   0  0  0  0  0  0  0  0  0  0  0  0
   -0.7574    4.3455   -4.2327 H   0  0  0  0  0  0  0  0  0  0  0  0
   -1.4724    5.6238   -3.1917 H   0  0  0  0  0  0  0  0  0  0  0  0
   -2.4139    4.1245   -3.5588 H   0  0  0  0  0  0  0  0  0  0  0  0
   -2.5255    5.7295   -1.1516 H   0  0  0  0  0  0  0  0  0  0  0  0
   -3.2324    6.1982    0.9601 H   0  0  0  0  0  0  0  0  0  0  0  0
   -2.0871    5.2761    2.8819 H   0  0  0  0  0  0  0  0  0  0  0  0
   -1.4558    3.8788    1.9283 H   0  0  0  0  0  0  0  0  0  0  0  0
   -0.8956    5.5555    1.5571 H   0  0  0  0  0  0  0  0  0  0  0  0
   -5.6414    4.7083    2.6027 H   0  0  0  0  0  0  0  0  0  0  0  0
   -6.3406    4.5300   -0.2122 H   0  0  0  0  0  0  0  0  0  0  0  0
   -5.8231    7.3866    0.7878 H   0  0  0  0  0  0  0  0  0  0  0  0
   -6.8114    6.9686   -0.6681 H   0  0  0  0  0  0  0  0  0  0  0  0
   -5.0757    6.5355   -0.6228 H   0  0  0  0  0  0  0  0  0  0  0  0
   -9.6757    4.5238    1.4338 H   0  0  0  0  0  0  0  0  0  0  0  0
   -7.4728    2.7554    0.3640 H   0  0  0  0  0  0  0  0  0  0  0  0
   -8.3457    4.3245   -1.5200 H   0  0  0  0  0  0  0  0  0  0  0  0
   -9.9562    3.5540   -1.3207 H   0  0  0  0  0  0  0  0  0  0  0  0
   -8.5351    2.5771   -1.8653 H   0  0  0  0  0  0  0  0  0  0  0  0
  -10.0630   -0.0635    0.5098 H   0  0  0  0  0  0  0  0  0  0  0  0
   -7.3803    0.8134   -0.6716 H   0  0  0  0  0  0  0  0  0  0  0  0
   -9.4059   -1.2621   -1.6885 H   0  0  0  0  0  0  0  0  0  0  0  0
   -7.7474   -0.9561   -2.3611 H   0  0  0  0  0  0  0  0  0  0  0  0
   -9.0137    0.3199   -2.4335 H   0  0  0  0  0  0  0  0  0  0  0  0
   -7.8553   -2.7687   -0.7686 H   0  0  0  0  0  0  0  0  0  0  0  0
   -7.9180   -4.4008    0.8487 H   0  0  0  0  0  0  0  0  0  0  0  0
   -9.5820   -3.0077    2.0085 H   0  0  0  0  0  0  0  0  0  0  0  0
   -8.5350   -3.9274    3.1532 H   0  0  0  0  0  0  0  0  0  0  0  0
   -8.2721   -2.1607    2.9150 H   0  0  0  0  0  0  0  0  0  0  0  0
   -4.1482   -3.8905    1.0563 H   0  0  0  0  0  0  0  0  0  0  0  0
   -6.3166   -4.8736   -0.7363 H   0  0  0  0  0  0  0  0  0  0  0  0
   -5.7132   -7.3522   -0.1806 H   0  0  0  0  0  0  0  0  0  0  0  0
   -5.0650   -6.7069    1.3905 H   0  0  0  0  0  0  0  0  0  0  0  0
   -6.7900   -6.4793    0.9589 H   0  0  0  0  0  0  0  0  0  0  0  0
   -2.2843   -4.6188   -1.1683 H   0  0  0  0  0  0  0  0  0  0  0  0
   -3.1003   -7.1042    0.3966 H   0  0  0  0  0  0  0  0  0  0  0  0
   -1.4398   -6.2403   -2.5534 H   0  0  0  0  0  0  0  0  0  0  0  0
   -0.2327   -7.5500   -2.4275 H   0  0  0  0  0  0  0  0  0  0  0  0
   -1.0978   -6.4373    1.9765 H   0  0  0  0  0  0  0  0  0  0  0  0
   -2.6661   -5.6269    2.1445 H   0  0  0  0  0  0  0  0  0  0  0  0
    0.2043   -4.9436   -0.5943 H   0  0  0  0  0  0  0  0  0  0  0  0
    0.9574   -5.4572    0.9489 H   0  0  0  0  0  0  0  0  0  0  0  0
  1  2  1  0
  2  3  2  0
  2  4  1  0
  4  5  1  0
  5  6  1  0
  6  7  1  0
  7  8  1  0
  8  9  1  0
  9 10  1  0
 10 11  2  0
 11 12  1  0
 12 13  2  0
 13 14  1  0
 13 15  1  0
 15 16  1  0
 16 17  1  0
 17 18  1  0
 18 19  1  0
 19 20  1  0
 20 21  2  0
 20 22  1  0
 22 23  1  0
 22 24  1  0
 24 25  1  0
 25 26  2  0
 25 27  1  0
 27 28  1  0
 27 29  1  0
 29 30  1  0
 30 31  2  0
 30 32  1  0
 32 33  1  0
 32 34  1  0
 34 35  1  0
 35 36  2  0
 18 37  1  0
 37 38  2  0
 37 39  1  0
 39 40  1  0
 40 41  1  0
 40 42  1  0
 42 43  2  0
 42 44  1  0
 44 45  1  0
 45 46  1  0
 45 47  1  0
 47 48  2  0
 47 49  1  0
 49 50  1  0
 50 51  1  0
 50 52  1  0
 52 53  2  0
 52 54  1  0
 54 55  1  0
 55 56  1  0
 55 57  1  0
 57 58  2  0
 57 59  1  0
 59 60  1  0
 60 61  1  0
 60 62  1  0
 62 63  2  0
 62 64  1  0
 64 65  1  0
 65 66  1  0
 65 67  1  0
 67 68  2  0
 67 69  1  0
 69 70  1  0
 70 71  1  0
 70 72  1  0
 72 73  2  0
 72 74  1  0
 74 75  1  0
 75 76  1  0
 76 77  1  0
 76 78  2  0
 75 79  1  0
 79 80  1  0
 80 81  1  0
 35  5  1  0
 14  9  2  0
 81 11  1  0
  1 82  1  0
  1 83  1  0
  1 84  1  0
  4 85  1  0
  5 86  1  6
  6 87  1  0
  6 88  1  0
  8 89  1  0
  8 90  1  0
 10 91  1  0
 12 92  1  0
 14 93  1  0
 15 94  1  0
 15 95  1  0
 17 96  1  0
 17 97  1  0
 18 98  1  6
 19 99  1  0
 22100  1  6
 23101  1  0
 23102  1  0
 23103  1  0
 24104  1  0
 27105  1  6
 28106  1  0
 28107  1  0
 28108  1  0
 29109  1  0
 32110  1  6
 33111  1  0
 33112  1  0
 33113  1  0
 34114  1  0
 39115  1  0
 40116  1  6
 41117  1  0
 41118  1  0
 41119  1  0
 44120  1  0
 45121  1  6
 46122  1  0
 46123  1  0
 46124  1  0
 49125  1  0
 50126  1  6
 51127  1  0
 51128  1  0
 51129  1  0
 54130  1  0
 55131  1  6
 56132  1  0
 56133  1  0
 56134  1  0
 59135  1  0
 60136  1  6
 61137  1  0
 61138  1  0
 61139  1  0
 64140  1  0
 65141  1  6
 66142  1  0
 66143  1  0
 66144  1  0
 69145  1  0
 70146  1  6
 71147  1  0
 71148  1  0
 71149  1  0
 74150  1  0
 75151  1  1
 77152  1  0
 77153  1  0
 79154  1  0
 79155  1  0
 81156  1  0
 81157  1  0
M  END
