
     RDKit          3D

157159  0  0  0  0  0  0  0  0999 V2000
   -8.9855   -3.9179   -2.2401 C   0  0  0  0  0  0  0  0  0  0  0  0
   -9.4221   -4.2858   -0.8537 C   0  0  0  0  0  0  0  0  0  0  0  0
  -10.4133   -5.0516   -0.7177 O   0  0  0  0  0  0  0  0  0  0  0  0
   -8.7509   -3.8021    0.3228 N   0  0  0  0  0  0  0  0  0  0  0  0
   -7.6024   -2.8878    0.3304 C   0  0  2  0  0  0  0  0  0  0  0  0
   -6.3385   -3.6462    0.7701 C   0  0  0  0  0  0  0  0  0  0  0  0
   -5.7884   -4.8584   -0.4942 S   0  0  0  0  0  0  0  0  0  0  0  0
   -4.8529   -3.6910   -1.5579 C   0  0  0  0  0  0  0  0  0  0  0  0
   -3.5240   -3.3587   -0.9392 C   0  0  0  0  0  0  0  0  0  0  0  0
   -3.3409   -2.1263   -0.2963 C   0  0  0  0  0  0  0  0  0  0  0  0
   -2.1325   -1.8347    0.3576 C   0  0  0  0  0  0  0  0  0  0  0  0
   -1.0771   -2.7565    0.2773 C   0  0  0  0  0  0  0  0  0  0  0  0
   -1.2414   -3.9877   -0.3756 C   0  0  0  0  0  0  0  0  0  0  0  0
   -2.4760   -4.2877   -0.9665 C   0  0  0  0  0  0  0  0  0  0  0  0
   -0.1077   -4.9768   -0.4220 C   0  0  0  0  0  0  0  0  0  0  0  0
    0.2907   -5.5728    1.2655 S   0  0  0  0  0  0  0  0  0  0  0  0
    1.7345   -4.4749    1.5867 C   0  0  0  0  0  0  0  0  0  0  0  0
    3.0645   -5.2394    1.6349 C   0  0  1  0  0  0  0  0  0  0  0  0
    3.0734   -6.2484    2.7585 C   0  0  0  0  0  0  0  0  0  0  0  0
    2.6941   -7.6092    2.5480 N   0  0  0  0  0  0  0  0  0  0  0  0
    3.4069   -5.8744    3.9142 O   0  0  0  0  0  0  0  0  0  0  0  0
    3.3611   -5.8741    0.3442 N   0  0  0  0  0  0  0  0  0  0  0  0
    4.6805   -5.9429   -0.2174 C   0  0  0  0  0  0  0  0  0  0  0  0
    4.8102   -5.9460   -1.4728 O   0  0  0  0  0  0  0  0  0  0  0  0
    5.9077   -6.0593    0.6529 C   0  0  1  0  0  0  0  0  0  0  0  0
    6.6639   -7.3463    0.3304 C   0  0  0  0  0  0  0  0  0  0  0  0
    6.7828   -4.9046    0.4463 N   0  0  0  0  0  0  0  0  0  0  0  0
    7.2415   -4.1176    1.5510 C   0  0  0  0  0  0  0  0  0  0  0  0
    6.4205   -3.7468    2.4361 O   0  0  0  0  0  0  0  0  0  0  0  0
    8.6845   -3.6888    1.6639 C   0  0  1  0  0  0  0  0  0  0  0  0
    9.6338   -4.6809    0.9833 C   0  0  0  0  0  0  0  0  0  0  0  0
    8.9423   -2.3326    1.1554 N   0  0  0  0  0  0  0  0  0  0  0  0
    8.0824   -1.5668    0.2900 C   0  0  0  0  0  0  0  0  0  0  0  0
    6.8276   -1.5898    0.4431 O   0  0  0  0  0  0  0  0  0  0  0  0
    8.7067   -0.6838   -0.7603 C   0  0  1  0  0  0  0  0  0  0  0  0
    9.3581   -1.5447   -1.8434 C   0  0  0  0  0  0  0  0  0  0  0  0
    7.7118    0.2036   -1.3747 N   0  0  0  0  0  0  0  0  0  0  0  0
    7.9075    1.6202   -1.5076 C   0  0  0  0  0  0  0  0  0  0  0  0
    7.6020    2.1772   -2.5976 O   0  0  0  0  0  0  0  0  0  0  0  0
    8.4301    2.4614   -0.3701 C   0  0  1  0  0  0  0  0  0  0  0  0
    9.9137    2.7940   -0.5833 C   0  0  0  0  0  0  0  0  0  0  0  0
    7.6588    3.7103   -0.2908 N   0  0  0  0  0  0  0  0  0  0  0  0
    6.2651    3.7299    0.0786 C   0  0  0  0  0  0  0  0  0  0  0  0
    5.7987    2.7881    0.7779 O   0  0  0  0  0  0  0  0  0  0  0  0
    5.3095    4.8006   -0.4164 C   0  0  1  0  0  0  0  0  0  0  0  0
    6.0269    6.0539   -0.9359 C   0  0  0  0  0  0  0  0  0  0  0  0
    4.4647    4.2401   -1.4759 N   0  0  0  0  0  0  0  0  0  0  0  0
    3.1534    4.7182   -1.8302 C   0  0  0  0  0  0  0  0  0  0  0  0
    2.5556    4.1654   -2.7931 O   0  0  0  0  0  0  0  0  0  0  0  0
    2.4473    5.8240   -1.0634 C   0  0  1  0  0  0  0  0  0  0  0  0
    1.6156    6.7110   -1.9944 C   0  0  0  0  0  0  0  0  0  0  0  0
    1.6056    5.2786    0.0035 N   0  0  0  0  0  0  0  0  0  0  0  0
    0.5445    4.3449   -0.2456 C   0  0  0  0  0  0  0  0  0  0  0  0
    0.8244    3.1925   -0.6838 O   0  0  0  0  0  0  0  0  0  0  0  0
   -0.8943    4.6590    0.0893 C   0  0  1  0  0  0  0  0  0  0  0  0
   -1.0905    6.0829    0.6232 C   0  0  0  0  0  0  0  0  0  0  0  0
   -1.7198    4.4831   -1.1115 N   0  0  0  0  0  0  0  0  0  0  0  0
   -2.9938    3.8135   -1.1994 C   0  0  0  0  0  0  0  0  0  0  0  0
   -3.6677    3.9637   -2.2552 O   0  0  0  0  0  0  0  0  0  0  0  0
   -3.5503    2.8919   -0.1395 C   0  0  1  0  0  0  0  0  0  0  0  0
   -2.6788    1.6361    0.0026 C   0  0  0  0  0  0  0  0  0  0  0  0
   -3.3558    0.5417    1.3074 S   0  0  0  0  0  0  0  0  0  0  0  0
   -1.9636   -0.6605    1.2951 C   0  0  0  0  0  0  0  0  0  0  0  0
   -3.7279    3.5831    1.1449 N   0  0  0  0  0  0  0  0  0  0  0  0
   -5.0323    3.9160    1.6390 C   0  0  0  0  0  0  0  0  0  0  0  0
   -5.4170    3.4161    2.7314 O   0  0  0  0  0  0  0  0  0  0  0  0
   -5.9368    4.8969    0.9361 C   0  0  1  0  0  0  0  0  0  0  0  0
   -5.1833    6.1559    0.4971 C   0  0  0  0  0  0  0  0  0  0  0  0
   -6.5951    4.2681   -0.2115 N   0  0  0  0  0  0  0  0  0  0  0  0
   -7.9924    3.9512   -0.2087 C   0  0  0  0  0  0  0  0  0  0  0  0
   -8.7367    4.4625   -1.0868 O   0  0  0  0  0  0  0  0  0  0  0  0
   -8.5809    2.9834    0.7891 C   0  0  1  0  0  0  0  0  0  0  0  0
   -9.2047    3.7246    1.9769 C   0  0  0  0  0  0  0  0  0  0  0  0
   -9.6123    2.1679    0.1358 N   0  0  0  0  0  0  0  0  0  0  0  0
   -9.3318    1.1249   -0.8137 C   0  0  0  0  0  0  0  0  0  0  0  0
   -9.9853    1.1096   -1.8943 O   0  0  0  0  0  0  0  0  0  0  0  0
   -8.3296    0.0159   -0.5671 C   0  0  1  0  0  0  0  0  0  0  0  0
   -6.9191    0.4326   -0.9997 C   0  0  0  0  0  0  0  0  0  0  0  0
   -8.3386   -0.4388    0.8294 N   0  0  0  0  0  0  0  0  0  0  0  0
   -7.8974   -1.7380    1.2778 C   0  0  0  0  0  0  0  0  0  0  0  0
   -7.8234   -1.9451    2.5197 O   0  0  0  0  0  0  0  0  0  0  0  0
   -9.6811   -4.3429   -2.9937 H   0  0  0  0  0  0  0  0  0  0  0  0
   -8.9862   -2.8205   -2.3639 H   0  0  0  0  0  0  0  0  0  0  0  0
   -7.9674   -4.3144   -2.4361 H   0  0  0  0  0  0  0  0  0  0  0  0
   -9.0826   -4.1696    1.2464 H   0  0  0  0  0  0  0  0  0  0  0  0
   -7.4101   -2.5005   -0.6820 H   0  0  0  0  0  0  0  0  0  0  0  0
   -6.5455   -4.2096    1.7059 H   0  0  0  0  0  0  0  0  0  0  0  0
   -5.5206   -2.9374    1.0066 H   0  0  0  0  0  0  0  0  0  0  0  0
   -4.6863   -4.1783   -2.5456 H   0  0  0  0  0  0  0  0  0  0  0  0
   -5.4511   -2.7769   -1.7565 H   0  0  0  0  0  0  0  0  0  0  0  0
   -4.1646   -1.4297   -0.2705 H   0  0  0  0  0  0  0  0  0  0  0  0
   -0.1471   -2.5285    0.7739 H   0  0  0  0  0  0  0  0  0  0  0  0
   -2.6223   -5.2395   -1.4676 H   0  0  0  0  0  0  0  0  0  0  0  0
    0.7727   -4.5300   -0.9248 H   0  0  0  0  0  0  0  0  0  0  0  0
   -0.3921   -5.8646   -1.0281 H   0  0  0  0  0  0  0  0  0  0  0  0
    1.5674   -3.9691    2.5631 H   0  0  0  0  0  0  0  0  0  0  0  0
    1.8263   -3.6690    0.8301 H   0  0  0  0  0  0  0  0  0  0  0  0
    3.8519   -4.4837    1.8476 H   0  0  0  0  0  0  0  0  0  0  0  0
    2.3687   -7.9392    1.6119 H   0  0  0  0  0  0  0  0  0  0  0  0
    2.6853   -8.2776    3.3478 H   0  0  0  0  0  0  0  0  0  0  0  0
    2.5681   -6.1798   -0.2663 H   0  0  0  0  0  0  0  0  0  0  0  0
    5.6093   -6.1256    1.7173 H   0  0  0  0  0  0  0  0  0  0  0  0
    7.0392   -7.3377   -0.7143 H   0  0  0  0  0  0  0  0  0  0  0  0
    6.0002   -8.2247    0.4705 H   0  0  0  0  0  0  0  0  0  0  0  0
    7.5322   -7.4527    1.0178 H   0  0  0  0  0  0  0  0  0  0  0  0
    7.2346   -4.7756   -0.4898 H   0  0  0  0  0  0  0  0  0  0  0  0
    8.9367   -3.6926    2.7464 H   0  0  0  0  0  0  0  0  0  0  0  0
    9.5455   -4.6181   -0.1206 H   0  0  0  0  0  0  0  0  0  0  0  0
   10.6820   -4.4484    1.2623 H   0  0  0  0  0  0  0  0  0  0  0  0
    9.4144   -5.7198    1.3126 H   0  0  0  0  0  0  0  0  0  0  0  0
    9.9238   -1.9867    1.2509 H   0  0  0  0  0  0  0  0  0  0  0  0
    9.4984   -0.0904   -0.2719 H   0  0  0  0  0  0  0  0  0  0  0  0
    9.8166   -0.8886   -2.6175 H   0  0  0  0  0  0  0  0  0  0  0  0
    8.6032   -2.1977   -2.3324 H   0  0  0  0  0  0  0  0  0  0  0  0
   10.1544   -2.1770   -1.4090 H   0  0  0  0  0  0  0  0  0  0  0  0
    6.9600   -0.2354   -1.9534 H   0  0  0  0  0  0  0  0  0  0  0  0
    8.3298    1.9064    0.5875 H   0  0  0  0  0  0  0  0  0  0  0  0
   10.2666    3.4693    0.2207 H   0  0  0  0  0  0  0  0  0  0  0  0
   10.5387    1.8761   -0.5551 H   0  0  0  0  0  0  0  0  0  0  0  0
   10.0659    3.2944   -1.5631 H   0  0  0  0  0  0  0  0  0  0  0  0
    8.1086    4.5853   -0.6435 H   0  0  0  0  0  0  0  0  0  0  0  0
    4.6775    5.0913    0.4512 H   0  0  0  0  0  0  0  0  0  0  0  0
    5.3014    6.8439   -1.2113 H   0  0  0  0  0  0  0  0  0  0  0  0
    6.6196    5.8268   -1.8457 H   0  0  0  0  0  0  0  0  0  0  0  0
    6.6911    6.4713   -0.1461 H   0  0  0  0  0  0  0  0  0  0  0  0
    4.8619    3.4790   -2.0726 H   0  0  0  0  0  0  0  0  0  0  0  0
    3.1981    6.4964   -0.5954 H   0  0  0  0  0  0  0  0  0  0  0  0
    1.1914    7.5617   -1.4217 H   0  0  0  0  0  0  0  0  0  0  0  0
    0.7844    6.1381   -2.4556 H   0  0  0  0  0  0  0  0  0  0  0  0
    2.2578    7.1234   -2.8030 H   0  0  0  0  0  0  0  0  0  0  0  0
    1.6407    5.7491    0.9343 H   0  0  0  0  0  0  0  0  0  0  0  0
   -1.1865    3.9654    0.8909 H   0  0  0  0  0  0  0  0  0  0  0  0
   -0.5397    6.2208    1.5795 H   0  0  0  0  0  0  0  0  0  0  0  0
   -0.7482    6.8399   -0.1179 H   0  0  0  0  0  0  0  0  0  0  0  0
   -2.1658    6.2573    0.8319 H   0  0  0  0  0  0  0  0  0  0  0  0
   -1.3997    4.9859   -1.9736 H   0  0  0  0  0  0  0  0  0  0  0  0
   -4.5383    2.5297   -0.4868 H   0  0  0  0  0  0  0  0  0  0  0  0
   -1.6329    1.9018    0.2531 H   0  0  0  0  0  0  0  0  0  0  0  0
   -2.6724    1.0779   -0.9567 H   0  0  0  0  0  0  0  0  0  0  0  0
   -1.8806   -1.0599    2.3281 H   0  0  0  0  0  0  0  0  0  0  0  0
   -1.0044   -0.1446    1.0838 H   0  0  0  0  0  0  0  0  0  0  0  0
   -3.0153    3.4237    1.8904 H   0  0  0  0  0  0  0  0  0  0  0  0
   -6.7057    5.2408    1.6612 H   0  0  0  0  0  0  0  0  0  0  0  0
   -5.9036    6.8947    0.0880 H   0  0  0  0  0  0  0  0  0  0  0  0
   -4.6715    6.6138    1.3717 H   0  0  0  0  0  0  0  0  0  0  0  0
   -4.4304    5.9278   -0.2787 H   0  0  0  0  0  0  0  0  0  0  0  0
   -6.1217    4.3131   -1.1443 H   0  0  0  0  0  0  0  0  0  0  0  0
   -7.7778    2.3261    1.1877 H   0  0  0  0  0  0  0  0  0  0  0  0
   -8.4263    4.1828    2.6161 H   0  0  0  0  0  0  0  0  0  0  0  0
   -9.7712    3.0123    2.6072 H   0  0  0  0  0  0  0  0  0  0  0  0
   -9.9001    4.5184    1.6222 H   0  0  0  0  0  0  0  0  0  0  0  0
  -10.5650    2.5878    0.0701 H   0  0  0  0  0  0  0  0  0  0  0  0
   -8.6538   -0.8219   -1.2104 H   0  0  0  0  0  0  0  0  0  0  0  0
   -6.1786   -0.3205   -0.6752 H   0  0  0  0  0  0  0  0  0  0  0  0
   -6.8765    0.5192   -2.1061 H   0  0  0  0  0  0  0  0  0  0  0  0
   -6.6363    1.4069   -0.5650 H   0  0  0  0  0  0  0  0  0  0  0  0
   -8.6557    0.2203    1.5753 H   0  0  0  0  0  0  0  0  0  0  0  0
  1  2  1  0
  2  3  2  0
  2  4  1  0
  4  5  1  0
  5  6  1  0
  6  7  1  0
  7  8  1  0
  8  9  1  0
  9 10  1  0
 10 11  2  0
 11 12  1  0
 12 13  2  0
 13 14  1  0
 13 15  1  0
 15 16  1  0
 16 17  1  0
 17 18  1  0
 18 19  1  0
 19 20  1  0
 19 21  2  0
 18 22  1  0
 22 23  1  0
 23 24  2  0
 23 25  1  0
 25 26  1  0
 25 27  1  0
 27 28  1  0
 28 29  2  0
 28 30  1  0
 30 31  1  0
 30 32  1  0
 32 33  1  0
 33 34  2  0
 33 35  1  0
 35 36  1  0
 35 37  1  0
 37 38  1  0
 38 39  2  0
 38 40  1  0
 40 41  1  0
 40 42  1  0
 42 43  1  0
 43 44  2  0
 43 45  1  0
 45 46  1  0
 45 47  1  0
 47 48  1  0
 48 49  2  0
 48 50  1  0
 50 51  1  0
 50 52  1  0
 52 53  1  0
 53 54  2  0
 53 55  1  0
 55 56  1  0
 55 57  1  0
 57 58  1  0
 58 59  2  0
 58 60  1  0
 60 61  1  0
 61 62  1  0
 62 63  1  0
 60 64  1  0
 64 65  1  0
 65 66  2  0
 65 67  1  0
 67 68  1  0
 67 69  1  0
 69 70  1  0
 70 71  2  0
 70 72  1  0
 72 73  1  0
 72 74  1  0
 74 75  1  0
 75 76  2  0
 75 77  1  0
 77 78  1  0
 77 79  1  0
 79 80  1  0
 80 81  2  0
 80  5  1  0
 14  9  2  0
 63 11  1  0
  1 82  1  0
  1 83  1  0
  1 84  1  0
  4 85  1  0
  5 86  1  6
  6 87  1  0
  6 88  1  0
  8 89  1  0
  8 90  1  0
 10 91  1  0
 12 92  1  0
 14 93  1  0
 15 94  1  0
 15 95  1  0
 17 96  1  0
 17 97  1  0
 18 98  1  1
 20 99  1  0
 20100  1  0
 22101  1  0
 25102  1  1
 26103  1  0
 26104  1  0
 26105  1  0
 27106  1  0
 30107  1  1
 31108  1  0
 31109  1  0
 31110  1  0
 32111  1  0
 35112  1  1
 36113  1  0
 36114  1  0
 36115  1  0
 37116  1  0
 40117  1  1
 41118  1  0
 41119  1  0
 41120  1  0
 42121  1  0
 45122  1  1
 46123  1  0
 46124  1  0
 46125  1  0
 47126  1  0
 50127  1  1
 51128  1  0
 51129  1  0
 51130  1  0
 52131  1  0
 55132  1  1
 56133  1  0
 56134  1  0
 56135  1  0
 57136  1  0
 60137  1  6
 61138  1  0
 61139  1  0
 63140  1  0
 63141  1  0
 64142  1  0
 67143  1  1
 68144  1  0
 68145  1  0
 68146  1  0
 69147  1  0
 72148  1  1
 73149  1  0
 73150  1  0
 73151  1  0
 74152  1  0
 77153  1  6
 78154  1  0
 78155  1  0
 78156  1  0
 79157  1  0
M  END
