
     RDKit          3D

127129  0  0  0  0  0  0  0  0999 V2000
    9.4557    0.6244   -1.0522 C   0  0  0  0  0  0  0  0  0  0  0  0
    9.1935    1.0896    0.3483 C   0  0  0  0  0  0  0  0  0  0  0  0
   10.1743    1.4403    1.0577 O   0  0  0  0  0  0  0  0  0  0  0  0
    7.8799    1.0894    0.9317 N   0  0  0  0  0  0  0  0  0  0  0  0
    6.6028    1.0913    0.2017 C   0  0  1  0  0  0  0  0  0  0  0  0
    6.3662    2.4502   -0.4905 C   0  0  0  0  0  0  0  0  0  0  0  0
    6.4680    3.8806    0.6578 S   0  0  0  0  0  0  0  0  0  0  0  0
    5.0694    3.4857    1.7827 C   0  0  0  0  0  0  0  0  0  0  0  0
    3.7921    3.1595    1.0531 C   0  0  0  0  0  0  0  0  0  0  0  0
    3.1300    1.9419    1.2888 C   0  0  0  0  0  0  0  0  0  0  0  0
    1.9328    1.6340    0.6221 C   0  0  0  0  0  0  0  0  0  0  0  0
    1.3890    2.5647   -0.2765 C   0  0  0  0  0  0  0  0  0  0  0  0
    2.0305    3.7938   -0.5056 C   0  0  0  0  0  0  0  0  0  0  0  0
    3.2268    4.0884    0.1712 C   0  0  0  0  0  0  0  0  0  0  0  0
    1.3917    4.8306   -1.3847 C   0  0  0  0  0  0  0  0  0  0  0  0
    0.2167    5.8114   -0.3869 S   0  0  0  0  0  0  0  0  0  0  0  0
   -1.2878    5.2758   -1.2817 C   0  0  0  0  0  0  0  0  0  0  0  0
   -2.5578    5.6210   -0.4928 C   0  0  1  0  0  0  0  0  0  0  0  0
   -2.7106    7.1154   -0.3395 C   0  0  0  0  0  0  0  0  0  0  0  0
   -2.6136    7.7342    0.9441 N   0  0  0  0  0  0  0  0  0  0  0  0
   -2.9556    7.8245   -1.3495 O   0  0  0  0  0  0  0  0  0  0  0  0
   -3.7352    5.0787   -1.1841 N   0  0  0  0  0  0  0  0  0  0  0  0
   -5.0420    4.9840   -0.5978 C   0  0  0  0  0  0  0  0  0  0  0  0
   -6.0380    4.8512   -1.3603 O   0  0  0  0  0  0  0  0  0  0  0  0
   -5.2396    5.0007    0.9046 C   0  0  1  0  0  0  0  0  0  0  0  0
   -6.6921    5.2989    1.3070 C   0  0  0  0  0  0  0  0  0  0  0  0
   -4.7738    3.7481    1.5124 N   0  0  0  0  0  0  0  0  0  0  0  0
   -5.5219    2.5227    1.4613 C   0  0  0  0  0  0  0  0  0  0  0  0
   -6.0862    2.1119    2.5069 O   0  0  0  0  0  0  0  0  0  0  0  0
   -5.6365    1.7399    0.1730 C   0  0  1  0  0  0  0  0  0  0  0  0
   -4.2634    1.2559   -0.3150 C   0  0  0  0  0  0  0  0  0  0  0  0
   -6.5820    0.6202    0.2753 N   0  0  0  0  0  0  0  0  0  0  0  0
   -6.3595   -0.5689    1.0563 C   0  0  0  0  0  0  0  0  0  0  0  0
   -5.5021   -0.5747    1.9802 O   0  0  0  0  0  0  0  0  0  0  0  0
   -7.0754   -1.8564    0.7181 C   0  0  1  0  0  0  0  0  0  0  0  0
   -8.5991   -1.6868    0.6924 C   0  0  0  0  0  0  0  0  0  0  0  0
   -6.5977   -2.3449   -0.5782 N   0  0  0  0  0  0  0  0  0  0  0  0
   -5.3850   -3.0979   -0.7452 C   0  0  0  0  0  0  0  0  0  0  0  0
   -4.7214   -2.9402   -1.8139 O   0  0  0  0  0  0  0  0  0  0  0  0
   -4.8979   -4.0885    0.2932 C   0  0  1  0  0  0  0  0  0  0  0  0
   -5.8477   -5.3011    0.3097 C   0  0  0  0  0  0  0  0  0  0  0  0
   -3.4961   -4.4486    0.0173 N   0  0  0  0  0  0  0  0  0  0  0  0
   -2.9982   -5.7762   -0.2226 C   0  0  0  0  0  0  0  0  0  0  0  0
   -3.3237   -6.7211    0.5475 O   0  0  0  0  0  0  0  0  0  0  0  0
   -2.0121   -6.0601   -1.3360 C   0  0  1  0  0  0  0  0  0  0  0  0
   -1.9391   -4.9506   -2.3936 C   0  0  0  0  0  0  0  0  0  0  0  0
   -0.6734   -6.3498   -0.8077 N   0  0  0  0  0  0  0  0  0  0  0  0
    0.1139   -5.4070   -0.0574 C   0  0  0  0  0  0  0  0  0  0  0  0
   -0.4670   -4.5127    0.6224 O   0  0  0  0  0  0  0  0  0  0  0  0
    1.6178   -5.5082    0.0484 C   0  0  1  0  0  0  0  0  0  0  0  0
    2.2429   -6.5698   -0.8679 C   0  0  0  0  0  0  0  0  0  0  0  0
    2.2115   -4.2001   -0.2553 N   0  0  0  0  0  0  0  0  0  0  0  0
    2.6621   -3.2968    0.7637 C   0  0  0  0  0  0  0  0  0  0  0  0
    2.2270   -3.4193    1.9454 O   0  0  0  0  0  0  0  0  0  0  0  0
    3.6379   -2.1982    0.4191 C   0  0  1  0  0  0  0  0  0  0  0  0
    3.0634   -1.1309   -0.5445 C   0  0  0  0  0  0  0  0  0  0  0  0
    1.2473   -0.8405   -0.4558 S   0  0  0  0  0  0  0  0  0  0  0  0
    1.1993    0.3522    0.9303 C   0  0  0  0  0  0  0  0  0  0  0  0
    4.1786   -1.5650    1.6332 N   0  0  0  0  0  0  0  0  0  0  0  0
    5.5726   -1.4196    1.9801 C   0  0  0  0  0  0  0  0  0  0  0  0
    5.8486   -0.8745    3.0848 O   0  0  0  0  0  0  0  0  0  0  0  0
    6.7269   -1.8696    1.1054 C   0  0  1  0  0  0  0  0  0  0  0  0
    6.9216   -3.3864    1.2204 C   0  0  0  0  0  0  0  0  0  0  0  0
    6.5734   -1.4505   -0.2952 N   0  0  0  0  0  0  0  0  0  0  0  0
    6.4829   -0.0869   -0.7439 C   0  0  0  0  0  0  0  0  0  0  0  0
    6.2652    0.1195   -1.9699 O   0  0  0  0  0  0  0  0  0  0  0  0
   10.5283    0.7496   -1.3098 H   0  0  0  0  0  0  0  0  0  0  0  0
    8.8633    1.2153   -1.7749 H   0  0  0  0  0  0  0  0  0  0  0  0
    9.2007   -0.4489   -1.1403 H   0  0  0  0  0  0  0  0  0  0  0  0
    7.8240    1.1182    1.9781 H   0  0  0  0  0  0  0  0  0  0  0  0
    5.7873    0.9718    0.9365 H   0  0  0  0  0  0  0  0  0  0  0  0
    7.1262    2.6115   -1.2799 H   0  0  0  0  0  0  0  0  0  0  0  0
    5.3779    2.4552   -1.0025 H   0  0  0  0  0  0  0  0  0  0  0  0
    5.3739    2.6596    2.4607 H   0  0  0  0  0  0  0  0  0  0  0  0
    4.8882    4.3742    2.4203 H   0  0  0  0  0  0  0  0  0  0  0  0
    3.5470    1.2343    1.9948 H   0  0  0  0  0  0  0  0  0  0  0  0
    0.4489    2.3518   -0.7711 H   0  0  0  0  0  0  0  0  0  0  0  0
    3.7207    5.0379    0.0060 H   0  0  0  0  0  0  0  0  0  0  0  0
    0.9050    4.3521   -2.2629 H   0  0  0  0  0  0  0  0  0  0  0  0
    2.1525    5.5187   -1.7995 H   0  0  0  0  0  0  0  0  0  0  0  0
   -1.3055    5.7639   -2.2761 H   0  0  0  0  0  0  0  0  0  0  0  0
   -1.2580    4.1757   -1.4249 H   0  0  0  0  0  0  0  0  0  0  0  0
   -2.4723    5.1342    0.5041 H   0  0  0  0  0  0  0  0  0  0  0  0
   -2.4807    7.1570    1.8074 H   0  0  0  0  0  0  0  0  0  0  0  0
   -2.9200    8.7231    1.0586 H   0  0  0  0  0  0  0  0  0  0  0  0
   -3.6592    4.8698   -2.2089 H   0  0  0  0  0  0  0  0  0  0  0  0
   -4.6360    5.8329    1.3192 H   0  0  0  0  0  0  0  0  0  0  0  0
   -7.0181    6.2716    0.8765 H   0  0  0  0  0  0  0  0  0  0  0  0
   -7.3773    4.5026    0.9509 H   0  0  0  0  0  0  0  0  0  0  0  0
   -6.7711    5.3637    2.4113 H   0  0  0  0  0  0  0  0  0  0  0  0
   -4.0182    3.8120    2.2349 H   0  0  0  0  0  0  0  0  0  0  0  0
   -6.0292    2.4312   -0.6006 H   0  0  0  0  0  0  0  0  0  0  0  0
   -3.7607    0.6354    0.4571 H   0  0  0  0  0  0  0  0  0  0  0  0
   -4.3753    0.6534   -1.2418 H   0  0  0  0  0  0  0  0  0  0  0  0
   -3.6089    2.1257   -0.5492 H   0  0  0  0  0  0  0  0  0  0  0  0
   -7.4081    0.6480   -0.3672 H   0  0  0  0  0  0  0  0  0  0  0  0
   -6.8668   -2.6042    1.5083 H   0  0  0  0  0  0  0  0  0  0  0  0
   -8.9280   -1.0529   -0.1592 H   0  0  0  0  0  0  0  0  0  0  0  0
   -9.0792   -2.6825    0.5807 H   0  0  0  0  0  0  0  0  0  0  0  0
   -8.9561   -1.2312    1.6459 H   0  0  0  0  0  0  0  0  0  0  0  0
   -6.9627   -1.8622   -1.4336 H   0  0  0  0  0  0  0  0  0  0  0  0
   -4.9196   -3.6111    1.2935 H   0  0  0  0  0  0  0  0  0  0  0  0
   -5.7782   -5.8718   -0.6424 H   0  0  0  0  0  0  0  0  0  0  0  0
   -6.9015   -4.9688    0.4376 H   0  0  0  0  0  0  0  0  0  0  0  0
   -5.6112   -5.9676    1.1650 H   0  0  0  0  0  0  0  0  0  0  0  0
   -2.8269   -3.6531   -0.0798 H   0  0  0  0  0  0  0  0  0  0  0  0
   -2.3828   -6.9686   -1.8579 H   0  0  0  0  0  0  0  0  0  0  0  0
   -1.5184   -4.0151   -1.9737 H   0  0  0  0  0  0  0  0  0  0  0  0
   -2.9502   -4.7504   -2.7983 H   0  0  0  0  0  0  0  0  0  0  0  0
   -1.2935   -5.2849   -3.2337 H   0  0  0  0  0  0  0  0  0  0  0  0
   -0.2762   -7.2885   -1.0321 H   0  0  0  0  0  0  0  0  0  0  0  0
    1.8568   -5.7961    1.0942 H   0  0  0  0  0  0  0  0  0  0  0  0
    1.9275   -6.4105   -1.9240 H   0  0  0  0  0  0  0  0  0  0  0  0
    3.3479   -6.5068   -0.8071 H   0  0  0  0  0  0  0  0  0  0  0  0
    1.9468   -7.5883   -0.5378 H   0  0  0  0  0  0  0  0  0  0  0  0
    2.3375   -3.9259   -1.2590 H   0  0  0  0  0  0  0  0  0  0  0  0
    4.4512   -2.7017   -0.1271 H   0  0  0  0  0  0  0  0  0  0  0  0
    3.6185   -0.1787   -0.4429 H   0  0  0  0  0  0  0  0  0  0  0  0
    3.2587   -1.4727   -1.5854 H   0  0  0  0  0  0  0  0  0  0  0  0
    1.5837   -0.1328    1.8501 H   0  0  0  0  0  0  0  0  0  0  0  0
    0.1337    0.5976    1.1288 H   0  0  0  0  0  0  0  0  0  0  0  0
    3.4954   -1.1954    2.3280 H   0  0  0  0  0  0  0  0  0  0  0  0
    7.6609   -1.4138    1.4999 H   0  0  0  0  0  0  0  0  0  0  0  0
    6.0179   -3.9436    0.9121 H   0  0  0  0  0  0  0  0  0  0  0  0
    7.7773   -3.7048    0.5886 H   0  0  0  0  0  0  0  0  0  0  0  0
    7.1542   -3.6563    2.2741 H   0  0  0  0  0  0  0  0  0  0  0  0
    6.5575   -2.1877   -1.0351 H   0  0  0  0  0  0  0  0  0  0  0  0
  1  2  1  0
  2  3  2  0
  2  4  1  0
  4  5  1  0
  5  6  1  0
  6  7  1  0
  7  8  1  0
  8  9  1  0
  9 10  1  0
 10 11  2  0
 11 12  1  0
 12 13  2  0
 13 14  1  0
 13 15  1  0
 15 16  1  0
 16 17  1  0
 17 18  1  0
 18 19  1  0
 19 20  1  0
 19 21  2  0
 18 22  1  0
 22 23  1  0
 23 24  2  0
 23 25  1  0
 25 26  1  0
 25 27  1  0
 27 28  1  0
 28 29  2  0
 28 30  1  0
 30 31  1  0
 30 32  1  0
 32 33  1  0
 33 34  2  0
 33 35  1  0
 35 36  1  0
 35 37  1  0
 37 38  1  0
 38 39  2  0
 38 40  1  0
 40 41  1  0
 40 42  1  0
 42 43  1  0
 43 44  2  0
 43 45  1  0
 45 46  1  0
 45 47  1  0
 47 48  1  0
 48 49  2  0
 48 50  1  0
 50 51  1  0
 50 52  1  0
 52 53  1  0
 53 54  2  0
 53 55  1  0
 55 56  1  0
 56 57  1  0
 57 58  1  0
 55 59  1  0
 59 60  1  0
 60 61  2  0
 60 62  1  0
 62 63  1  0
 62 64  1  0
 64 65  1  0
 65 66  2  0
 65  5  1  0
 14  9  2  0
 58 11  1  0
  1 67  1  0
  1 68  1  0
  1 69  1  0
  4 70  1  0
  5 71  1  1
  6 72  1  0
  6 73  1  0
  8 74  1  0
  8 75  1  0
 10 76  1  0
 12 77  1  0
 14 78  1  0
 15 79  1  0
 15 80  1  0
 17 81  1  0
 17 82  1  0
 18 83  1  1
 20 84  1  0
 20 85  1  0
 22 86  1  0
 25 87  1  1
 26 88  1  0
 26 89  1  0
 26 90  1  0
 27 91  1  0
 30 92  1  6
 31 93  1  0
 31 94  1  0
 31 95  1  0
 32 96  1  0
 35 97  1  1
 36 98  1  0
 36 99  1  0
 36100  1  0
 37101  1  0
 40102  1  1
 41103  1  0
 41104  1  0
 41105  1  0
 42106  1  0
 45107  1  6
 46108  1  0
 46109  1  0
 46110  1  0
 47111  1  0
 50112  1  1
 51113  1  0
 51114  1  0
 51115  1  0
 52116  1  0
 55117  1  6
 56118  1  0
 56119  1  0
 58120  1  0
 58121  1  0
 59122  1  0
 62123  1  1
 63124  1  0
 63125  1  0
 63126  1  0
 64127  1  0
M  END
