
     RDKit          3D

167169  0  0  0  0  0  0  0  0999 V2000
  -10.2141    5.1907    0.9999 C   0  0  0  0  0  0  0  0  0  0  0  0
   -9.3208    3.9926    0.9513 C   0  0  0  0  0  0  0  0  0  0  0  0
   -9.0203    3.4012    2.0273 O   0  0  0  0  0  0  0  0  0  0  0  0
   -8.8127    3.5344   -0.3106 N   0  0  0  0  0  0  0  0  0  0  0  0
   -7.8394    2.4440   -0.4971 C   0  0  1  0  0  0  0  0  0  0  0  0
   -6.5153    2.7498    0.2233 C   0  0  0  0  0  0  0  0  0  0  0  0
   -5.5852    4.0738   -0.6351 S   0  0  0  0  0  0  0  0  0  0  0  0
   -4.6426    2.9938   -1.7749 C   0  0  0  0  0  0  0  0  0  0  0  0
   -3.3207    2.6139   -1.1622 C   0  0  0  0  0  0  0  0  0  0  0  0
   -3.2049    1.4494   -0.3849 C   0  0  0  0  0  0  0  0  0  0  0  0
   -1.9931    1.1214    0.2410 C   0  0  0  0  0  0  0  0  0  0  0  0
   -0.8717    1.9321    0.0289 C   0  0  0  0  0  0  0  0  0  0  0  0
   -0.9516    3.0551   -0.8083 C   0  0  0  0  0  0  0  0  0  0  0  0
   -2.1848    3.4133   -1.3729 C   0  0  0  0  0  0  0  0  0  0  0  0
    0.2833    3.8617   -1.0874 C   0  0  0  0  0  0  0  0  0  0  0  0
    0.6370    4.9801    0.3148 S   0  0  0  0  0  0  0  0  0  0  0  0
    2.3311    5.4235   -0.2190 C   0  0  0  0  0  0  0  0  0  0  0  0
    2.3304    6.6014   -1.2085 C   0  0  1  0  0  0  0  0  0  0  0  0
    2.0608    7.9458   -0.5638 C   0  0  0  0  0  0  0  0  0  0  0  0
    2.0432    9.1288   -1.3617 N   0  0  0  0  0  0  0  0  0  0  0  0
    1.8131    8.0315    0.6686 O   0  0  0  0  0  0  0  0  0  0  0  0
    3.5668    6.6187   -2.0074 N   0  0  0  0  0  0  0  0  0  0  0  0
    4.7837    7.3089   -1.6672 C   0  0  0  0  0  0  0  0  0  0  0  0
    5.2093    8.2003   -2.4503 O   0  0  0  0  0  0  0  0  0  0  0  0
    5.6152    6.9728   -0.4461 C   0  0  1  0  0  0  0  0  0  0  0  0
    5.2060    7.8452    0.7473 C   0  0  0  0  0  0  0  0  0  0  0  0
    5.5429    5.5424   -0.1217 N   0  0  0  0  0  0  0  0  0  0  0  0
    6.1407    4.9489    1.0403 C   0  0  0  0  0  0  0  0  0  0  0  0
    5.5278    4.0164    1.6251 O   0  0  0  0  0  0  0  0  0  0  0  0
    7.5379    5.3113    1.4819 C   0  0  1  0  0  0  0  0  0  0  0  0
    7.5836    5.5230    2.9990 C   0  0  0  0  0  0  0  0  0  0  0  0
    8.4733    4.2553    1.0880 N   0  0  0  0  0  0  0  0  0  0  0  0
    8.5439    3.8150   -0.2715 C   0  0  0  0  0  0  0  0  0  0  0  0
    9.0181    4.5891   -1.1493 O   0  0  0  0  0  0  0  0  0  0  0  0
    7.9136    2.5082   -0.6824 C   0  0  1  0  0  0  0  0  0  0  0  0
    8.6796    1.8355   -1.8352 C   0  0  0  0  0  0  0  0  0  0  0  0
    7.7332    1.6243    0.4813 N   0  0  0  0  0  0  0  0  0  0  0  0
    8.5650    0.5023    0.8245 C   0  0  0  0  0  0  0  0  0  0  0  0
    9.7764    0.4811    0.4852 O   0  0  0  0  0  0  0  0  0  0  0  0
    8.0156   -0.6383    1.6472 C   0  0  1  0  0  0  0  0  0  0  0  0
    7.9529   -0.2495    3.1201 C   0  0  0  0  0  0  0  0  0  0  0  0
    6.6786   -1.0126    1.1705 N   0  0  0  0  0  0  0  0  0  0  0  0
    6.3385   -2.3088    0.6546 C   0  0  0  0  0  0  0  0  0  0  0  0
    5.5394   -2.3816   -0.3181 O   0  0  0  0  0  0  0  0  0  0  0  0
    6.7913   -3.5794    1.3301 C   0  0  1  0  0  0  0  0  0  0  0  0
    5.7067   -4.0835    2.2903 C   0  0  0  0  0  0  0  0  0  0  0  0
    7.1823   -4.5746    0.3204 N   0  0  0  0  0  0  0  0  0  0  0  0
    6.5068   -5.8165    0.0732 C   0  0  0  0  0  0  0  0  0  0  0  0
    7.1372   -6.8977    0.2313 O   0  0  0  0  0  0  0  0  0  0  0  0
    5.0983   -5.8521   -0.4747 C   0  0  1  0  0  0  0  0  0  0  0  0
    5.1193   -6.5001   -1.8608 C   0  0  0  0  0  0  0  0  0  0  0  0
    4.2112   -6.5890    0.4355 N   0  0  0  0  0  0  0  0  0  0  0  0
    2.8124   -6.2890    0.5498 C   0  0  0  0  0  0  0  0  0  0  0  0
    2.3885   -5.7719    1.6178 O   0  0  0  0  0  0  0  0  0  0  0  0
    1.8471   -6.6419   -0.5629 C   0  0  1  0  0  0  0  0  0  0  0  0
    2.0015   -8.1268   -0.9256 C   0  0  0  0  0  0  0  0  0  0  0  0
    0.4544   -6.3964   -0.1667 N   0  0  0  0  0  0  0  0  0  0  0  0
   -0.6179   -6.2550   -1.1187 C   0  0  0  0  0  0  0  0  0  0  0  0
   -1.7275   -6.7976   -0.8650 O   0  0  0  0  0  0  0  0  0  0  0  0
   -0.4602   -5.4577   -2.3970 C   0  0  1  0  0  0  0  0  0  0  0  0
    0.0889   -6.3433   -3.5265 C   0  0  0  0  0  0  0  0  0  0  0  0
   -1.7578   -4.9044   -2.8173 N   0  0  0  0  0  0  0  0  0  0  0  0
   -2.2983   -3.6564   -2.3547 C   0  0  0  0  0  0  0  0  0  0  0  0
   -3.0299   -2.9867   -3.1338 O   0  0  0  0  0  0  0  0  0  0  0  0
   -2.1050   -3.1676   -0.9378 C   0  0  1  0  0  0  0  0  0  0  0  0
   -1.4891   -1.7560   -0.9837 C   0  0  0  0  0  0  0  0  0  0  0  0
   -0.6987   -1.3089    0.6071 S   0  0  0  0  0  0  0  0  0  0  0  0
   -1.9143   -0.0585    1.1695 C   0  0  0  0  0  0  0  0  0  0  0  0
   -3.3801   -3.1363   -0.1960 N   0  0  0  0  0  0  0  0  0  0  0  0
   -4.5541   -3.8918   -0.5356 C   0  0  0  0  0  0  0  0  0  0  0  0
   -4.4430   -4.9978   -1.1299 O   0  0  0  0  0  0  0  0  0  0  0  0
   -5.9332   -3.3678   -0.1992 C   0  0  1  0  0  0  0  0  0  0  0  0
   -6.6725   -3.0845   -1.5153 C   0  0  0  0  0  0  0  0  0  0  0  0
   -6.6419   -4.3578    0.6292 N   0  0  0  0  0  0  0  0  0  0  0  0
   -8.0707   -4.4758    0.7538 C   0  0  0  0  0  0  0  0  0  0  0  0
   -8.5790   -5.6169    0.5997 O   0  0  0  0  0  0  0  0  0  0  0  0
   -8.9842   -3.2928    1.0408 C   0  0  1  0  0  0  0  0  0  0  0  0
  -10.2369   -3.7635    1.7942 C   0  0  0  0  0  0  0  0  0  0  0  0
   -8.2948   -2.2598    1.8336 N   0  0  0  0  0  0  0  0  0  0  0  0
   -8.7790   -0.9191    2.0613 C   0  0  0  0  0  0  0  0  0  0  0  0
   -8.1704   -0.1952    2.8937 O   0  0  0  0  0  0  0  0  0  0  0  0
   -9.9693   -0.3255    1.3247 C   0  0  1  0  0  0  0  0  0  0  0  0
  -11.0955   -0.0302    2.3215 C   0  0  0  0  0  0  0  0  0  0  0  0
   -9.5986    0.9160    0.6305 N   0  0  0  0  0  0  0  0  0  0  0  0
   -8.3763    1.0806   -0.1065 C   0  0  0  0  0  0  0  0  0  0  0  0
   -7.7016    0.0635   -0.4193 O   0  0  0  0  0  0  0  0  0  0  0  0
  -10.5223    5.4118    2.0452 H   0  0  0  0  0  0  0  0  0  0  0  0
   -9.6762    6.0713    0.5912 H   0  0  0  0  0  0  0  0  0  0  0  0
  -11.1214    4.9990    0.3906 H   0  0  0  0  0  0  0  0  0  0  0  0
   -9.0782    4.0769   -1.1604 H   0  0  0  0  0  0  0  0  0  0  0  0
   -7.6264    2.3787   -1.5886 H   0  0  0  0  0  0  0  0  0  0  0  0
   -6.6960    3.0810    1.2637 H   0  0  0  0  0  0  0  0  0  0  0  0
   -5.8961    1.8385    0.2979 H   0  0  0  0  0  0  0  0  0  0  0  0
   -4.4672    3.5689   -2.7095 H   0  0  0  0  0  0  0  0  0  0  0  0
   -5.2212    2.0880   -2.0624 H   0  0  0  0  0  0  0  0  0  0  0  0
   -4.0540    0.7902   -0.2640 H   0  0  0  0  0  0  0  0  0  0  0  0
    0.0741    1.6753    0.4954 H   0  0  0  0  0  0  0  0  0  0  0  0
   -2.2578    4.3050   -1.9830 H   0  0  0  0  0  0  0  0  0  0  0  0
    1.1302    3.1569   -1.2396 H   0  0  0  0  0  0  0  0  0  0  0  0
    0.1643    4.4519   -2.0221 H   0  0  0  0  0  0  0  0  0  0  0  0
    2.8082    4.5384   -0.6851 H   0  0  0  0  0  0  0  0  0  0  0  0
    2.9246    5.6651    0.6833 H   0  0  0  0  0  0  0  0  0  0  0  0
    1.4872    6.4347   -1.9154 H   0  0  0  0  0  0  0  0  0  0  0  0
    1.8607   10.0577   -0.9221 H   0  0  0  0  0  0  0  0  0  0  0  0
    2.2093    9.0836   -2.3918 H   0  0  0  0  0  0  0  0  0  0  0  0
    3.4517    6.3929   -3.0196 H   0  0  0  0  0  0  0  0  0  0  0  0
    6.6720    7.2171   -0.6964 H   0  0  0  0  0  0  0  0  0  0  0  0
    4.2828    7.4652    1.2226 H   0  0  0  0  0  0  0  0  0  0  0  0
    5.0472    8.8981    0.4266 H   0  0  0  0  0  0  0  0  0  0  0  0
    6.0106    7.8482    1.5087 H   0  0  0  0  0  0  0  0  0  0  0  0
    5.0302    4.8950   -0.7604 H   0  0  0  0  0  0  0  0  0  0  0  0
    7.8564    6.2606    1.0038 H   0  0  0  0  0  0  0  0  0  0  0  0
    8.5917    5.8705    3.3047 H   0  0  0  0  0  0  0  0  0  0  0  0
    6.8415    6.2903    3.3024 H   0  0  0  0  0  0  0  0  0  0  0  0
    7.3566    4.5745    3.5332 H   0  0  0  0  0  0  0  0  0  0  0  0
    9.3190    4.0809    1.6821 H   0  0  0  0  0  0  0  0  0  0  0  0
    6.9003    2.7465   -1.0742 H   0  0  0  0  0  0  0  0  0  0  0  0
    8.3032    0.8059   -2.0010 H   0  0  0  0  0  0  0  0  0  0  0  0
    8.5324    2.4153   -2.7730 H   0  0  0  0  0  0  0  0  0  0  0  0
    9.7693    1.7993   -1.6267 H   0  0  0  0  0  0  0  0  0  0  0  0
    6.8998    1.8103    1.0814 H   0  0  0  0  0  0  0  0  0  0  0  0
    8.7163   -1.4933    1.5373 H   0  0  0  0  0  0  0  0  0  0  0  0
    8.9633    0.0388    3.4803 H   0  0  0  0  0  0  0  0  0  0  0  0
    7.2558    0.6032    3.2727 H   0  0  0  0  0  0  0  0  0  0  0  0
    7.6004   -1.1170    3.7209 H   0  0  0  0  0  0  0  0  0  0  0  0
    5.9498   -0.2690    1.0848 H   0  0  0  0  0  0  0  0  0  0  0  0
    7.6801   -3.3794    1.9585 H   0  0  0  0  0  0  0  0  0  0  0  0
    4.7273   -4.1790    1.7784 H   0  0  0  0  0  0  0  0  0  0  0  0
    5.9972   -5.0650    2.7220 H   0  0  0  0  0  0  0  0  0  0  0  0
    5.5847   -3.3645    3.1292 H   0  0  0  0  0  0  0  0  0  0  0  0
    8.1407   -4.4757   -0.0853 H   0  0  0  0  0  0  0  0  0  0  0  0
    4.7264   -4.8130   -0.5860 H   0  0  0  0  0  0  0  0  0  0  0  0
    5.8804   -6.0034   -2.5033 H   0  0  0  0  0  0  0  0  0  0  0  0
    5.3677   -7.5801   -1.7851 H   0  0  0  0  0  0  0  0  0  0  0  0
    4.1389   -6.3892   -2.3658 H   0  0  0  0  0  0  0  0  0  0  0  0
    4.6373   -7.0971    1.2447 H   0  0  0  0  0  0  0  0  0  0  0  0
    2.1039   -6.0067   -1.4321 H   0  0  0  0  0  0  0  0  0  0  0  0
    3.0037   -8.3280   -1.3531 H   0  0  0  0  0  0  0  0  0  0  0  0
    1.2413   -8.4249   -1.6756 H   0  0  0  0  0  0  0  0  0  0  0  0
    1.8635   -8.7597   -0.0218 H   0  0  0  0  0  0  0  0  0  0  0  0
    0.1730   -6.7104    0.7896 H   0  0  0  0  0  0  0  0  0  0  0  0
    0.2516   -4.6220   -2.2273 H   0  0  0  0  0  0  0  0  0  0  0  0
   -0.5617   -7.2333   -3.6710 H   0  0  0  0  0  0  0  0  0  0  0  0
    0.1130   -5.7675   -4.4750 H   0  0  0  0  0  0  0  0  0  0  0  0
    1.1219   -6.6820   -3.3204 H   0  0  0  0  0  0  0  0  0  0  0  0
   -2.2502   -5.3475   -3.6261 H   0  0  0  0  0  0  0  0  0  0  0  0
   -1.4018   -3.8296   -0.3952 H   0  0  0  0  0  0  0  0  0  0  0  0
   -0.6842   -1.7274   -1.7503 H   0  0  0  0  0  0  0  0  0  0  0  0
   -2.2654   -1.0220   -1.2913 H   0  0  0  0  0  0  0  0  0  0  0  0
   -1.5949    0.2993    2.1712 H   0  0  0  0  0  0  0  0  0  0  0  0
   -2.9068   -0.5284    1.3032 H   0  0  0  0  0  0  0  0  0  0  0  0
   -3.4192   -2.6047    0.7004 H   0  0  0  0  0  0  0  0  0  0  0  0
   -5.8386   -2.4181    0.3665 H   0  0  0  0  0  0  0  0  0  0  0  0
   -6.9389   -4.0344   -2.0257 H   0  0  0  0  0  0  0  0  0  0  0  0
   -7.5903   -2.4976   -1.3309 H   0  0  0  0  0  0  0  0  0  0  0  0
   -6.0298   -2.4802   -2.1912 H   0  0  0  0  0  0  0  0  0  0  0  0
   -6.0981   -5.1757    0.9875 H   0  0  0  0  0  0  0  0  0  0  0  0
   -9.2954   -2.8734    0.0645 H   0  0  0  0  0  0  0  0  0  0  0  0
  -10.7806   -4.5355    1.2092 H   0  0  0  0  0  0  0  0  0  0  0  0
   -9.9557   -4.1934    2.7814 H   0  0  0  0  0  0  0  0  0  0  0  0
  -10.9411   -2.9282    1.9566 H   0  0  0  0  0  0  0  0  0  0  0  0
   -7.4530   -2.5458    2.3836 H   0  0  0  0  0  0  0  0  0  0  0  0
  -10.3649   -1.0297    0.5692 H   0  0  0  0  0  0  0  0  0  0  0  0
  -12.0159    0.2655    1.7772 H   0  0  0  0  0  0  0  0  0  0  0  0
  -10.8050    0.7976    3.0037 H   0  0  0  0  0  0  0  0  0  0  0  0
  -11.3291   -0.9178    2.9420 H   0  0  0  0  0  0  0  0  0  0  0  0
  -10.3542    1.6213    0.4752 H   0  0  0  0  0  0  0  0  0  0  0  0
  1  2  1  0
  2  3  2  0
  2  4  1  0
  4  5  1  0
  5  6  1  0
  6  7  1  0
  7  8  1  0
  8  9  1  0
  9 10  1  0
 10 11  2  0
 11 12  1  0
 12 13  2  0
 13 14  1  0
 13 15  1  0
 15 16  1  0
 16 17  1  0
 17 18  1  0
 18 19  1  0
 19 20  1  0
 19 21  2  0
 18 22  1  0
 22 23  1  0
 23 24  2  0
 23 25  1  0
 25 26  1  0
 25 27  1  0
 27 28  1  0
 28 29  2  0
 28 30  1  0
 30 31  1  0
 30 32  1  0
 32 33  1  0
 33 34  2  0
 33 35  1  0
 35 36  1  0
 35 37  1  0
 37 38  1  0
 38 39  2  0
 38 40  1  0
 40 41  1  0
 40 42  1  0
 42 43  1  0
 43 44  2  0
 43 45  1  0
 45 46  1  0
 45 47  1  0
 47 48  1  0
 48 49  2  0
 48 50  1  0
 50 51  1  0
 50 52  1  0
 52 53  1  0
 53 54  2  0
 53 55  1  0
 55 56  1  0
 55 57  1  0
 57 58  1  0
 58 59  2  0
 58 60  1  0
 60 61  1  0
 60 62  1  0
 62 63  1  0
 63 64  2  0
 63 65  1  0
 65 66  1  0
 66 67  1  0
 67 68  1  0
 65 69  1  0
 69 70  1  0
 70 71  2  0
 70 72  1  0
 72 73  1  0
 72 74  1  0
 74 75  1  0
 75 76  2  0
 75 77  1  0
 77 78  1  0
 77 79  1  0
 79 80  1  0
 80 81  2  0
 80 82  1  0
 82 83  1  0
 82 84  1  0
 84 85  1  0
 85 86  2  0
 85  5  1  0
 14  9  2  0
 68 11  1  0
  1 87  1  0
  1 88  1  0
  1 89  1  0
  4 90  1  0
  5 91  1  6
  6 92  1  0
  6 93  1  0
  8 94  1  0
  8 95  1  0
 10 96  1  0
 12 97  1  0
 14 98  1  0
 15 99  1  0
 15100  1  0
 17101  1  0
 17102  1  0
 18103  1  6
 20104  1  0
 20105  1  0
 22106  1  0
 25107  1  6
 26108  1  0
 26109  1  0
 26110  1  0
 27111  1  0
 30112  1  6
 31113  1  0
 31114  1  0
 31115  1  0
 32116  1  0
 35117  1  6
 36118  1  0
 36119  1  0
 36120  1  0
 37121  1  0
 40122  1  1
 41123  1  0
 41124  1  0
 41125  1  0
 42126  1  0
 45127  1  1
 46128  1  0
 46129  1  0
 46130  1  0
 47131  1  0
 50132  1  6
 51133  1  0
 51134  1  0
 51135  1  0
 52136  1  0
 55137  1  6
 56138  1  0
 56139  1  0
 56140  1  0
 57141  1  0
 60142  1  1
 61143  1  0
 61144  1  0
 61145  1  0
 62146  1  0
 65147  1  1
 66148  1  0
 66149  1  0
 68150  1  0
 68151  1  0
 69152  1  0
 72153  1  1
 73154  1  0
 73155  1  0
 73156  1  0
 74157  1  0
 77158  1  6
 78159  1  0
 78160  1  0
 78161  1  0
 79162  1  0
 82163  1  6
 83164  1  0
 83165  1  0
 83166  1  0
 84167  1  0
M  END
