
     RDKit          3D

177179  0  0  0  0  0  0  0  0999 V2000
    9.6236   -3.4681    3.3940 C   0  0  0  0  0  0  0  0  0  0  0  0
    9.9981   -4.2091    2.1479 C   0  0  0  0  0  0  0  0  0  0  0  0
   10.8231   -5.1591    2.2239 O   0  0  0  0  0  0  0  0  0  0  0  0
    9.4525   -3.8694    0.8651 N   0  0  0  0  0  0  0  0  0  0  0  0
    8.4138   -2.8494    0.6423 C   0  0  2  0  0  0  0  0  0  0  0  0
    7.0377   -3.4969    0.4328 C   0  0  0  0  0  0  0  0  0  0  0  0
    7.0677   -4.8437   -0.8085 S   0  0  0  0  0  0  0  0  0  0  0  0
    6.3337   -3.9196   -2.2036 C   0  0  0  0  0  0  0  0  0  0  0  0
    4.8701   -3.6404   -1.9819 C   0  0  0  0  0  0  0  0  0  0  0  0
    3.9834   -4.6900   -1.6878 C   0  0  0  0  0  0  0  0  0  0  0  0
    2.6254   -4.4335   -1.4564 C   0  0  0  0  0  0  0  0  0  0  0  0
    2.1478   -3.1171   -1.5370 C   0  0  0  0  0  0  0  0  0  0  0  0
    3.0107   -2.0634   -1.8672 C   0  0  0  0  0  0  0  0  0  0  0  0
    4.3752   -2.3268   -2.0679 C   0  0  0  0  0  0  0  0  0  0  0  0
    2.4946   -0.6563   -1.9449 C   0  0  0  0  0  0  0  0  0  0  0  0
    2.4724    0.0941   -0.2797 S   0  0  0  0  0  0  0  0  0  0  0  0
    3.0170    1.7435   -0.8392 C   0  0  0  0  0  0  0  0  0  0  0  0
    3.0306    2.7659    0.3110 C   0  0  1  0  0  0  0  0  0  0  0  0
    4.0163    3.7966   -0.0185 N   0  0  0  0  0  0  0  0  0  0  0  0
    5.2274    3.9567    0.7274 C   0  0  0  0  0  0  0  0  0  0  0  0
    5.1862    3.9576    1.9892 O   0  0  0  0  0  0  0  0  0  0  0  0
    6.5499    4.0177    0.0067 C   0  0  1  0  0  0  0  0  0  0  0  0
    6.5753    5.1237   -1.0593 C   0  0  0  0  0  0  0  0  0  0  0  0
    7.6455    4.2300    0.9512 N   0  0  0  0  0  0  0  0  0  0  0  0
    8.8415    3.4580    0.8658 C   0  0  0  0  0  0  0  0  0  0  0  0
    9.7605    3.8398    0.0921 O   0  0  0  0  0  0  0  0  0  0  0  0
    9.0788    2.2903    1.7920 C   0  0  1  0  0  0  0  0  0  0  0  0
    7.8007    1.5180    2.1456 C   0  0  0  0  0  0  0  0  0  0  0  0
   10.1257    1.3938    1.2758 N   0  0  0  0  0  0  0  0  0  0  0  0
   10.1458    0.6963    0.0149 C   0  0  0  0  0  0  0  0  0  0  0  0
   11.2054    0.1020   -0.3177 O   0  0  0  0  0  0  0  0  0  0  0  0
    8.9348    0.5818   -0.8889 C   0  0  1  0  0  0  0  0  0  0  0  0
    9.3170    0.6453   -2.3763 C   0  0  0  0  0  0  0  0  0  0  0  0
    8.1807   -0.6432   -0.5937 N   0  0  0  0  0  0  0  0  0  0  0  0
    8.7905   -1.9374   -0.4989 C   0  0  0  0  0  0  0  0  0  0  0  0
    9.6772   -2.2824   -1.3260 O   0  0  0  0  0  0  0  0  0  0  0  0
    1.6726    3.4034    0.4978 C   0  0  0  0  0  0  0  0  0  0  0  0
    0.6540    2.6763    0.6610 O   0  0  0  0  0  0  0  0  0  0  0  0
    1.5528    4.8318    0.5501 N   0  0  0  0  0  0  0  0  0  0  0  0
    0.5038    5.6110   -0.1196 C   0  0  2  0  0  0  0  0  0  0  0  0
    0.0836    4.9831   -1.4573 C   0  0  0  0  0  0  0  0  0  0  0  0
    1.0252    7.0072   -0.3580 C   0  0  0  0  0  0  0  0  0  0  0  0
    2.0070    7.1715   -1.1338 O   0  0  0  0  0  0  0  0  0  0  0  0
    0.5400    8.1383    0.3791 N   0  0  0  0  0  0  0  0  0  0  0  0
   -0.8630    8.5652    0.3314 C   0  0  2  0  0  0  0  0  0  0  0  0
   -0.9675   10.0542    0.6976 C   0  0  0  0  0  0  0  0  0  0  0  0
   -1.6904    7.7420    1.2904 C   0  0  0  0  0  0  0  0  0  0  0  0
   -1.3832    7.7510    2.5131 O   0  0  0  0  0  0  0  0  0  0  0  0
   -2.7437    6.8619    0.8532 N   0  0  0  0  0  0  0  0  0  0  0  0
   -3.4956    7.0141   -0.3998 C   0  0  2  0  0  0  0  0  0  0  0  0
   -4.3798    8.2628   -0.3475 C   0  0  0  0  0  0  0  0  0  0  0  0
   -4.3526    5.8067   -0.6598 C   0  0  0  0  0  0  0  0  0  0  0  0
   -4.2546    5.2270   -1.7772 O   0  0  0  0  0  0  0  0  0  0  0  0
   -5.3049    5.3519    0.3223 N   0  0  0  0  0  0  0  0  0  0  0  0
   -6.1485    4.1600    0.1727 C   0  0  2  0  0  0  0  0  0  0  0  0
   -5.2849    2.9225   -0.0988 C   0  0  0  0  0  0  0  0  0  0  0  0
   -7.2068    4.3509   -0.8973 C   0  0  0  0  0  0  0  0  0  0  0  0
   -7.0319    5.2152   -1.7967 O   0  0  0  0  0  0  0  0  0  0  0  0
   -8.3801    3.5241   -0.9692 N   0  0  0  0  0  0  0  0  0  0  0  0
   -9.2397    3.1462    0.1627 C   0  0  2  0  0  0  0  0  0  0  0  0
   -9.6180    4.3677    1.0132 C   0  0  0  0  0  0  0  0  0  0  0  0
   -8.6331    2.0121    0.9549 C   0  0  0  0  0  0  0  0  0  0  0  0
   -8.3020    2.1776    2.1607 O   0  0  0  0  0  0  0  0  0  0  0  0
   -8.3856    0.7461    0.3279 N   0  0  0  0  0  0  0  0  0  0  0  0
   -9.3532   -0.3581    0.2900 C   0  0  2  0  0  0  0  0  0  0  0  0
  -10.8007    0.1208    0.1248 C   0  0  0  0  0  0  0  0  0  0  0  0
   -9.2136   -1.2047    1.5375 C   0  0  0  0  0  0  0  0  0  0  0  0
   -9.4246   -0.6626    2.6537 O   0  0  0  0  0  0  0  0  0  0  0  0
   -8.8553   -2.6023    1.5051 N   0  0  0  0  0  0  0  0  0  0  0  0
   -8.4908   -3.3524    0.2948 C   0  0  2  0  0  0  0  0  0  0  0  0
   -9.7545   -3.7416   -0.4836 C   0  0  0  0  0  0  0  0  0  0  0  0
   -7.7080   -4.5910    0.6492 C   0  0  0  0  0  0  0  0  0  0  0  0
   -8.2850   -5.5501    1.2310 O   0  0  0  0  0  0  0  0  0  0  0  0
   -6.3178   -4.6828    0.3026 N   0  0  0  0  0  0  0  0  0  0  0  0
   -5.7639   -5.7658   -0.5231 C   0  0  2  0  0  0  0  0  0  0  0  0
   -6.6611   -6.0450   -1.7345 C   0  0  0  0  0  0  0  0  0  0  0  0
   -5.5320   -7.0307    0.2759 C   0  0  0  0  0  0  0  0  0  0  0  0
   -6.1535   -7.2248    1.3547 O   0  0  0  0  0  0  0  0  0  0  0  0
   -4.6764   -8.0683   -0.2202 N   0  0  0  0  0  0  0  0  0  0  0  0
   -3.3043   -7.8103   -0.6744 C   0  0  2  0  0  0  0  0  0  0  0  0
   -3.2462   -7.7889   -2.2030 C   0  0  0  0  0  0  0  0  0  0  0  0
   -2.3701   -8.8775   -0.1396 C   0  0  0  0  0  0  0  0  0  0  0  0
   -2.6469  -10.0889   -0.3538 O   0  0  0  0  0  0  0  0  0  0  0  0
   -1.1736   -8.5651    0.5929 N   0  0  0  0  0  0  0  0  0  0  0  0
   -0.5890   -7.2237    0.6896 C   0  0  1  0  0  0  0  0  0  0  0  0
   -1.2378   -6.4678    1.8203 C   0  0  0  0  0  0  0  0  0  0  0  0
   -1.2742   -7.0217    3.1385 N   0  0  0  0  0  0  0  0  0  0  0  0
   -1.7562   -5.3350    1.6064 O   0  0  0  0  0  0  0  0  0  0  0  0
    0.9302   -7.3202    0.8962 C   0  0  0  0  0  0  0  0  0  0  0  0
    1.7439   -5.6827    0.7917 S   0  0  0  0  0  0  0  0  0  0  0  0
    1.7120   -5.5452   -1.0343 C   0  0  0  0  0  0  0  0  0  0  0  0
    9.9077   -2.3989    3.2922 H   0  0  0  0  0  0  0  0  0  0  0  0
   10.1588   -3.8976    4.2679 H   0  0  0  0  0  0  0  0  0  0  0  0
    8.5329   -3.5510    3.5717 H   0  0  0  0  0  0  0  0  0  0  0  0
    9.7520   -4.4544    0.0481 H   0  0  0  0  0  0  0  0  0  0  0  0
    8.3315   -2.1954    1.5357 H   0  0  0  0  0  0  0  0  0  0  0  0
    6.7201   -3.9525    1.3915 H   0  0  0  0  0  0  0  0  0  0  0  0
    6.2746   -2.7327    0.1790 H   0  0  0  0  0  0  0  0  0  0  0  0
    6.9084   -2.9826   -2.3689 H   0  0  0  0  0  0  0  0  0  0  0  0
    6.4454   -4.5403   -3.1196 H   0  0  0  0  0  0  0  0  0  0  0  0
    4.3576   -5.7060   -1.6188 H   0  0  0  0  0  0  0  0  0  0  0  0
    1.0995   -2.9100   -1.3338 H   0  0  0  0  0  0  0  0  0  0  0  0
    5.0528   -1.5081   -2.2898 H   0  0  0  0  0  0  0  0  0  0  0  0
    3.1200   -0.0736   -2.6508 H   0  0  0  0  0  0  0  0  0  0  0  0
    1.4615   -0.6434   -2.3476 H   0  0  0  0  0  0  0  0  0  0  0  0
    2.3705    2.1056   -1.6694 H   0  0  0  0  0  0  0  0  0  0  0  0
    4.0498    1.6329   -1.2365 H   0  0  0  0  0  0  0  0  0  0  0  0
    3.3196    2.2549    1.2577 H   0  0  0  0  0  0  0  0  0  0  0  0
    3.8949    4.3191   -0.9149 H   0  0  0  0  0  0  0  0  0  0  0  0
    6.6735    3.0398   -0.5110 H   0  0  0  0  0  0  0  0  0  0  0  0
    7.5939    5.1805   -1.5108 H   0  0  0  0  0  0  0  0  0  0  0  0
    6.3242    6.1098   -0.6083 H   0  0  0  0  0  0  0  0  0  0  0  0
    5.8598    4.8959   -1.8792 H   0  0  0  0  0  0  0  0  0  0  0  0
    7.6743    5.1227    1.4949 H   0  0  0  0  0  0  0  0  0  0  0  0
    9.4517    2.7256    2.7490 H   0  0  0  0  0  0  0  0  0  0  0  0
    7.1650    2.1321    2.8202 H   0  0  0  0  0  0  0  0  0  0  0  0
    8.0590    0.5779    2.6770 H   0  0  0  0  0  0  0  0  0  0  0  0
    7.1957    1.2732    1.2534 H   0  0  0  0  0  0  0  0  0  0  0  0
   10.9898    1.3196    1.8595 H   0  0  0  0  0  0  0  0  0  0  0  0
    8.2709    1.4472   -0.7268 H   0  0  0  0  0  0  0  0  0  0  0  0
    9.7886    1.6232   -2.5999 H   0  0  0  0  0  0  0  0  0  0  0  0
   10.0275   -0.1588   -2.6495 H   0  0  0  0  0  0  0  0  0  0  0  0
    8.4043    0.5405   -3.0029 H   0  0  0  0  0  0  0  0  0  0  0  0
    7.2000   -0.5389   -0.2494 H   0  0  0  0  0  0  0  0  0  0  0  0
    2.2229    5.3384    1.1781 H   0  0  0  0  0  0  0  0  0  0  0  0
   -0.3804    5.6304    0.5407 H   0  0  0  0  0  0  0  0  0  0  0  0
    0.9777    4.7909   -2.0935 H   0  0  0  0  0  0  0  0  0  0  0  0
   -0.6078    5.6658   -2.0009 H   0  0  0  0  0  0  0  0  0  0  0  0
   -0.4498    4.0237   -1.2887 H   0  0  0  0  0  0  0  0  0  0  0  0
    1.2611    8.8301    0.6935 H   0  0  0  0  0  0  0  0  0  0  0  0
   -1.2213    8.4683   -0.7074 H   0  0  0  0  0  0  0  0  0  0  0  0
   -2.0271   10.3853    0.7161 H   0  0  0  0  0  0  0  0  0  0  0  0
   -0.4234   10.6688   -0.0554 H   0  0  0  0  0  0  0  0  0  0  0  0
   -0.5192   10.2464    1.6974 H   0  0  0  0  0  0  0  0  0  0  0  0
   -2.9559    6.0552    1.4772 H   0  0  0  0  0  0  0  0  0  0  0  0
   -2.7907    7.1109   -1.2537 H   0  0  0  0  0  0  0  0  0  0  0  0
   -4.9447    8.3734   -1.2989 H   0  0  0  0  0  0  0  0  0  0  0  0
   -5.1035    8.1955    0.4934 H   0  0  0  0  0  0  0  0  0  0  0  0
   -3.7661    9.1740   -0.2129 H   0  0  0  0  0  0  0  0  0  0  0  0
   -5.3261    5.8410    1.2388 H   0  0  0  0  0  0  0  0  0  0  0  0
   -6.6551    3.9947    1.1432 H   0  0  0  0  0  0  0  0  0  0  0  0
   -4.4668    2.8617    0.6487 H   0  0  0  0  0  0  0  0  0  0  0  0
   -5.8885    2.0048   -0.0144 H   0  0  0  0  0  0  0  0  0  0  0  0
   -4.8491    2.9444   -1.1173 H   0  0  0  0  0  0  0  0  0  0  0  0
   -8.7642    3.3385   -1.9284 H   0  0  0  0  0  0  0  0  0  0  0  0
  -10.1967    2.7725   -0.2569 H   0  0  0  0  0  0  0  0  0  0  0  0
  -10.0926    5.1332    0.3677 H   0  0  0  0  0  0  0  0  0  0  0  0
   -8.7387    4.8158    1.5118 H   0  0  0  0  0  0  0  0  0  0  0  0
  -10.3498    4.0677    1.7905 H   0  0  0  0  0  0  0  0  0  0  0  0
   -7.3891    0.4428    0.2863 H   0  0  0  0  0  0  0  0  0  0  0  0
   -9.1194   -0.9446   -0.6167 H   0  0  0  0  0  0  0  0  0  0  0  0
  -11.1043    0.7814    0.9686 H   0  0  0  0  0  0  0  0  0  0  0  0
  -10.9088    0.6632   -0.8392 H   0  0  0  0  0  0  0  0  0  0  0  0
  -11.4878   -0.7539    0.0990 H   0  0  0  0  0  0  0  0  0  0  0  0
   -8.7988   -3.0909    2.4288 H   0  0  0  0  0  0  0  0  0  0  0  0
   -7.8385   -2.7232   -0.3503 H   0  0  0  0  0  0  0  0  0  0  0  0
   -9.4820   -4.3479   -1.3759 H   0  0  0  0  0  0  0  0  0  0  0  0
  -10.4394   -4.3381    0.1596 H   0  0  0  0  0  0  0  0  0  0  0  0
  -10.3057   -2.8462   -0.8325 H   0  0  0  0  0  0  0  0  0  0  0  0
   -5.7445   -3.8117    0.3921 H   0  0  0  0  0  0  0  0  0  0  0  0
   -4.7813   -5.4174   -0.9070 H   0  0  0  0  0  0  0  0  0  0  0  0
   -6.8328   -5.1048   -2.2970 H   0  0  0  0  0  0  0  0  0  0  0  0
   -6.1856   -6.7805   -2.4167 H   0  0  0  0  0  0  0  0  0  0  0  0
   -7.6436   -6.4550   -1.4139 H   0  0  0  0  0  0  0  0  0  0  0  0
   -4.9954   -9.0592   -0.0920 H   0  0  0  0  0  0  0  0  0  0  0  0
   -2.9925   -6.8125   -0.3102 H   0  0  0  0  0  0  0  0  0  0  0  0
   -3.6609   -8.7293   -2.6269 H   0  0  0  0  0  0  0  0  0  0  0  0
   -3.8271   -6.9294   -2.6020 H   0  0  0  0  0  0  0  0  0  0  0  0
   -2.1916   -7.6705   -2.5410 H   0  0  0  0  0  0  0  0  0  0  0  0
   -0.6180   -9.3764    0.9517 H   0  0  0  0  0  0  0  0  0  0  0  0
   -0.7635   -6.6923   -0.2685 H   0  0  0  0  0  0  0  0  0  0  0  0
   -1.7100   -6.4833    3.9179 H   0  0  0  0  0  0  0  0  0  0  0  0
   -0.8046   -7.9266    3.3588 H   0  0  0  0  0  0  0  0  0  0  0  0
    1.3735   -8.0095    0.1449 H   0  0  0  0  0  0  0  0  0  0  0  0
    1.1484   -7.7473    1.8982 H   0  0  0  0  0  0  0  0  0  0  0  0
    2.0369   -6.4977   -1.5048 H   0  0  0  0  0  0  0  0  0  0  0  0
    0.6792   -5.3279   -1.3758 H   0  0  0  0  0  0  0  0  0  0  0  0
  1  2  1  0
  2  3  2  0
  2  4  1  0
  4  5  1  0
  5  6  1  0
  6  7  1  0
  7  8  1  0
  8  9  1  0
  9 10  1  0
 10 11  2  0
 11 12  1  0
 12 13  2  0
 13 14  1  0
 13 15  1  0
 15 16  1  0
 16 17  1  0
 17 18  1  0
 18 19  1  0
 19 20  1  0
 20 21  2  0
 20 22  1  0
 22 23  1  0
 22 24  1  0
 24 25  1  0
 25 26  2  0
 25 27  1  0
 27 28  1  0
 27 29  1  0
 29 30  1  0
 30 31  2  0
 30 32  1  0
 32 33  1  0
 32 34  1  0
 34 35  1  0
 35 36  2  0
 18 37  1  0
 37 38  2  0
 37 39  1  0
 39 40  1  0
 40 41  1  0
 40 42  1  0
 42 43  2  0
 42 44  1  0
 44 45  1  0
 45 46  1  0
 45 47  1  0
 47 48  2  0
 47 49  1  0
 49 50  1  0
 50 51  1  0
 50 52  1  0
 52 53  2  0
 52 54  1  0
 54 55  1  0
 55 56  1  0
 55 57  1  0
 57 58  2  0
 57 59  1  0
 59 60  1  0
 60 61  1  0
 60 62  1  0
 62 63  2  0
 62 64  1  0
 64 65  1  0
 65 66  1  0
 65 67  1  0
 67 68  2  0
 67 69  1  0
 69 70  1  0
 70 71  1  0
 70 72  1  0
 72 73  2  0
 72 74  1  0
 74 75  1  0
 75 76  1  0
 75 77  1  0
 77 78  2  0
 77 79  1  0
 79 80  1  0
 80 81  1  0
 80 82  1  0
 82 83  2  0
 82 84  1  0
 84 85  1  0
 85 86  1  0
 86 87  1  0
 86 88  2  0
 85 89  1  0
 89 90  1  0
 90 91  1  0
 35  5  1  0
 14  9  2  0
 91 11  1  0
  1 92  1  0
  1 93  1  0
  1 94  1  0
  4 95  1  0
  5 96  1  1
  6 97  1  0
  6 98  1  0
  8 99  1  0
  8100  1  0
 10101  1  0
 12102  1  0
 14103  1  0
 15104  1  0
 15105  1  0
 17106  1  0
 17107  1  0
 18108  1  1
 19109  1  0
 22110  1  6
 23111  1  0
 23112  1  0
 23113  1  0
 24114  1  0
 27115  1  1
 28116  1  0
 28117  1  0
 28118  1  0
 29119  1  0
 32120  1  1
 33121  1  0
 33122  1  0
 33123  1  0
 34124  1  0
 39125  1  0
 40126  1  1
 41127  1  0
 41128  1  0
 41129  1  0
 44130  1  0
 45131  1  6
 46132  1  0
 46133  1  0
 46134  1  0
 49135  1  0
 50136  1  6
 51137  1  0
 51138  1  0
 51139  1  0
 54140  1  0
 55141  1  1
 56142  1  0
 56143  1  0
 56144  1  0
 59145  1  0
 60146  1  6
 61147  1  0
 61148  1  0
 61149  1  0
 64150  1  0
 65151  1  6
 66152  1  0
 66153  1  0
 66154  1  0
 69155  1  0
 70156  1  6
 71157  1  0
 71158  1  0
 71159  1  0
 74160  1  0
 75161  1  6
 76162  1  0
 76163  1  0
 76164  1  0
 79165  1  0
 80166  1  1
 81167  1  0
 81168  1  0
 81169  1  0
 84170  1  0
 85171  1  6
 87172  1  0
 87173  1  0
 89174  1  0
 89175  1  0
 91176  1  0
 91177  1  0
M  END
