
     RDKit          3D

187189  0  0  0  0  0  0  0  0999 V2000
   11.3351   -4.1019   -1.0586 C   0  0  0  0  0  0  0  0  0  0  0  0
   11.1972   -4.3477    0.4107 C   0  0  0  0  0  0  0  0  0  0  0  0
   12.0163   -5.1199    0.9749 O   0  0  0  0  0  0  0  0  0  0  0  0
   10.1637   -3.7319    1.1988 N   0  0  0  0  0  0  0  0  0  0  0  0
    9.0707   -2.9044    0.6626 C   0  0  1  0  0  0  0  0  0  0  0  0
    7.7512   -3.6889    0.7134 C   0  0  0  0  0  0  0  0  0  0  0  0
    7.6336   -4.8748   -0.6781 S   0  0  0  0  0  0  0  0  0  0  0  0
    6.9149   -3.7207   -1.9136 C   0  0  0  0  0  0  0  0  0  0  0  0
    5.5561   -3.2234   -1.5029 C   0  0  0  0  0  0  0  0  0  0  0  0
    4.5835   -4.1270   -1.0444 C   0  0  0  0  0  0  0  0  0  0  0  0
    3.3666   -3.6621   -0.5359 C   0  0  0  0  0  0  0  0  0  0  0  0
    3.0702   -2.2943   -0.5807 C   0  0  0  0  0  0  0  0  0  0  0  0
    4.0193   -1.3773   -1.0480 C   0  0  0  0  0  0  0  0  0  0  0  0
    5.2688   -1.8444   -1.4972 C   0  0  0  0  0  0  0  0  0  0  0  0
    3.7199    0.0962   -1.0203 C   0  0  0  0  0  0  0  0  0  0  0  0
    4.8085    0.9486    0.1796 S   0  0  0  0  0  0  0  0  0  0  0  0
    3.6220    2.2776    0.6045 C   0  0  0  0  0  0  0  0  0  0  0  0
    4.2634    3.2697    1.5816 C   0  0  1  0  0  0  0  0  0  0  0  0
    5.3414    4.0238    0.9321 N   0  0  0  0  0  0  0  0  0  0  0  0
    6.6933    3.9670    1.4161 C   0  0  0  0  0  0  0  0  0  0  0  0
    6.8983    3.8961    2.6574 O   0  0  0  0  0  0  0  0  0  0  0  0
    7.8741    3.8781    0.4808 C   0  0  1  0  0  0  0  0  0  0  0  0
    7.4988    3.9271   -1.0035 C   0  0  0  0  0  0  0  0  0  0  0  0
    8.8433    4.9382    0.7795 N   0  0  0  0  0  0  0  0  0  0  0  0
   10.2634    4.7284    0.8736 C   0  0  0  0  0  0  0  0  0  0  0  0
   10.9679    5.6068    1.4478 O   0  0  0  0  0  0  0  0  0  0  0  0
   10.9248    3.4547    0.3896 C   0  0  1  0  0  0  0  0  0  0  0  0
   12.3334    3.7178   -0.1488 C   0  0  0  0  0  0  0  0  0  0  0  0
   11.0025    2.5032    1.5033 N   0  0  0  0  0  0  0  0  0  0  0  0
   10.5419    1.1354    1.5154 C   0  0  0  0  0  0  0  0  0  0  0  0
   10.7674    0.4473    2.5479 O   0  0  0  0  0  0  0  0  0  0  0  0
    9.8543    0.4631    0.3422 C   0  0  1  0  0  0  0  0  0  0  0  0
   10.8769   -0.3164   -0.4841 C   0  0  0  0  0  0  0  0  0  0  0  0
    8.7474   -0.3839    0.8065 N   0  0  0  0  0  0  0  0  0  0  0  0
    8.9365   -1.6408    1.4688 C   0  0  0  0  0  0  0  0  0  0  0  0
    8.8294   -1.7035    2.7248 O   0  0  0  0  0  0  0  0  0  0  0  0
    3.2384    4.1918    2.2084 C   0  0  0  0  0  0  0  0  0  0  0  0
    2.6921    3.8350    3.2870 O   0  0  0  0  0  0  0  0  0  0  0  0
    2.9156    5.4865    1.6711 N   0  0  0  0  0  0  0  0  0  0  0  0
    2.5473    5.7108    0.2705 C   0  0  2  0  0  0  0  0  0  0  0  0
    2.9097    7.1385   -0.1481 C   0  0  0  0  0  0  0  0  0  0  0  0
    1.0836    5.4267    0.0728 C   0  0  0  0  0  0  0  0  0  0  0  0
    0.7275    4.3083   -0.3919 O   0  0  0  0  0  0  0  0  0  0  0  0
    0.0917    6.3847    0.4480 N   0  0  0  0  0  0  0  0  0  0  0  0
   -0.6952    7.0945   -0.5619 C   0  0  2  0  0  0  0  0  0  0  0  0
   -0.9971    8.5187   -0.0800 C   0  0  0  0  0  0  0  0  0  0  0  0
   -1.9238    6.2982   -0.9397 C   0  0  0  0  0  0  0  0  0  0  0  0
   -1.7755    5.1223   -1.3691 O   0  0  0  0  0  0  0  0  0  0  0  0
   -3.2369    6.8723   -0.9811 N   0  0  0  0  0  0  0  0  0  0  0  0
   -4.0619    7.1387    0.2086 C   0  0  2  0  0  0  0  0  0  0  0  0
   -3.8869    6.0373    1.2675 C   0  0  0  0  0  0  0  0  0  0  0  0
   -5.5107    7.2906   -0.2052 C   0  0  0  0  0  0  0  0  0  0  0  0
   -5.8637    8.3362   -0.8159 O   0  0  0  0  0  0  0  0  0  0  0  0
   -6.4620    6.2458    0.0126 N   0  0  0  0  0  0  0  0  0  0  0  0
   -7.1013    5.4730   -1.0595 C   0  0  2  0  0  0  0  0  0  0  0  0
   -6.1471    5.2498   -2.2408 C   0  0  0  0  0  0  0  0  0  0  0  0
   -8.3647    6.1453   -1.5392 C   0  0  0  0  0  0  0  0  0  0  0  0
   -8.3057    7.3555   -1.8931 O   0  0  0  0  0  0  0  0  0  0  0  0
   -9.6153    5.4443   -1.7121 N   0  0  0  0  0  0  0  0  0  0  0  0
  -10.1395    4.3651   -0.8566 C   0  0  2  0  0  0  0  0  0  0  0  0
  -10.0229    4.7303    0.6290 C   0  0  0  0  0  0  0  0  0  0  0  0
   -9.5428    3.0145   -1.1804 C   0  0  0  0  0  0  0  0  0  0  0  0
   -8.5680    2.9049   -1.9627 O   0  0  0  0  0  0  0  0  0  0  0  0
  -10.1264    1.8280   -0.6264 N   0  0  0  0  0  0  0  0  0  0  0  0
   -9.5887    1.1984    0.5829 C   0  0  2  0  0  0  0  0  0  0  0  0
   -8.1252    0.7733    0.3924 C   0  0  0  0  0  0  0  0  0  0  0  0
  -10.4969    0.0715    1.0319 C   0  0  0  0  0  0  0  0  0  0  0  0
  -11.5753    0.3684    1.6209 O   0  0  0  0  0  0  0  0  0  0  0  0
  -10.1822   -1.3148    0.8247 N   0  0  0  0  0  0  0  0  0  0  0  0
   -9.9900   -1.8775   -0.5144 C   0  0  2  0  0  0  0  0  0  0  0  0
  -11.3417   -2.1953   -1.1619 C   0  0  0  0  0  0  0  0  0  0  0  0
   -9.1301   -3.1115   -0.4202 C   0  0  0  0  0  0  0  0  0  0  0  0
   -7.9457   -3.0730   -0.8587 O   0  0  0  0  0  0  0  0  0  0  0  0
   -9.6217   -4.3024    0.2202 N   0  0  0  0  0  0  0  0  0  0  0  0
   -8.8895   -5.5724    0.1814 C   0  0  2  0  0  0  0  0  0  0  0  0
   -9.8391   -6.7404    0.4757 C   0  0  0  0  0  0  0  0  0  0  0  0
   -7.7719   -5.5504    1.2008 C   0  0  0  0  0  0  0  0  0  0  0  0
   -8.0662   -5.2936    2.4013 O   0  0  0  0  0  0  0  0  0  0  0  0
   -6.3978   -5.8417    0.8755 N   0  0  0  0  0  0  0  0  0  0  0  0
   -5.8944   -6.2187   -0.4516 C   0  0  2  0  0  0  0  0  0  0  0  0
   -6.3210   -7.6557   -0.7930 C   0  0  0  0  0  0  0  0  0  0  0  0
   -4.3989   -5.9970   -0.5093 C   0  0  0  0  0  0  0  0  0  0  0  0
   -3.9653   -4.8290   -0.3271 O   0  0  0  0  0  0  0  0  0  0  0  0
   -3.4591   -7.0299   -0.8406 N   0  0  0  0  0  0  0  0  0  0  0  0
   -3.2200   -8.2363   -0.0332 C   0  0  2  0  0  0  0  0  0  0  0  0
   -3.4291   -7.9962    1.4732 C   0  0  0  0  0  0  0  0  0  0  0  0
   -1.8433   -8.8026   -0.3233 C   0  0  0  0  0  0  0  0  0  0  0  0
   -1.7191  -10.0489   -0.4919 O   0  0  0  0  0  0  0  0  0  0  0  0
   -0.6959   -7.9581   -0.5312 N   0  0  0  0  0  0  0  0  0  0  0  0
   -0.2557   -6.9621    0.4499 C   0  0  1  0  0  0  0  0  0  0  0  0
    1.0117   -7.4091    1.1363 C   0  0  0  0  0  0  0  0  0  0  0  0
    2.0925   -7.9996    0.4080 N   0  0  0  0  0  0  0  0  0  0  0  0
    1.1080   -7.2855    2.3846 O   0  0  0  0  0  0  0  0  0  0  0  0
   -0.1787   -5.5611   -0.1856 C   0  0  0  0  0  0  0  0  0  0  0  0
    1.2878   -5.2838   -1.2513 S   0  0  0  0  0  0  0  0  0  0  0  0
    2.3836   -4.6262    0.0591 C   0  0  0  0  0  0  0  0  0  0  0  0
   11.4987   -3.0230   -1.2495 H   0  0  0  0  0  0  0  0  0  0  0  0
   12.2101   -4.6543   -1.4649 H   0  0  0  0  0  0  0  0  0  0  0  0
   10.4247   -4.4401   -1.5884 H   0  0  0  0  0  0  0  0  0  0  0  0
   10.1292   -3.9819    2.2173 H   0  0  0  0  0  0  0  0  0  0  0  0
    9.2698   -2.6197   -0.3836 H   0  0  0  0  0  0  0  0  0  0  0  0
    6.8919   -2.9941    0.6939 H   0  0  0  0  0  0  0  0  0  0  0  0
    7.6858   -4.2494    1.6687 H   0  0  0  0  0  0  0  0  0  0  0  0
    6.8091   -4.2624   -2.8817 H   0  0  0  0  0  0  0  0  0  0  0  0
    7.6201   -2.8820   -2.0802 H   0  0  0  0  0  0  0  0  0  0  0  0
    4.7916   -5.1863   -1.0332 H   0  0  0  0  0  0  0  0  0  0  0  0
    2.1134   -1.9418   -0.2127 H   0  0  0  0  0  0  0  0  0  0  0  0
    6.0152   -1.1321   -1.8294 H   0  0  0  0  0  0  0  0  0  0  0  0
    2.6529    0.2746   -0.7563 H   0  0  0  0  0  0  0  0  0  0  0  0
    3.8851    0.5254   -2.0338 H   0  0  0  0  0  0  0  0  0  0  0  0
    3.2937    2.7869   -0.3224 H   0  0  0  0  0  0  0  0  0  0  0  0
    2.7332    1.8107    1.0819 H   0  0  0  0  0  0  0  0  0  0  0  0
    4.6897    2.6633    2.4151 H   0  0  0  0  0  0  0  0  0  0  0  0
    5.1682    4.4352   -0.0052 H   0  0  0  0  0  0  0  0  0  0  0  0
    8.3270    2.8936    0.6794 H   0  0  0  0  0  0  0  0  0  0  0  0
    7.0328    4.9050   -1.2533 H   0  0  0  0  0  0  0  0  0  0  0  0
    6.8015    3.1034   -1.2538 H   0  0  0  0  0  0  0  0  0  0  0  0
    8.4070    3.8217   -1.6372 H   0  0  0  0  0  0  0  0  0  0  0  0
    8.4906    5.9132    0.9269 H   0  0  0  0  0  0  0  0  0  0  0  0
   10.3462    3.0548   -0.4585 H   0  0  0  0  0  0  0  0  0  0  0  0
   12.3018    4.5008   -0.9366 H   0  0  0  0  0  0  0  0  0  0  0  0
   13.0198    4.0438    0.6632 H   0  0  0  0  0  0  0  0  0  0  0  0
   12.7376    2.7865   -0.5982 H   0  0  0  0  0  0  0  0  0  0  0  0
   11.4857    2.8359    2.3683 H   0  0  0  0  0  0  0  0  0  0  0  0
    9.4017    1.2034   -0.3405 H   0  0  0  0  0  0  0  0  0  0  0  0
   10.3773   -0.8125   -1.3458 H   0  0  0  0  0  0  0  0  0  0  0  0
   11.3863   -1.0815    0.1375 H   0  0  0  0  0  0  0  0  0  0  0  0
   11.6421    0.3781   -0.8957 H   0  0  0  0  0  0  0  0  0  0  0  0
    7.8406    0.1037    0.9965 H   0  0  0  0  0  0  0  0  0  0  0  0
    2.5794    6.1997    2.3610 H   0  0  0  0  0  0  0  0  0  0  0  0
    3.1151    5.0302   -0.3918 H   0  0  0  0  0  0  0  0  0  0  0  0
    4.0091    7.2793   -0.0638 H   0  0  0  0  0  0  0  0  0  0  0  0
    2.4049    7.8866    0.4948 H   0  0  0  0  0  0  0  0  0  0  0  0
    2.6192    7.3112   -1.2080 H   0  0  0  0  0  0  0  0  0  0  0  0
   -0.1289    6.5063    1.4661 H   0  0  0  0  0  0  0  0  0  0  0  0
   -0.0797    7.1954   -1.4843 H   0  0  0  0  0  0  0  0  0  0  0  0
   -1.6345    9.0552   -0.8175 H   0  0  0  0  0  0  0  0  0  0  0  0
   -0.0464    9.0818    0.0274 H   0  0  0  0  0  0  0  0  0  0  0  0
   -1.5029    8.5017    0.9097 H   0  0  0  0  0  0  0  0  0  0  0  0
   -3.7018    6.8630   -1.9201 H   0  0  0  0  0  0  0  0  0  0  0  0
   -3.7436    8.0961    0.6681 H   0  0  0  0  0  0  0  0  0  0  0  0
   -4.1529    5.0414    0.8513 H   0  0  0  0  0  0  0  0  0  0  0  0
   -2.8351    6.0097    1.6193 H   0  0  0  0  0  0  0  0  0  0  0  0
   -4.5295    6.2491    2.1507 H   0  0  0  0  0  0  0  0  0  0  0  0
   -6.7601    6.0517    0.9981 H   0  0  0  0  0  0  0  0  0  0  0  0
   -7.3287    4.4772   -0.6515 H   0  0  0  0  0  0  0  0  0  0  0  0
   -6.6257    4.6009   -3.0047 H   0  0  0  0  0  0  0  0  0  0  0  0
   -5.8803    6.2089   -2.7276 H   0  0  0  0  0  0  0  0  0  0  0  0
   -5.2141    4.7534   -1.8876 H   0  0  0  0  0  0  0  0  0  0  0  0
  -10.3242    5.9270   -2.3015 H   0  0  0  0  0  0  0  0  0  0  0  0
  -11.2276    4.2769   -1.0676 H   0  0  0  0  0  0  0  0  0  0  0  0
  -10.5793    4.0029    1.2483 H   0  0  0  0  0  0  0  0  0  0  0  0
   -8.9698    4.7483    0.9631 H   0  0  0  0  0  0  0  0  0  0  0  0
  -10.4688    5.7281    0.8016 H   0  0  0  0  0  0  0  0  0  0  0  0
  -11.0431    1.5129   -1.0221 H   0  0  0  0  0  0  0  0  0  0  0  0
   -9.5892    1.9457    1.4021 H   0  0  0  0  0  0  0  0  0  0  0  0
   -7.8106    0.0719    1.1947 H   0  0  0  0  0  0  0  0  0  0  0  0
   -7.4688    1.6681    0.4461 H   0  0  0  0  0  0  0  0  0  0  0  0
   -7.9550    0.3037   -0.5973 H   0  0  0  0  0  0  0  0  0  0  0  0
  -10.5222   -1.9710    1.5638 H   0  0  0  0  0  0  0  0  0  0  0  0
   -9.4867   -1.1419   -1.1660 H   0  0  0  0  0  0  0  0  0  0  0  0
  -11.1924   -2.7149   -2.1317 H   0  0  0  0  0  0  0  0  0  0  0  0
  -11.9649   -2.8319   -0.5013 H   0  0  0  0  0  0  0  0  0  0  0  0
  -11.8979   -1.2511   -1.3605 H   0  0  0  0  0  0  0  0  0  0  0  0
  -10.5607   -4.2720    0.6758 H   0  0  0  0  0  0  0  0  0  0  0  0
   -8.5074   -5.7122   -0.8484 H   0  0  0  0  0  0  0  0  0  0  0  0
  -10.6397   -6.7863   -0.2893 H   0  0  0  0  0  0  0  0  0  0  0  0
   -9.2844   -7.7025    0.4507 H   0  0  0  0  0  0  0  0  0  0  0  0
  -10.2984   -6.6217    1.4756 H   0  0  0  0  0  0  0  0  0  0  0  0
   -5.7151   -5.7497    1.6623 H   0  0  0  0  0  0  0  0  0  0  0  0
   -6.3267   -5.5392   -1.2171 H   0  0  0  0  0  0  0  0  0  0  0  0
   -7.4002   -7.6971   -1.0411 H   0  0  0  0  0  0  0  0  0  0  0  0
   -5.7709   -8.0280   -1.6855 H   0  0  0  0  0  0  0  0  0  0  0  0
   -6.1516   -8.3429    0.0621 H   0  0  0  0  0  0  0  0  0  0  0  0
   -2.7938   -6.8022   -1.6162 H   0  0  0  0  0  0  0  0  0  0  0  0
   -3.9504   -9.0133   -0.3429 H   0  0  0  0  0  0  0  0  0  0  0  0
   -2.8967   -8.7584    2.0788 H   0  0  0  0  0  0  0  0  0  0  0  0
   -3.0993   -6.9843    1.7849 H   0  0  0  0  0  0  0  0  0  0  0  0
   -4.5070   -8.0672    1.7210 H   0  0  0  0  0  0  0  0  0  0  0  0
   -0.0709   -8.1812   -1.3381 H   0  0  0  0  0  0  0  0  0  0  0  0
   -1.0162   -6.8806    1.2473 H   0  0  0  0  0  0  0  0  0  0  0  0
    2.1141   -7.9942   -0.6338 H   0  0  0  0  0  0  0  0  0  0  0  0
    2.9364   -8.3529    0.9168 H   0  0  0  0  0  0  0  0  0  0  0  0
   -1.0735   -5.3999   -0.8204 H   0  0  0  0  0  0  0  0  0  0  0  0
   -0.2466   -4.7851    0.6064 H   0  0  0  0  0  0  0  0  0  0  0  0
    2.9375   -5.4619    0.5294 H   0  0  0  0  0  0  0  0  0  0  0  0
    1.8225   -4.1213    0.8721 H   0  0  0  0  0  0  0  0  0  0  0  0
  1  2  1  0
  2  3  2  0
  2  4  1  0
  4  5  1  0
  5  6  1  0
  6  7  1  0
  7  8  1  0
  8  9  1  0
  9 10  1  0
 10 11  2  0
 11 12  1  0
 12 13  2  0
 13 14  1  0
 13 15  1  0
 15 16  1  0
 16 17  1  0
 17 18  1  0
 18 19  1  0
 19 20  1  0
 20 21  2  0
 20 22  1  0
 22 23  1  0
 22 24  1  0
 24 25  1  0
 25 26  2  0
 25 27  1  0
 27 28  1  0
 27 29  1  0
 29 30  1  0
 30 31  2  0
 30 32  1  0
 32 33  1  0
 32 34  1  0
 34 35  1  0
 35 36  2  0
 18 37  1  0
 37 38  2  0
 37 39  1  0
 39 40  1  0
 40 41  1  0
 40 42  1  0
 42 43  2  0
 42 44  1  0
 44 45  1  0
 45 46  1  0
 45 47  1  0
 47 48  2  0
 47 49  1  0
 49 50  1  0
 50 51  1  0
 50 52  1  0
 52 53  2  0
 52 54  1  0
 54 55  1  0
 55 56  1  0
 55 57  1  0
 57 58  2  0
 57 59  1  0
 59 60  1  0
 60 61  1  0
 60 62  1  0
 62 63  2  0
 62 64  1  0
 64 65  1  0
 65 66  1  0
 65 67  1  0
 67 68  2  0
 67 69  1  0
 69 70  1  0
 70 71  1  0
 70 72  1  0
 72 73  2  0
 72 74  1  0
 74 75  1  0
 75 76  1  0
 75 77  1  0
 77 78  2  0
 77 79  1  0
 79 80  1  0
 80 81  1  0
 80 82  1  0
 82 83  2  0
 82 84  1  0
 84 85  1  0
 85 86  1  0
 85 87  1  0
 87 88  2  0
 87 89  1  0
 89 90  1  0
 90 91  1  0
 91 92  1  0
 91 93  2  0
 90 94  1  0
 94 95  1  0
 95 96  1  0
 35  5  1  0
 14  9  2  0
 96 11  1  0
  1 97  1  0
  1 98  1  0
  1 99  1  0
  4100  1  0
  5101  1  6
  6102  1  0
  6103  1  0
  8104  1  0
  8105  1  0
 10106  1  0
 12107  1  0
 14108  1  0
 15109  1  0
 15110  1  0
 17111  1  0
 17112  1  0
 18113  1  1
 19114  1  0
 22115  1  6
 23116  1  0
 23117  1  0
 23118  1  0
 24119  1  0
 27120  1  6
 28121  1  0
 28122  1  0
 28123  1  0
 29124  1  0
 32125  1  6
 33126  1  0
 33127  1  0
 33128  1  0
 34129  1  0
 39130  1  0
 40131  1  6
 41132  1  0
 41133  1  0
 41134  1  0
 44135  1  0
 45136  1  6
 46137  1  0
 46138  1  0
 46139  1  0
 49140  1  0
 50141  1  1
 51142  1  0
 51143  1  0
 51144  1  0
 54145  1  0
 55146  1  1
 56147  1  0
 56148  1  0
 56149  1  0
 59150  1  0
 60151  1  6
 61152  1  0
 61153  1  0
 61154  1  0
 64155  1  0
 65156  1  1
 66157  1  0
 66158  1  0
 66159  1  0
 69160  1  0
 70161  1  6
 71162  1  0
 71163  1  0
 71164  1  0
 74165  1  0
 75166  1  6
 76167  1  0
 76168  1  0
 76169  1  0
 79170  1  0
 80171  1  6
 81172  1  0
 81173  1  0
 81174  1  0
 84175  1  0
 85176  1  6
 86177  1  0
 86178  1  0
 86179  1  0
 89180  1  0
 90181  1  1
 92182  1  0
 92183  1  0
 94184  1  0
 94185  1  0
 96186  1  0
 96187  1  0
M  END
