
     RDKit          3D

177179  0  0  0  0  0  0  0  0999 V2000
  -11.1115    5.0717    1.5730 C   0  0  0  0  0  0  0  0  0  0  0  0
   -9.7288    4.5092    1.5209 C   0  0  0  0  0  0  0  0  0  0  0  0
   -8.9846    4.6214    2.5303 O   0  0  0  0  0  0  0  0  0  0  0  0
   -9.2549    3.8516    0.3306 N   0  0  0  0  0  0  0  0  0  0  0  0
   -8.0052    3.0845    0.2404 C   0  0  1  0  0  0  0  0  0  0  0  0
   -6.7700    3.9948    0.3654 C   0  0  0  0  0  0  0  0  0  0  0  0
   -6.6669    5.2195   -0.9925 S   0  0  0  0  0  0  0  0  0  0  0  0
   -5.9456    4.1389   -2.2944 C   0  0  0  0  0  0  0  0  0  0  0  0
   -4.6716    3.4735   -1.8409 C   0  0  0  0  0  0  0  0  0  0  0  0
   -4.5593    2.0756   -1.8290 C   0  0  0  0  0  0  0  0  0  0  0  0
   -3.4060    1.4598   -1.3190 C   0  0  0  0  0  0  0  0  0  0  0  0
   -2.3857    2.2472   -0.7667 C   0  0  0  0  0  0  0  0  0  0  0  0
   -2.4658    3.6469   -0.8126 C   0  0  0  0  0  0  0  0  0  0  0  0
   -3.6067    4.2507   -1.3650 C   0  0  0  0  0  0  0  0  0  0  0  0
   -1.3920    4.5213   -0.2104 C   0  0  0  0  0  0  0  0  0  0  0  0
    0.2863    3.9383   -0.6642 S   0  0  0  0  0  0  0  0  0  0  0  0
    1.0362    5.5806   -0.9970 C   0  0  0  0  0  0  0  0  0  0  0  0
    1.1364    6.4746    0.2608 C   0  0  1  0  0  0  0  0  0  0  0  0
    2.0091    5.9344    1.3651 C   0  0  0  0  0  0  0  0  0  0  0  0
    2.1876    6.6899    2.5658 N   0  0  0  0  0  0  0  0  0  0  0  0
    2.5722    4.8128    1.2487 O   0  0  0  0  0  0  0  0  0  0  0  0
    1.5125    7.8491   -0.1130 N   0  0  0  0  0  0  0  0  0  0  0  0
    2.8414    8.3628   -0.3369 C   0  0  0  0  0  0  0  0  0  0  0  0
    2.9985    9.6106   -0.3479 O   0  0  0  0  0  0  0  0  0  0  0  0
    4.0506    7.4903   -0.5919 C   0  0  1  0  0  0  0  0  0  0  0  0
    4.6141    7.8028   -1.9841 C   0  0  0  0  0  0  0  0  0  0  0  0
    5.0623    7.7162    0.4544 N   0  0  0  0  0  0  0  0  0  0  0  0
    6.4450    7.3235    0.3562 C   0  0  0  0  0  0  0  0  0  0  0  0
    7.3267    8.2176    0.4864 O   0  0  0  0  0  0  0  0  0  0  0  0
    6.9133    5.8863    0.2521 C   0  0  1  0  0  0  0  0  0  0  0  0
    5.8043    4.8468    0.1083 C   0  0  0  0  0  0  0  0  0  0  0  0
    7.8568    5.7523   -0.8631 N   0  0  0  0  0  0  0  0  0  0  0  0
    8.9068    4.7719   -0.9465 C   0  0  0  0  0  0  0  0  0  0  0  0
    9.2166    4.3209   -2.0829 O   0  0  0  0  0  0  0  0  0  0  0  0
    9.7205    4.3098    0.2443 C   0  0  1  0  0  0  0  0  0  0  0  0
   10.3250    5.4887    1.0136 C   0  0  0  0  0  0  0  0  0  0  0  0
    8.9284    3.4454    1.1264 N   0  0  0  0  0  0  0  0  0  0  0  0
    8.9456    2.0074    1.0831 C   0  0  0  0  0  0  0  0  0  0  0  0
    8.5905    1.3799    2.1187 O   0  0  0  0  0  0  0  0  0  0  0  0
    9.4469    1.2318   -0.1180 C   0  0  1  0  0  0  0  0  0  0  0  0
   10.8499    0.6742    0.1490 C   0  0  0  0  0  0  0  0  0  0  0  0
    8.5274    0.1550   -0.5203 N   0  0  0  0  0  0  0  0  0  0  0  0
    8.2947   -1.0233    0.2672 C   0  0  0  0  0  0  0  0  0  0  0  0
    7.6195   -0.9457    1.3288 O   0  0  0  0  0  0  0  0  0  0  0  0
    8.7891   -2.3624   -0.2207 C   0  0  1  0  0  0  0  0  0  0  0  0
    9.4096   -3.1891    0.9078 C   0  0  0  0  0  0  0  0  0  0  0  0
    7.7271   -3.0940   -0.9289 N   0  0  0  0  0  0  0  0  0  0  0  0
    6.4234   -3.3428   -0.3849 C   0  0  0  0  0  0  0  0  0  0  0  0
    5.4315   -2.7374   -0.8745 O   0  0  0  0  0  0  0  0  0  0  0  0
    6.2098   -4.3893    0.6807 C   0  0  1  0  0  0  0  0  0  0  0  0
    5.5019   -3.8165    1.9120 C   0  0  0  0  0  0  0  0  0  0  0  0
    5.4997   -5.5577    0.1431 N   0  0  0  0  0  0  0  0  0  0  0  0
    4.0723   -5.6160   -0.0559 C   0  0  0  0  0  0  0  0  0  0  0  0
    3.4513   -4.5892   -0.4433 O   0  0  0  0  0  0  0  0  0  0  0  0
    3.2666   -6.8758    0.1941 C   0  0  1  0  0  0  0  0  0  0  0  0
    4.1214   -8.0692    0.6318 C   0  0  0  0  0  0  0  0  0  0  0  0
    2.2702   -6.6053    1.2371 N   0  0  0  0  0  0  0  0  0  0  0  0
    0.8588   -6.8990    1.1750 C   0  0  0  0  0  0  0  0  0  0  0  0
    0.1868   -6.8026    2.2379 O   0  0  0  0  0  0  0  0  0  0  0  0
    0.1623   -7.3478   -0.1011 C   0  0  1  0  0  0  0  0  0  0  0  0
    0.4075   -8.8414   -0.3467 C   0  0  0  0  0  0  0  0  0  0  0  0
   -1.2891   -7.1182    0.0052 N   0  0  0  0  0  0  0  0  0  0  0  0
   -2.1278   -6.6647   -1.0701 C   0  0  0  0  0  0  0  0  0  0  0  0
   -3.3381   -7.0092   -1.0779 O   0  0  0  0  0  0  0  0  0  0  0  0
   -1.6084   -5.8012   -2.1952 C   0  0  1  0  0  0  0  0  0  0  0  0
   -1.1572   -6.6945   -3.3563 C   0  0  0  0  0  0  0  0  0  0  0  0
   -2.6495   -4.8699   -2.6558 N   0  0  0  0  0  0  0  0  0  0  0  0
   -2.8412   -3.5823   -2.0555 C   0  0  0  0  0  0  0  0  0  0  0  0
   -2.6427   -2.5578   -2.7564 O   0  0  0  0  0  0  0  0  0  0  0  0
   -3.4279   -3.4597   -0.6693 C   0  0  1  0  0  0  0  0  0  0  0  0
   -2.8245   -2.3028    0.1662 C   0  0  0  0  0  0  0  0  0  0  0  0
   -3.8233   -0.7582    0.2297 S   0  0  0  0  0  0  0  0  0  0  0  0
   -3.2681   -0.0367   -1.3509 C   0  0  0  0  0  0  0  0  0  0  0  0
   -4.8865   -3.3606   -0.7700 N   0  0  0  0  0  0  0  0  0  0  0  0
   -5.7312   -4.4849   -0.5044 C   0  0  0  0  0  0  0  0  0  0  0  0
   -6.1277   -5.1973   -1.4657 O   0  0  0  0  0  0  0  0  0  0  0  0
   -6.2005   -4.7939    0.8884 C   0  0  1  0  0  0  0  0  0  0  0  0
   -5.1000   -5.4752    1.7102 C   0  0  0  0  0  0  0  0  0  0  0  0
   -6.6423   -3.5659    1.5561 N   0  0  0  0  0  0  0  0  0  0  0  0
   -8.0283   -3.1980    1.6712 C   0  0  0  0  0  0  0  0  0  0  0  0
   -8.4107   -2.5622    2.6912 O   0  0  0  0  0  0  0  0  0  0  0  0
   -9.0233   -3.4985    0.5759 C   0  0  1  0  0  0  0  0  0  0  0  0
  -10.0074   -4.5743    1.0363 C   0  0  0  0  0  0  0  0  0  0  0  0
   -9.7228   -2.2668    0.2109 N   0  0  0  0  0  0  0  0  0  0  0  0
   -9.0513   -1.1968   -0.4638 C   0  0  0  0  0  0  0  0  0  0  0  0
   -8.1359   -1.4601   -1.2880 O   0  0  0  0  0  0  0  0  0  0  0  0
   -9.3152    0.2465   -0.1050 C   0  0  1  0  0  0  0  0  0  0  0  0
  -10.7639    0.4975    0.3151 C   0  0  0  0  0  0  0  0  0  0  0  0
   -8.4070    0.6362    0.9808 N   0  0  0  0  0  0  0  0  0  0  0  0
   -7.9774    1.9780    1.2710 C   0  0  0  0  0  0  0  0  0  0  0  0
   -7.5381    2.2231    2.4278 O   0  0  0  0  0  0  0  0  0  0  0  0
  -11.6783    4.5979    2.4034 H   0  0  0  0  0  0  0  0  0  0  0  0
  -11.0553    6.1663    1.7549 H   0  0  0  0  0  0  0  0  0  0  0  0
  -11.6547    4.8941    0.6195 H   0  0  0  0  0  0  0  0  0  0  0  0
   -9.8753    3.8566   -0.5135 H   0  0  0  0  0  0  0  0  0  0  0  0
   -7.9478    2.6291   -0.7677 H   0  0  0  0  0  0  0  0  0  0  0  0
   -6.7903    4.5487    1.3229 H   0  0  0  0  0  0  0  0  0  0  0  0
   -5.8601    3.3661    0.4033 H   0  0  0  0  0  0  0  0  0  0  0  0
   -6.7017    3.3959   -2.6144 H   0  0  0  0  0  0  0  0  0  0  0  0
   -5.7150    4.7683   -3.1789 H   0  0  0  0  0  0  0  0  0  0  0  0
   -5.3738    1.4680   -2.2060 H   0  0  0  0  0  0  0  0  0  0  0  0
   -1.5258    1.7662   -0.3144 H   0  0  0  0  0  0  0  0  0  0  0  0
   -3.6879    5.3321   -1.3944 H   0  0  0  0  0  0  0  0  0  0  0  0
   -1.4816    4.5007    0.8978 H   0  0  0  0  0  0  0  0  0  0  0  0
   -1.5425    5.5695   -0.5491 H   0  0  0  0  0  0  0  0  0  0  0  0
    0.4337    6.0938   -1.7783 H   0  0  0  0  0  0  0  0  0  0  0  0
    2.0341    5.4014   -1.4391 H   0  0  0  0  0  0  0  0  0  0  0  0
    0.1211    6.5377    0.7015 H   0  0  0  0  0  0  0  0  0  0  0  0
    1.6738    7.5885    2.7028 H   0  0  0  0  0  0  0  0  0  0  0  0
    2.7696    6.3121    3.3451 H   0  0  0  0  0  0  0  0  0  0  0  0
    0.7445    8.5588   -0.0875 H   0  0  0  0  0  0  0  0  0  0  0  0
    3.7541    6.4393   -0.5760 H   0  0  0  0  0  0  0  0  0  0  0  0
    5.0484    8.8239   -2.0124 H   0  0  0  0  0  0  0  0  0  0  0  0
    3.8121    7.7269   -2.7482 H   0  0  0  0  0  0  0  0  0  0  0  0
    5.4034    7.0714   -2.2534 H   0  0  0  0  0  0  0  0  0  0  0  0
    4.8750    8.4521    1.1647 H   0  0  0  0  0  0  0  0  0  0  0  0
    7.4170    5.6736    1.2072 H   0  0  0  0  0  0  0  0  0  0  0  0
    5.3314    4.9024   -0.8928 H   0  0  0  0  0  0  0  0  0  0  0  0
    6.2301    3.8267    0.2154 H   0  0  0  0  0  0  0  0  0  0  0  0
    5.0579    4.9834    0.9124 H   0  0  0  0  0  0  0  0  0  0  0  0
    7.5901    6.2156   -1.7631 H   0  0  0  0  0  0  0  0  0  0  0  0
   10.5961    3.7395   -0.1347 H   0  0  0  0  0  0  0  0  0  0  0  0
   10.8841    6.1583    0.3231 H   0  0  0  0  0  0  0  0  0  0  0  0
    9.5524    6.0910    1.5361 H   0  0  0  0  0  0  0  0  0  0  0  0
   11.0324    5.1081    1.7831 H   0  0  0  0  0  0  0  0  0  0  0  0
    8.4683    3.8749    1.9630 H   0  0  0  0  0  0  0  0  0  0  0  0
    9.5299    1.9195   -0.9874 H   0  0  0  0  0  0  0  0  0  0  0  0
   11.5581    1.5035    0.3522 H   0  0  0  0  0  0  0  0  0  0  0  0
   11.2113    0.1177   -0.7411 H   0  0  0  0  0  0  0  0  0  0  0  0
   10.8422   -0.0085    1.0246 H   0  0  0  0  0  0  0  0  0  0  0  0
    8.3382    0.0644   -1.5421 H   0  0  0  0  0  0  0  0  0  0  0  0
    9.6105   -2.1658   -0.9466 H   0  0  0  0  0  0  0  0  0  0  0  0
    9.6670   -4.2045    0.5404 H   0  0  0  0  0  0  0  0  0  0  0  0
   10.3464   -2.7013    1.2602 H   0  0  0  0  0  0  0  0  0  0  0  0
    8.7262   -3.2718    1.7797 H   0  0  0  0  0  0  0  0  0  0  0  0
    7.8149   -3.1513   -1.9683 H   0  0  0  0  0  0  0  0  0  0  0  0
    7.2020   -4.7507    1.0212 H   0  0  0  0  0  0  0  0  0  0  0  0
    6.1302   -3.0306    2.3808 H   0  0  0  0  0  0  0  0  0  0  0  0
    4.5234   -3.3673    1.6405 H   0  0  0  0  0  0  0  0  0  0  0  0
    5.3303   -4.6175    2.6614 H   0  0  0  0  0  0  0  0  0  0  0  0
    6.0556   -6.4332    0.0389 H   0  0  0  0  0  0  0  0  0  0  0  0
    2.7784   -7.1450   -0.7651 H   0  0  0  0  0  0  0  0  0  0  0  0
    3.4696   -8.9384    0.8721 H   0  0  0  0  0  0  0  0  0  0  0  0
    4.8103   -8.3763   -0.1827 H   0  0  0  0  0  0  0  0  0  0  0  0
    4.7033   -7.8215    1.5454 H   0  0  0  0  0  0  0  0  0  0  0  0
    2.6363   -6.2442    2.1513 H   0  0  0  0  0  0  0  0  0  0  0  0
    0.5830   -6.7710   -0.9481 H   0  0  0  0  0  0  0  0  0  0  0  0
    1.4911   -9.0545   -0.4838 H   0  0  0  0  0  0  0  0  0  0  0  0
    0.0272   -9.4426    0.5129 H   0  0  0  0  0  0  0  0  0  0  0  0
   -0.1231   -9.1569   -1.2731 H   0  0  0  0  0  0  0  0  0  0  0  0
   -1.7815   -7.5571    0.8185 H   0  0  0  0  0  0  0  0  0  0  0  0
   -0.7381   -5.2038   -1.8436 H   0  0  0  0  0  0  0  0  0  0  0  0
   -0.3347   -7.3689   -3.0425 H   0  0  0  0  0  0  0  0  0  0  0  0
   -2.0061   -7.3153   -3.7165 H   0  0  0  0  0  0  0  0  0  0  0  0
   -0.7983   -6.0689   -4.1984 H   0  0  0  0  0  0  0  0  0  0  0  0
   -3.0529   -5.0013   -3.6125 H   0  0  0  0  0  0  0  0  0  0  0  0
   -3.1663   -4.3949   -0.1300 H   0  0  0  0  0  0  0  0  0  0  0  0
   -1.7811   -2.0821   -0.1493 H   0  0  0  0  0  0  0  0  0  0  0  0
   -2.7516   -2.6447    1.2210 H   0  0  0  0  0  0  0  0  0  0  0  0
   -3.8888   -0.4549   -2.1704 H   0  0  0  0  0  0  0  0  0  0  0  0
   -2.2058   -0.2930   -1.5490 H   0  0  0  0  0  0  0  0  0  0  0  0
   -5.2923   -2.5959   -1.3566 H   0  0  0  0  0  0  0  0  0  0  0  0
   -7.0467   -5.5114    0.8309 H   0  0  0  0  0  0  0  0  0  0  0  0
   -5.5089   -5.7801    2.6978 H   0  0  0  0  0  0  0  0  0  0  0  0
   -4.7421   -6.3856    1.1847 H   0  0  0  0  0  0  0  0  0  0  0  0
   -4.2484   -4.7859    1.8838 H   0  0  0  0  0  0  0  0  0  0  0  0
   -5.9412   -2.9913    2.0797 H   0  0  0  0  0  0  0  0  0  0  0  0
   -8.4974   -3.8867   -0.3227 H   0  0  0  0  0  0  0  0  0  0  0  0
  -10.6876   -4.8463    0.2031 H   0  0  0  0  0  0  0  0  0  0  0  0
   -9.4657   -5.4877    1.3617 H   0  0  0  0  0  0  0  0  0  0  0  0
  -10.6203   -4.2020    1.8909 H   0  0  0  0  0  0  0  0  0  0  0  0
  -10.7695   -2.2277    0.2877 H   0  0  0  0  0  0  0  0  0  0  0  0
   -9.1194    0.8474   -1.0162 H   0  0  0  0  0  0  0  0  0  0  0  0
  -10.9922   -0.0379    1.2604 H   0  0  0  0  0  0  0  0  0  0  0  0
  -10.9268    1.5836    0.4843 H   0  0  0  0  0  0  0  0  0  0  0  0
  -11.4606    0.1609   -0.4813 H   0  0  0  0  0  0  0  0  0  0  0  0
   -8.1702   -0.0870    1.7007 H   0  0  0  0  0  0  0  0  0  0  0  0
  1  2  1  0
  2  3  2  0
  2  4  1  0
  4  5  1  0
  5  6  1  0
  6  7  1  0
  7  8  1  0
  8  9  1  0
  9 10  1  0
 10 11  2  0
 11 12  1  0
 12 13  2  0
 13 14  1  0
 13 15  1  0
 15 16  1  0
 16 17  1  0
 17 18  1  0
 18 19  1  0
 19 20  1  0
 19 21  2  0
 18 22  1  0
 22 23  1  0
 23 24  2  0
 23 25  1  0
 25 26  1  0
 25 27  1  0
 27 28  1  0
 28 29  2  0
 28 30  1  0
 30 31  1  0
 30 32  1  0
 32 33  1  0
 33 34  2  0
 33 35  1  0
 35 36  1  0
 35 37  1  0
 37 38  1  0
 38 39  2  0
 38 40  1  0
 40 41  1  0
 40 42  1  0
 42 43  1  0
 43 44  2  0
 43 45  1  0
 45 46  1  0
 45 47  1  0
 47 48  1  0
 48 49  2  0
 48 50  1  0
 50 51  1  0
 50 52  1  0
 52 53  1  0
 53 54  2  0
 53 55  1  0
 55 56  1  0
 55 57  1  0
 57 58  1  0
 58 59  2  0
 58 60  1  0
 60 61  1  0
 60 62  1  0
 62 63  1  0
 63 64  2  0
 63 65  1  0
 65 66  1  0
 65 67  1  0
 67 68  1  0
 68 69  2  0
 68 70  1  0
 70 71  1  0
 71 72  1  0
 72 73  1  0
 70 74  1  0
 74 75  1  0
 75 76  2  0
 75 77  1  0
 77 78  1  0
 77 79  1  0
 79 80  1  0
 80 81  2  0
 80 82  1  0
 82 83  1  0
 82 84  1  0
 84 85  1  0
 85 86  2  0
 85 87  1  0
 87 88  1  0
 87 89  1  0
 89 90  1  0
 90 91  2  0
 90  5  1  0
 14  9  2  0
 73 11  1  0
  1 92  1  0
  1 93  1  0
  1 94  1  0
  4 95  1  0
  5 96  1  6
  6 97  1  0
  6 98  1  0
  8 99  1  0
  8100  1  0
 10101  1  0
 12102  1  0
 14103  1  0
 15104  1  0
 15105  1  0
 17106  1  0
 17107  1  0
 18108  1  1
 20109  1  0
 20110  1  0
 22111  1  0
 25112  1  6
 26113  1  0
 26114  1  0
 26115  1  0
 27116  1  0
 30117  1  1
 31118  1  0
 31119  1  0
 31120  1  0
 32121  1  0
 35122  1  6
 36123  1  0
 36124  1  0
 36125  1  0
 37126  1  0
 40127  1  6
 41128  1  0
 41129  1  0
 41130  1  0
 42131  1  0
 45132  1  6
 46133  1  0
 46134  1  0
 46135  1  0
 47136  1  0
 50137  1  1
 51138  1  0
 51139  1  0
 51140  1  0
 52141  1  0
 55142  1  6
 56143  1  0
 56144  1  0
 56145  1  0
 57146  1  0
 60147  1  6
 61148  1  0
 61149  1  0
 61150  1  0
 62151  1  0
 65152  1  1
 66153  1  0
 66154  1  0
 66155  1  0
 67156  1  0
 70157  1  1
 71158  1  0
 71159  1  0
 73160  1  0
 73161  1  0
 74162  1  0
 77163  1  6
 78164  1  0
 78165  1  0
 78166  1  0
 79167  1  0
 82168  1  6
 83169  1  0
 83170  1  0
 83171  1  0
 84172  1  0
 87173  1  6
 88174  1  0
 88175  1  0
 88176  1  0
 89177  1  0
M  END
