
     RDKit          3D

117119  0  0  0  0  0  0  0  0999 V2000
    8.2243    6.0719   -0.7910 C   0  0  0  0  0  0  0  0  0  0  0  0
    7.1617    5.0322   -0.9620 C   0  0  0  0  0  0  0  0  0  0  0  0
    6.1250    5.3178   -1.6211 O   0  0  0  0  0  0  0  0  0  0  0  0
    7.3148    3.7293   -0.3746 N   0  0  0  0  0  0  0  0  0  0  0  0
    6.1783    2.8091   -0.2195 C   0  0  2  0  0  0  0  0  0  0  0  0
    5.4278    3.1905    1.0744 C   0  0  0  0  0  0  0  0  0  0  0  0
    3.6936    2.5981    1.0797 S   0  0  0  0  0  0  0  0  0  0  0  0
    3.0058    3.9493    0.0562 C   0  0  0  0  0  0  0  0  0  0  0  0
    1.6044    3.5946   -0.3476 C   0  0  0  0  0  0  0  0  0  0  0  0
    0.5078    4.3044    0.1754 C   0  0  0  0  0  0  0  0  0  0  0  0
   -0.8034    3.8980   -0.1179 C   0  0  0  0  0  0  0  0  0  0  0  0
   -1.0075    2.7817   -0.9411 C   0  0  0  0  0  0  0  0  0  0  0  0
    0.0759    2.0619   -1.4611 C   0  0  0  0  0  0  0  0  0  0  0  0
    1.3819    2.4830   -1.1709 C   0  0  0  0  0  0  0  0  0  0  0  0
   -0.1617    0.7277   -2.1030 C   0  0  0  0  0  0  0  0  0  0  0  0
   -0.4732   -0.4632   -0.7639 S   0  0  0  0  0  0  0  0  0  0  0  0
   -0.2556   -1.9524   -1.7870 C   0  0  0  0  0  0  0  0  0  0  0  0
   -0.8027   -3.1833   -1.0571 C   0  0  2  0  0  0  0  0  0  0  0  0
   -0.4133   -4.3982   -1.7804 N   0  0  0  0  0  0  0  0  0  0  0  0
    0.8865   -5.0105   -1.6843 C   0  0  0  0  0  0  0  0  0  0  0  0
    1.2730   -5.7507   -2.6313 O   0  0  0  0  0  0  0  0  0  0  0  0
    1.7697   -4.8391   -0.4631 C   0  0  1  0  0  0  0  0  0  0  0  0
    1.2305   -5.6795    0.6963 C   0  0  0  0  0  0  0  0  0  0  0  0
    3.1440   -5.2463   -0.7709 N   0  0  0  0  0  0  0  0  0  0  0  0
    4.1550   -4.2833   -1.0970 C   0  0  0  0  0  0  0  0  0  0  0  0
    4.4731   -4.1243   -2.3055 O   0  0  0  0  0  0  0  0  0  0  0  0
    4.7988   -3.4205   -0.0321 C   0  0  1  0  0  0  0  0  0  0  0  0
    4.8778   -4.1617    1.3073 C   0  0  0  0  0  0  0  0  0  0  0  0
    6.1571   -3.0316   -0.4437 N   0  0  0  0  0  0  0  0  0  0  0  0
    6.8815   -1.8878    0.0484 C   0  0  0  0  0  0  0  0  0  0  0  0
    8.0643   -1.7186   -0.3489 O   0  0  0  0  0  0  0  0  0  0  0  0
    6.2711   -0.8659    0.9817 C   0  0  1  0  0  0  0  0  0  0  0  0
    7.2316   -0.4700    2.1112 C   0  0  0  0  0  0  0  0  0  0  0  0
    5.8114    0.3084    0.2315 N   0  0  0  0  0  0  0  0  0  0  0  0
    6.6713    1.3734   -0.1992 C   0  0  0  0  0  0  0  0  0  0  0  0
    7.8151    1.0990   -0.6686 O   0  0  0  0  0  0  0  0  0  0  0  0
   -2.3058   -3.1102   -0.9489 C   0  0  0  0  0  0  0  0  0  0  0  0
   -3.0197   -3.1947   -1.9802 O   0  0  0  0  0  0  0  0  0  0  0  0
   -2.9230   -2.8725    0.3174 N   0  0  0  0  0  0  0  0  0  0  0  0
   -3.6860   -3.8980    1.0370 C   0  0  2  0  0  0  0  0  0  0  0  0
   -2.7167   -4.9486    1.6024 C   0  0  0  0  0  0  0  0  0  0  0  0
   -4.7408   -4.5095    0.1334 C   0  0  0  0  0  0  0  0  0  0  0  0
   -4.6332   -5.7181   -0.2139 O   0  0  0  0  0  0  0  0  0  0  0  0
   -5.8219   -3.7389   -0.4225 N   0  0  0  0  0  0  0  0  0  0  0  0
   -6.2725   -2.4185    0.0402 C   0  0  2  0  0  0  0  0  0  0  0  0
   -7.7461   -2.5415    0.4521 C   0  0  0  0  0  0  0  0  0  0  0  0
   -6.0710   -1.3907   -1.0629 C   0  0  0  0  0  0  0  0  0  0  0  0
   -5.8017   -1.7937   -2.2244 O   0  0  0  0  0  0  0  0  0  0  0  0
   -6.0970    0.0304   -0.8354 N   0  0  0  0  0  0  0  0  0  0  0  0
   -6.6891    0.7130    0.3207 C   0  0  2  0  0  0  0  0  0  0  0  0
   -8.1369    1.0836   -0.0127 C   0  0  0  0  0  0  0  0  0  0  0  0
   -5.8264    1.9049    0.6955 C   0  0  0  0  0  0  0  0  0  0  0  0
   -4.6833    1.6778    1.1763 O   0  0  0  0  0  0  0  0  0  0  0  0
   -6.2528    3.2727    0.5053 N   0  0  0  0  0  0  0  0  0  0  0  0
   -5.3010    4.3875    0.5707 C   0  0  2  0  0  0  0  0  0  0  0  0
   -6.0133    5.7117    0.6966 C   0  0  0  0  0  0  0  0  0  0  0  0
   -5.4703    6.7438    1.5234 N   0  0  0  0  0  0  0  0  0  0  0  0
   -7.0603    5.9405    0.0306 O   0  0  0  0  0  0  0  0  0  0  0  0
   -4.4099    4.3763   -0.6883 C   0  0  0  0  0  0  0  0  0  0  0  0
   -2.9777    5.5226   -0.5571 S   0  0  0  0  0  0  0  0  0  0  0  0
   -1.9738    4.5125    0.5906 C   0  0  0  0  0  0  0  0  0  0  0  0
    9.0867    5.6691   -0.2215 H   0  0  0  0  0  0  0  0  0  0  0  0
    7.8053    6.9366   -0.2354 H   0  0  0  0  0  0  0  0  0  0  0  0
    8.5753    6.4161   -1.7877 H   0  0  0  0  0  0  0  0  0  0  0  0
    8.1770    3.5498    0.1885 H   0  0  0  0  0  0  0  0  0  0  0  0
    5.5123    2.9013   -1.1001 H   0  0  0  0  0  0  0  0  0  0  0  0
    5.9501    2.7638    1.9544 H   0  0  0  0  0  0  0  0  0  0  0  0
    5.4180    4.2979    1.2063 H   0  0  0  0  0  0  0  0  0  0  0  0
    3.0231    4.8858    0.6563 H   0  0  0  0  0  0  0  0  0  0  0  0
    3.6134    4.1078   -0.8564 H   0  0  0  0  0  0  0  0  0  0  0  0
    0.6732    5.1185    0.8682 H   0  0  0  0  0  0  0  0  0  0  0  0
   -2.0095    2.4124   -1.1113 H   0  0  0  0  0  0  0  0  0  0  0  0
    2.2251    1.9019   -1.5244 H   0  0  0  0  0  0  0  0  0  0  0  0
   -1.0429    0.7736   -2.7775 H   0  0  0  0  0  0  0  0  0  0  0  0
    0.7217    0.4139   -2.7011 H   0  0  0  0  0  0  0  0  0  0  0  0
    0.8321   -2.0778   -1.9642 H   0  0  0  0  0  0  0  0  0  0  0  0
   -0.7606   -1.8323   -2.7759 H   0  0  0  0  0  0  0  0  0  0  0  0
   -0.3894   -3.2088   -0.0321 H   0  0  0  0  0  0  0  0  0  0  0  0
   -0.9954   -4.6743   -2.6038 H   0  0  0  0  0  0  0  0  0  0  0  0
    1.7731   -3.7698   -0.1587 H   0  0  0  0  0  0  0  0  0  0  0  0
    1.8534   -5.5330    1.5987 H   0  0  0  0  0  0  0  0  0  0  0  0
    1.2336   -6.7584    0.4303 H   0  0  0  0  0  0  0  0  0  0  0  0
    0.1972   -5.3770    0.9438 H   0  0  0  0  0  0  0  0  0  0  0  0
    3.3170   -6.2385   -1.0495 H   0  0  0  0  0  0  0  0  0  0  0  0
    4.1618   -2.5174    0.0808 H   0  0  0  0  0  0  0  0  0  0  0  0
    3.8627   -4.3548    1.7116 H   0  0  0  0  0  0  0  0  0  0  0  0
    5.4147   -5.1319    1.1834 H   0  0  0  0  0  0  0  0  0  0  0  0
    5.4288   -3.5588    2.0604 H   0  0  0  0  0  0  0  0  0  0  0  0
    6.6952   -3.6951   -1.0461 H   0  0  0  0  0  0  0  0  0  0  0  0
    5.3906   -1.3038    1.4894 H   0  0  0  0  0  0  0  0  0  0  0  0
    8.1787   -0.0528    1.7090 H   0  0  0  0  0  0  0  0  0  0  0  0
    7.4682   -1.3604    2.7292 H   0  0  0  0  0  0  0  0  0  0  0  0
    6.7565    0.2932    2.7617 H   0  0  0  0  0  0  0  0  0  0  0  0
    4.7981    0.3533   -0.0122 H   0  0  0  0  0  0  0  0  0  0  0  0
   -2.8495   -1.9128    0.7308 H   0  0  0  0  0  0  0  0  0  0  0  0
   -4.1903   -3.4316    1.9095 H   0  0  0  0  0  0  0  0  0  0  0  0
   -1.9817   -4.4625    2.2716 H   0  0  0  0  0  0  0  0  0  0  0  0
   -2.1697   -5.4454    0.7784 H   0  0  0  0  0  0  0  0  0  0  0  0
   -3.2787   -5.7085    2.1834 H   0  0  0  0  0  0  0  0  0  0  0  0
   -6.3711   -4.1877   -1.1899 H   0  0  0  0  0  0  0  0  0  0  0  0
   -5.6881   -2.0979    0.9238 H   0  0  0  0  0  0  0  0  0  0  0  0
   -7.8798   -3.4322    1.1090 H   0  0  0  0  0  0  0  0  0  0  0  0
   -8.3966   -2.6693   -0.4461 H   0  0  0  0  0  0  0  0  0  0  0  0
   -8.0884   -1.6629    1.0325 H   0  0  0  0  0  0  0  0  0  0  0  0
   -5.8105    0.6342   -1.6419 H   0  0  0  0  0  0  0  0  0  0  0  0
   -6.6892    0.0487    1.2100 H   0  0  0  0  0  0  0  0  0  0  0  0
   -8.7291    0.1732   -0.2257 H   0  0  0  0  0  0  0  0  0  0  0  0
   -8.6073    1.6102    0.8460 H   0  0  0  0  0  0  0  0  0  0  0  0
   -8.1715    1.7279   -0.9187 H   0  0  0  0  0  0  0  0  0  0  0  0
   -7.2493    3.4752    0.2649 H   0  0  0  0  0  0  0  0  0  0  0  0
   -4.6803    4.2539    1.4778 H   0  0  0  0  0  0  0  0  0  0  0  0
   -5.9572    7.6642    1.6033 H   0  0  0  0  0  0  0  0  0  0  0  0
   -4.5658    6.5982    2.0270 H   0  0  0  0  0  0  0  0  0  0  0  0
   -5.0189    4.6685   -1.5732 H   0  0  0  0  0  0  0  0  0  0  0  0
   -4.0465    3.3493   -0.8864 H   0  0  0  0  0  0  0  0  0  0  0  0
   -1.6358    5.1725    1.4169 H   0  0  0  0  0  0  0  0  0  0  0  0
   -2.5549    3.6987    1.0662 H   0  0  0  0  0  0  0  0  0  0  0  0
  1  2  1  0
  2  3  2  0
  2  4  1  0
  4  5  1  0
  5  6  1  0
  6  7  1  0
  7  8  1  0
  8  9  1  0
  9 10  2  0
 10 11  1  0
 11 12  2  0
 12 13  1  0
 13 14  2  0
 13 15  1  0
 15 16  1  0
 16 17  1  0
 17 18  1  0
 18 19  1  0
 19 20  1  0
 20 21  2  0
 20 22  1  0
 22 23  1  0
 22 24  1  0
 24 25  1  0
 25 26  2  0
 25 27  1  0
 27 28  1  0
 27 29  1  0
 29 30  1  0
 30 31  2  0
 30 32  1  0
 32 33  1  0
 32 34  1  0
 34 35  1  0
 35 36  2  0
 18 37  1  0
 37 38  2  0
 37 39  1  0
 39 40  1  0
 40 41  1  0
 40 42  1  0
 42 43  2  0
 42 44  1  0
 44 45  1  0
 45 46  1  0
 45 47  1  0
 47 48  2  0
 47 49  1  0
 49 50  1  0
 50 51  1  0
 50 52  1  0
 52 53  2  0
 52 54  1  0
 54 55  1  0
 55 56  1  0
 56 57  1  0
 56 58  2  0
 55 59  1  0
 59 60  1  0
 60 61  1  0
 35  5  1  0
 14  9  1  0
 61 11  1  0
  1 62  1  0
  1 63  1  0
  1 64  1  0
  4 65  1  0
  5 66  1  6
  6 67  1  0
  6 68  1  0
  8 69  1  0
  8 70  1  0
 10 71  1  0
 12 72  1  0
 14 73  1  0
 15 74  1  0
 15 75  1  0
 17 76  1  0
 17 77  1  0
 18 78  1  1
 19 79  1  0
 22 80  1  1
 23 81  1  0
 23 82  1  0
 23 83  1  0
 24 84  1  0
 27 85  1  1
 28 86  1  0
 28 87  1  0
 28 88  1  0
 29 89  1  0
 32 90  1  1
 33 91  1  0
 33 92  1  0
 33 93  1  0
 34 94  1  0
 39 95  1  0
 40 96  1  1
 41 97  1  0
 41 98  1  0
 41 99  1  0
 44100  1  0
 45101  1  1
 46102  1  0
 46103  1  0
 46104  1  0
 49105  1  0
 50106  1  1
 51107  1  0
 51108  1  0
 51109  1  0
 54110  1  0
 55111  1  1
 57112  1  0
 57113  1  0
 59114  1  0
 59115  1  0
 61116  1  0
 61117  1  0
M  END
