
     RDKit          3D

117119  0  0  0  0  0  0  0  0999 V2000
    7.7052    5.7113   -1.7050 C   0  0  0  0  0  0  0  0  0  0  0  0
    6.9988    4.4047   -1.5712 C   0  0  0  0  0  0  0  0  0  0  0  0
    6.8567    3.6792   -2.5911 O   0  0  0  0  0  0  0  0  0  0  0  0
    6.4697    3.9901   -0.3021 N   0  0  0  0  0  0  0  0  0  0  0  0
    5.8188    2.6942   -0.0856 C   0  0  2  0  0  0  0  0  0  0  0  0
    4.4030    2.8694    0.5091 C   0  0  0  0  0  0  0  0  0  0  0  0
    3.5540    4.3869   -0.0703 S   0  0  0  0  0  0  0  0  0  0  0  0
    3.1619    3.8405   -1.7645 C   0  0  0  0  0  0  0  0  0  0  0  0
    1.7917    3.2394   -1.7852 C   0  0  0  0  0  0  0  0  0  0  0  0
    0.6578    4.0635   -1.7525 C   0  0  0  0  0  0  0  0  0  0  0  0
   -0.6259    3.4978   -1.6787 C   0  0  0  0  0  0  0  0  0  0  0  0
   -0.7632    2.1046   -1.6606 C   0  0  0  0  0  0  0  0  0  0  0  0
    0.3662    1.2751   -1.5798 C   0  0  0  0  0  0  0  0  0  0  0  0
    1.6379    1.8451   -1.7095 C   0  0  0  0  0  0  0  0  0  0  0  0
    0.2378   -0.2119   -1.3614 C   0  0  0  0  0  0  0  0  0  0  0  0
   -1.2196   -0.6111   -0.3103 S   0  0  0  0  0  0  0  0  0  0  0  0
   -1.9718   -1.8951   -1.3826 C   0  0  0  0  0  0  0  0  0  0  0  0
   -1.5927   -3.3022   -0.8757 C   0  0  2  0  0  0  0  0  0  0  0  0
   -0.4921   -3.8367   -1.6900 N   0  0  0  0  0  0  0  0  0  0  0  0
    0.7959   -4.2360   -1.1857 C   0  0  0  0  0  0  0  0  0  0  0  0
    1.4131   -5.1512   -1.7970 O   0  0  0  0  0  0  0  0  0  0  0  0
    1.4142   -3.6236    0.0547 C   0  0  1  0  0  0  0  0  0  0  0  0
    1.4038   -4.6256    1.2148 C   0  0  0  0  0  0  0  0  0  0  0  0
    2.7724   -3.1236   -0.2138 N   0  0  0  0  0  0  0  0  0  0  0  0
    3.9451   -3.9444   -0.2681 C   0  0  0  0  0  0  0  0  0  0  0  0
    3.9272   -5.0479   -0.8879 O   0  0  0  0  0  0  0  0  0  0  0  0
    5.2386   -3.4388    0.3329 C   0  0  1  0  0  0  0  0  0  0  0  0
    6.0471   -4.5869    0.9628 C   0  0  0  0  0  0  0  0  0  0  0  0
    6.0451   -2.7665   -0.6947 N   0  0  0  0  0  0  0  0  0  0  0  0
    6.8872   -1.6198   -0.4655 C   0  0  0  0  0  0  0  0  0  0  0  0
    7.8419   -1.4093   -1.2652 O   0  0  0  0  0  0  0  0  0  0  0  0
    6.6655   -0.6521    0.6804 C   0  0  1  0  0  0  0  0  0  0  0  0
    7.2831   -1.1799    1.9846 C   0  0  0  0  0  0  0  0  0  0  0  0
    7.2687    0.6441    0.3609 N   0  0  0  0  0  0  0  0  0  0  0  0
    6.6796    1.8651    0.8311 C   0  0  0  0  0  0  0  0  0  0  0  0
    6.9635    2.2892    1.9834 O   0  0  0  0  0  0  0  0  0  0  0  0
   -2.7821   -4.2362   -0.9303 C   0  0  0  0  0  0  0  0  0  0  0  0
   -3.0108   -4.9046   -1.9706 O   0  0  0  0  0  0  0  0  0  0  0  0
   -3.6401   -4.4224    0.2052 N   0  0  0  0  0  0  0  0  0  0  0  0
   -4.0833   -3.3290    1.0865 C   0  0  2  0  0  0  0  0  0  0  0  0
   -3.2876   -3.3219    2.3919 C   0  0  0  0  0  0  0  0  0  0  0  0
   -5.5577   -3.4748    1.3854 C   0  0  0  0  0  0  0  0  0  0  0  0
   -5.9772   -4.4680    2.0416 O   0  0  0  0  0  0  0  0  0  0  0  0
   -6.4889   -2.4608    0.9751 N   0  0  0  0  0  0  0  0  0  0  0  0
   -7.0964   -2.4098   -0.3638 C   0  0  2  0  0  0  0  0  0  0  0  0
   -6.2091   -3.0188   -1.4612 C   0  0  0  0  0  0  0  0  0  0  0  0
   -7.4784   -0.9921   -0.7431 C   0  0  0  0  0  0  0  0  0  0  0  0
   -8.4790   -0.8272   -1.4917 O   0  0  0  0  0  0  0  0  0  0  0  0
   -6.6291    0.1336   -0.4508 N   0  0  0  0  0  0  0  0  0  0  0  0
   -6.4116    0.6575    0.9092 C   0  0  2  0  0  0  0  0  0  0  0  0
   -7.7594    0.9504    1.5840 C   0  0  0  0  0  0  0  0  0  0  0  0
   -5.4907    1.8635    0.8622 C   0  0  0  0  0  0  0  0  0  0  0  0
   -4.2682    1.6482    0.6486 O   0  0  0  0  0  0  0  0  0  0  0  0
   -5.9695    3.2233    1.0332 N   0  0  0  0  0  0  0  0  0  0  0  0
   -5.1167    4.4158    1.1772 C   0  0  1  0  0  0  0  0  0  0  0  0
   -4.3783    4.4136    2.5035 C   0  0  0  0  0  0  0  0  0  0  0  0
   -4.0018    5.6504    3.0996 N   0  0  0  0  0  0  0  0  0  0  0  0
   -4.0486    3.3311    3.0619 O   0  0  0  0  0  0  0  0  0  0  0  0
   -4.1872    4.6109   -0.0569 C   0  0  0  0  0  0  0  0  0  0  0  0
   -2.4814    4.0106    0.2210 S   0  0  0  0  0  0  0  0  0  0  0  0
   -1.8419    4.3520   -1.4545 C   0  0  0  0  0  0  0  0  0  0  0  0
    7.8050    6.2095   -0.7202 H   0  0  0  0  0  0  0  0  0  0  0  0
    8.7186    5.5400   -2.1374 H   0  0  0  0  0  0  0  0  0  0  0  0
    7.1278    6.3795   -2.3805 H   0  0  0  0  0  0  0  0  0  0  0  0
    6.5824    4.6332    0.5172 H   0  0  0  0  0  0  0  0  0  0  0  0
    5.7327    2.1499   -1.0520 H   0  0  0  0  0  0  0  0  0  0  0  0
    3.7826    1.9809    0.2782 H   0  0  0  0  0  0  0  0  0  0  0  0
    4.4671    2.9585    1.6176 H   0  0  0  0  0  0  0  0  0  0  0  0
    3.9198    3.1322   -2.1484 H   0  0  0  0  0  0  0  0  0  0  0  0
    3.1821    4.7314   -2.4250 H   0  0  0  0  0  0  0  0  0  0  0  0
    0.7757    5.1351   -1.7240 H   0  0  0  0  0  0  0  0  0  0  0  0
   -1.7625    1.6873   -1.5995 H   0  0  0  0  0  0  0  0  0  0  0  0
    2.5133    1.2068   -1.6872 H   0  0  0  0  0  0  0  0  0  0  0  0
    0.2462   -0.7391   -2.3355 H   0  0  0  0  0  0  0  0  0  0  0  0
    1.1260   -0.5620   -0.7848 H   0  0  0  0  0  0  0  0  0  0  0  0
   -1.7053   -1.7613   -2.4560 H   0  0  0  0  0  0  0  0  0  0  0  0
   -3.0662   -1.7382   -1.3498 H   0  0  0  0  0  0  0  0  0  0  0  0
   -1.2893   -3.2589    0.1862 H   0  0  0  0  0  0  0  0  0  0  0  0
   -0.6820   -4.0215   -2.7076 H   0  0  0  0  0  0  0  0  0  0  0  0
    0.8095   -2.7466    0.3789 H   0  0  0  0  0  0  0  0  0  0  0  0
    1.8652   -4.1627    2.1166 H   0  0  0  0  0  0  0  0  0  0  0  0
    0.3612   -4.9165    1.4670 H   0  0  0  0  0  0  0  0  0  0  0  0
    1.9766   -5.5461    0.9577 H   0  0  0  0  0  0  0  0  0  0  0  0
    2.9236   -2.0945   -0.1076 H   0  0  0  0  0  0  0  0  0  0  0  0
    4.9673   -2.7307    1.1384 H   0  0  0  0  0  0  0  0  0  0  0  0
    5.4630   -5.0488    1.7888 H   0  0  0  0  0  0  0  0  0  0  0  0
    7.0190   -4.2049    1.3652 H   0  0  0  0  0  0  0  0  0  0  0  0
    6.2796   -5.3684    0.2065 H   0  0  0  0  0  0  0  0  0  0  0  0
    6.1841   -3.2741   -1.5994 H   0  0  0  0  0  0  0  0  0  0  0  0
    5.5650   -0.5078    0.8288 H   0  0  0  0  0  0  0  0  0  0  0  0
    8.3371   -1.5172    1.8154 H   0  0  0  0  0  0  0  0  0  0  0  0
    7.2847   -0.3760    2.7534 H   0  0  0  0  0  0  0  0  0  0  0  0
    6.6956   -2.0277    2.3999 H   0  0  0  0  0  0  0  0  0  0  0  0
    8.3105    0.6622    0.2143 H   0  0  0  0  0  0  0  0  0  0  0  0
   -4.1083   -5.3608    0.3144 H   0  0  0  0  0  0  0  0  0  0  0  0
   -3.9342   -2.3500    0.5837 H   0  0  0  0  0  0  0  0  0  0  0  0
   -3.6221   -2.4674    3.0219 H   0  0  0  0  0  0  0  0  0  0  0  0
   -2.2027   -3.2155    2.1973 H   0  0  0  0  0  0  0  0  0  0  0  0
   -3.4492   -4.2659    2.9533 H   0  0  0  0  0  0  0  0  0  0  0  0
   -7.0968   -2.0860    1.7400 H   0  0  0  0  0  0  0  0  0  0  0  0
   -8.0325   -3.0165   -0.3351 H   0  0  0  0  0  0  0  0  0  0  0  0
   -5.2431   -2.4773   -1.5273 H   0  0  0  0  0  0  0  0  0  0  0  0
   -6.0145   -4.0924   -1.2560 H   0  0  0  0  0  0  0  0  0  0  0  0
   -6.7164   -2.9422   -2.4475 H   0  0  0  0  0  0  0  0  0  0  0  0
   -6.3968    0.7709   -1.2537 H   0  0  0  0  0  0  0  0  0  0  0  0
   -5.8874   -0.1048    1.5160 H   0  0  0  0  0  0  0  0  0  0  0  0
   -8.3841    1.6014    0.9357 H   0  0  0  0  0  0  0  0  0  0  0  0
   -7.6085    1.4429    2.5768 H   0  0  0  0  0  0  0  0  0  0  0  0
   -8.3125    0.0036    1.7643 H   0  0  0  0  0  0  0  0  0  0  0  0
   -6.9946    3.3773    1.1243 H   0  0  0  0  0  0  0  0  0  0  0  0
   -5.7896    5.3012    1.1986 H   0  0  0  0  0  0  0  0  0  0  0  0
   -3.0547    5.7549    3.5365 H   0  0  0  0  0  0  0  0  0  0  0  0
   -4.6239    6.4931    3.0166 H   0  0  0  0  0  0  0  0  0  0  0  0
   -4.1247    5.6871   -0.3041 H   0  0  0  0  0  0  0  0  0  0  0  0
   -4.6228    4.0884   -0.9336 H   0  0  0  0  0  0  0  0  0  0  0  0
   -1.6009    5.4310   -1.5383 H   0  0  0  0  0  0  0  0  0  0  0  0
   -2.6070    4.0911   -2.2226 H   0  0  0  0  0  0  0  0  0  0  0  0
  1  2  1  0
  2  3  2  0
  2  4  1  0
  4  5  1  0
  5  6  1  0
  6  7  1  0
  7  8  1  0
  8  9  1  0
  9 10  2  0
 10 11  1  0
 11 12  2  0
 12 13  1  0
 13 14  2  0
 13 15  1  0
 15 16  1  0
 16 17  1  0
 17 18  1  0
 18 19  1  0
 19 20  1  0
 20 21  2  0
 20 22  1  0
 22 23  1  0
 22 24  1  0
 24 25  1  0
 25 26  2  0
 25 27  1  0
 27 28  1  0
 27 29  1  0
 29 30  1  0
 30 31  2  0
 30 32  1  0
 32 33  1  0
 32 34  1  0
 34 35  1  0
 35 36  2  0
 18 37  1  0
 37 38  2  0
 37 39  1  0
 39 40  1  0
 40 41  1  0
 40 42  1  0
 42 43  2  0
 42 44  1  0
 44 45  1  0
 45 46  1  0
 45 47  1  0
 47 48  2  0
 47 49  1  0
 49 50  1  0
 50 51  1  0
 50 52  1  0
 52 53  2  0
 52 54  1  0
 54 55  1  0
 55 56  1  0
 56 57  1  0
 56 58  2  0
 55 59  1  0
 59 60  1  0
 60 61  1  0
 35  5  1  0
 14  9  1  0
 61 11  1  0
  1 62  1  0
  1 63  1  0
  1 64  1  0
  4 65  1  0
  5 66  1  6
  6 67  1  0
  6 68  1  0
  8 69  1  0
  8 70  1  0
 10 71  1  0
 12 72  1  0
 14 73  1  0
 15 74  1  0
 15 75  1  0
 17 76  1  0
 17 77  1  0
 18 78  1  1
 19 79  1  0
 22 80  1  1
 23 81  1  0
 23 82  1  0
 23 83  1  0
 24 84  1  0
 27 85  1  1
 28 86  1  0
 28 87  1  0
 28 88  1  0
 29 89  1  0
 32 90  1  1
 33 91  1  0
 33 92  1  0
 33 93  1  0
 34 94  1  0
 39 95  1  0
 40 96  1  6
 41 97  1  0
 41 98  1  0
 41 99  1  0
 44100  1  0
 45101  1  1
 46102  1  0
 46103  1  0
 46104  1  0
 49105  1  0
 50106  1  1
 51107  1  0
 51108  1  0
 51109  1  0
 54110  1  0
 55111  1  1
 57112  1  0
 57113  1  0
 59114  1  0
 59115  1  0
 61116  1  0
 61117  1  0
M  END
