
     RDKit          3D

137139  0  0  0  0  0  0  0  0999 V2000
   11.2026   -1.0728   -2.1706 C   0  0  0  0  0  0  0  0  0  0  0  0
    9.7649   -0.7888   -1.8768 C   0  0  0  0  0  0  0  0  0  0  0  0
    9.0283   -0.3590   -2.8060 O   0  0  0  0  0  0  0  0  0  0  0  0
    9.2284   -1.0121   -0.5605 N   0  0  0  0  0  0  0  0  0  0  0  0
    7.8232   -0.8162   -0.1864 C   0  0  2  0  0  0  0  0  0  0  0  0
    6.8865   -1.7744   -0.9499 C   0  0  0  0  0  0  0  0  0  0  0  0
    7.3395   -3.5394   -0.7183 S   0  0  0  0  0  0  0  0  0  0  0  0
    6.7566   -3.7500    1.0097 C   0  0  0  0  0  0  0  0  0  0  0  0
    5.2767   -3.5151    1.1321 C   0  0  0  0  0  0  0  0  0  0  0  0
    4.3720   -4.4376    0.5836 C   0  0  0  0  0  0  0  0  0  0  0  0
    2.9900   -4.2447    0.7214 C   0  0  0  0  0  0  0  0  0  0  0  0
    2.5147   -3.1193    1.4157 C   0  0  0  0  0  0  0  0  0  0  0  0
    3.4093   -2.1602    1.9189 C   0  0  0  0  0  0  0  0  0  0  0  0
    4.7876   -2.3819    1.8047 C   0  0  0  0  0  0  0  0  0  0  0  0
    2.8790   -0.9334    2.6084 C   0  0  0  0  0  0  0  0  0  0  0  0
    1.8523    0.0635    1.4719 S   0  0  0  0  0  0  0  0  0  0  0  0
    3.2018    0.7619    0.4401 C   0  0  0  0  0  0  0  0  0  0  0  0
    3.2132    2.3169    0.5178 C   0  0  1  0  0  0  0  0  0  0  0  0
    4.2818    2.8719    1.3591 N   0  0  0  0  0  0  0  0  0  0  0  0
    5.5346    2.2361    1.6324 C   0  0  0  0  0  0  0  0  0  0  0  0
    5.6014    1.3470    2.5235 O   0  0  0  0  0  0  0  0  0  0  0  0
    6.7908    2.7008    0.9460 C   0  0  1  0  0  0  0  0  0  0  0  0
    7.5013    3.7560    1.7987 C   0  0  0  0  0  0  0  0  0  0  0  0
    7.6738    1.5595    0.7068 N   0  0  0  0  0  0  0  0  0  0  0  0
    7.4206    0.6274   -0.3502 C   0  0  0  0  0  0  0  0  0  0  0  0
    6.8738    1.0227   -1.4181 O   0  0  0  0  0  0  0  0  0  0  0  0
    3.2984    2.9220   -0.8638 C   0  0  0  0  0  0  0  0  0  0  0  0
    4.3861    2.8438   -1.4971 O   0  0  0  0  0  0  0  0  0  0  0  0
    2.1870    3.5981   -1.4785 N   0  0  0  0  0  0  0  0  0  0  0  0
    0.7812    3.3547   -1.1439 C   0  0  2  0  0  0  0  0  0  0  0  0
   -0.0226    3.1115   -2.4273 C   0  0  0  0  0  0  0  0  0  0  0  0
    0.2444    4.4964   -0.3091 C   0  0  0  0  0  0  0  0  0  0  0  0
    0.4376    4.4647    0.9365 O   0  0  0  0  0  0  0  0  0  0  0  0
   -0.4562    5.6152   -0.8981 N   0  0  0  0  0  0  0  0  0  0  0  0
   -1.0635    6.6968   -0.1139 C   0  0  2  0  0  0  0  0  0  0  0  0
    0.0244    7.5545    0.5483 C   0  0  0  0  0  0  0  0  0  0  0  0
   -2.0675    6.1458    0.8772 C   0  0  0  0  0  0  0  0  0  0  0  0
   -2.1147    6.5943    2.0546 O   0  0  0  0  0  0  0  0  0  0  0  0
   -2.9329    5.0601    0.5136 N   0  0  0  0  0  0  0  0  0  0  0  0
   -4.2017    5.2223   -0.2090 C   0  0  2  0  0  0  0  0  0  0  0  0
   -4.1640    6.3700   -1.2308 C   0  0  0  0  0  0  0  0  0  0  0  0
   -5.3299    5.4404    0.7751 C   0  0  0  0  0  0  0  0  0  0  0  0
   -5.2584    6.4300    1.5581 O   0  0  0  0  0  0  0  0  0  0  0  0
   -6.4814    4.5779    0.8670 N   0  0  0  0  0  0  0  0  0  0  0  0
   -6.7097    3.3704    0.0615 C   0  0  2  0  0  0  0  0  0  0  0  0
   -7.2013    3.7590   -1.3380 C   0  0  0  0  0  0  0  0  0  0  0  0
   -7.7452    2.4822    0.7263 C   0  0  0  0  0  0  0  0  0  0  0  0
   -8.8868    2.9662    0.9666 O   0  0  0  0  0  0  0  0  0  0  0  0
   -7.4925    1.1135    1.0982 N   0  0  0  0  0  0  0  0  0  0  0  0
   -6.2773    0.3500    0.7740 C   0  0  2  0  0  0  0  0  0  0  0  0
   -6.2051    0.0572   -0.7304 C   0  0  0  0  0  0  0  0  0  0  0  0
   -6.2506   -0.9395    1.5586 C   0  0  0  0  0  0  0  0  0  0  0  0
   -5.3665   -1.1208    2.4384 O   0  0  0  0  0  0  0  0  0  0  0  0
   -7.2572   -1.9385    1.3613 N   0  0  0  0  0  0  0  0  0  0  0  0
   -7.0651   -3.0494    0.4256 C   0  0  2  0  0  0  0  0  0  0  0  0
   -8.3404   -3.8856    0.3112 C   0  0  0  0  0  0  0  0  0  0  0  0
   -5.9032   -3.9045    0.8446 C   0  0  0  0  0  0  0  0  0  0  0  0
   -5.9774   -4.5969    1.8946 O   0  0  0  0  0  0  0  0  0  0  0  0
   -4.6953   -3.8994    0.0691 N   0  0  0  0  0  0  0  0  0  0  0  0
   -4.1517   -5.0925   -0.5912 C   0  0  2  0  0  0  0  0  0  0  0  0
   -5.2136   -5.7470   -1.4861 C   0  0  0  0  0  0  0  0  0  0  0  0
   -3.5921   -6.0753    0.4119 C   0  0  0  0  0  0  0  0  0  0  0  0
   -4.3971   -6.7010    1.1576 O   0  0  0  0  0  0  0  0  0  0  0  0
   -2.1840   -6.3279    0.5617 N   0  0  0  0  0  0  0  0  0  0  0  0
   -1.1255   -6.1183   -0.4365 C   0  0  1  0  0  0  0  0  0  0  0  0
   -1.5458   -6.6012   -1.8051 C   0  0  0  0  0  0  0  0  0  0  0  0
   -2.0182   -7.9388   -1.9680 N   0  0  0  0  0  0  0  0  0  0  0  0
   -1.4648   -5.8460   -2.8128 O   0  0  0  0  0  0  0  0  0  0  0  0
   -0.6100   -4.6604   -0.3932 C   0  0  0  0  0  0  0  0  0  0  0  0
    1.0381   -4.4986   -1.1839 S   0  0  0  0  0  0  0  0  0  0  0  0
    2.0158   -5.2477    0.1747 C   0  0  0  0  0  0  0  0  0  0  0  0
   11.7258   -1.4518   -1.2669 H   0  0  0  0  0  0  0  0  0  0  0  0
   11.7041   -0.1406   -2.5054 H   0  0  0  0  0  0  0  0  0  0  0  0
   11.2745   -1.8361   -2.9736 H   0  0  0  0  0  0  0  0  0  0  0  0
    9.8903   -1.3189    0.1862 H   0  0  0  0  0  0  0  0  0  0  0  0
    7.7215   -1.0460    0.8936 H   0  0  0  0  0  0  0  0  0  0  0  0
    5.8400   -1.6045   -0.6290 H   0  0  0  0  0  0  0  0  0  0  0  0
    6.9061   -1.5669   -2.0349 H   0  0  0  0  0  0  0  0  0  0  0  0
    7.3302   -3.0884    1.6904 H   0  0  0  0  0  0  0  0  0  0  0  0
    6.9789   -4.7901    1.3280 H   0  0  0  0  0  0  0  0  0  0  0  0
    4.7451   -5.3046    0.0542 H   0  0  0  0  0  0  0  0  0  0  0  0
    1.4466   -2.9672    1.5271 H   0  0  0  0  0  0  0  0  0  0  0  0
    5.4858   -1.6556    2.2105 H   0  0  0  0  0  0  0  0  0  0  0  0
    3.6929   -0.3060    3.0262 H   0  0  0  0  0  0  0  0  0  0  0  0
    2.2384   -1.2525    3.4561 H   0  0  0  0  0  0  0  0  0  0  0  0
    4.1804    0.3085    0.6776 H   0  0  0  0  0  0  0  0  0  0  0  0
    2.9779    0.4353   -0.5967 H   0  0  0  0  0  0  0  0  0  0  0  0
    2.2648    2.6447    0.9852 H   0  0  0  0  0  0  0  0  0  0  0  0
    4.2094    3.8854    1.6144 H   0  0  0  0  0  0  0  0  0  0  0  0
    6.5297    3.1731   -0.0268 H   0  0  0  0  0  0  0  0  0  0  0  0
    8.4427    4.0688    1.3008 H   0  0  0  0  0  0  0  0  0  0  0  0
    7.7448    3.3472    2.8021 H   0  0  0  0  0  0  0  0  0  0  0  0
    6.8533    4.6511    1.9192 H   0  0  0  0  0  0  0  0  0  0  0  0
    8.3593    1.2831    1.4514 H   0  0  0  0  0  0  0  0  0  0  0  0
    2.3994    4.2900   -2.2322 H   0  0  0  0  0  0  0  0  0  0  0  0
    0.6844    2.4114   -0.5623 H   0  0  0  0  0  0  0  0  0  0  0  0
    0.1413    3.9211   -3.1677 H   0  0  0  0  0  0  0  0  0  0  0  0
   -1.1071    3.0288   -2.1992 H   0  0  0  0  0  0  0  0  0  0  0  0
    0.3099    2.1617   -2.9042 H   0  0  0  0  0  0  0  0  0  0  0  0
   -0.5964    5.6471   -1.9309 H   0  0  0  0  0  0  0  0  0  0  0  0
   -1.6085    7.3674   -0.8090 H   0  0  0  0  0  0  0  0  0  0  0  0
    0.7439    7.9116   -0.2169 H   0  0  0  0  0  0  0  0  0  0  0  0
   -0.4329    8.4470    1.0272 H   0  0  0  0  0  0  0  0  0  0  0  0
    0.5781    6.9805    1.3209 H   0  0  0  0  0  0  0  0  0  0  0  0
   -2.8710    4.2164    1.1325 H   0  0  0  0  0  0  0  0  0  0  0  0
   -4.3583    4.2976   -0.7941 H   0  0  0  0  0  0  0  0  0  0  0  0
   -4.0127    7.3506   -0.7297 H   0  0  0  0  0  0  0  0  0  0  0  0
   -3.3501    6.1979   -1.9667 H   0  0  0  0  0  0  0  0  0  0  0  0
   -5.1259    6.4128   -1.7855 H   0  0  0  0  0  0  0  0  0  0  0  0
   -7.2082    4.8488    1.5724 H   0  0  0  0  0  0  0  0  0  0  0  0
   -5.7582    2.8227   -0.0261 H   0  0  0  0  0  0  0  0  0  0  0  0
   -6.4252    4.3371   -1.8794 H   0  0  0  0  0  0  0  0  0  0  0  0
   -7.4286    2.8511   -1.9335 H   0  0  0  0  0  0  0  0  0  0  0  0
   -8.1190    4.3821   -1.2695 H   0  0  0  0  0  0  0  0  0  0  0  0
   -8.2436    0.6446    1.6563 H   0  0  0  0  0  0  0  0  0  0  0  0
   -5.3842    0.9393    1.0748 H   0  0  0  0  0  0  0  0  0  0  0  0
   -5.9999    0.9768   -1.3101 H   0  0  0  0  0  0  0  0  0  0  0  0
   -7.1651   -0.3695   -1.0876 H   0  0  0  0  0  0  0  0  0  0  0  0
   -5.3806   -0.6552   -0.9445 H   0  0  0  0  0  0  0  0  0  0  0  0
   -8.1597   -1.8361    1.8798 H   0  0  0  0  0  0  0  0  0  0  0  0
   -6.8515   -2.6386   -0.5829 H   0  0  0  0  0  0  0  0  0  0  0  0
   -8.6034   -4.3366    1.2918 H   0  0  0  0  0  0  0  0  0  0  0  0
   -8.2053   -4.6936   -0.4380 H   0  0  0  0  0  0  0  0  0  0  0  0
   -9.1832   -3.2404   -0.0194 H   0  0  0  0  0  0  0  0  0  0  0  0
   -4.3057   -2.9644   -0.2022 H   0  0  0  0  0  0  0  0  0  0  0  0
   -3.3508   -4.7478   -1.2689 H   0  0  0  0  0  0  0  0  0  0  0  0
   -4.7737   -6.6115   -2.0239 H   0  0  0  0  0  0  0  0  0  0  0  0
   -5.5786   -5.0104   -2.2340 H   0  0  0  0  0  0  0  0  0  0  0  0
   -6.0749   -6.1022   -0.8819 H   0  0  0  0  0  0  0  0  0  0  0  0
   -1.9011   -6.8247    1.4408 H   0  0  0  0  0  0  0  0  0  0  0  0
   -0.2781   -6.7718   -0.1432 H   0  0  0  0  0  0  0  0  0  0  0  0
   -2.1569   -8.5591   -1.1411 H   0  0  0  0  0  0  0  0  0  0  0  0
   -2.3199   -8.2827   -2.9107 H   0  0  0  0  0  0  0  0  0  0  0  0
   -1.3078   -3.9775   -0.9141 H   0  0  0  0  0  0  0  0  0  0  0  0
   -0.5434   -4.3102    0.6577 H   0  0  0  0  0  0  0  0  0  0  0  0
    1.3778   -5.6162    1.0067 H   0  0  0  0  0  0  0  0  0  0  0  0
    2.5437   -6.1303   -0.2448 H   0  0  0  0  0  0  0  0  0  0  0  0
  1  2  1  0
  2  3  2  0
  2  4  1  0
  4  5  1  0
  5  6  1  0
  6  7  1  0
  7  8  1  0
  8  9  1  0
  9 10  1  0
 10 11  2  0
 11 12  1  0
 12 13  2  0
 13 14  1  0
 13 15  1  0
 15 16  1  0
 16 17  1  0
 17 18  1  0
 18 19  1  0
 19 20  1  0
 20 21  2  0
 20 22  1  0
 22 23  1  0
 22 24  1  0
 24 25  1  0
 25 26  2  0
 18 27  1  0
 27 28  2  0
 27 29  1  0
 29 30  1  0
 30 31  1  0
 30 32  1  0
 32 33  2  0
 32 34  1  0
 34 35  1  0
 35 36  1  0
 35 37  1  0
 37 38  2  0
 37 39  1  0
 39 40  1  0
 40 41  1  0
 40 42  1  0
 42 43  2  0
 42 44  1  0
 44 45  1  0
 45 46  1  0
 45 47  1  0
 47 48  2  0
 47 49  1  0
 49 50  1  0
 50 51  1  0
 50 52  1  0
 52 53  2  0
 52 54  1  0
 54 55  1  0
 55 56  1  0
 55 57  1  0
 57 58  2  0
 57 59  1  0
 59 60  1  0
 60 61  1  0
 60 62  1  0
 62 63  2  0
 62 64  1  0
 64 65  1  0
 65 66  1  0
 66 67  1  0
 66 68  2  0
 65 69  1  0
 69 70  1  0
 70 71  1  0
 25  5  1  0
 14  9  2  0
 71 11  1  0
  1 72  1  0
  1 73  1  0
  1 74  1  0
  4 75  1  0
  5 76  1  1
  6 77  1  0
  6 78  1  0
  8 79  1  0
  8 80  1  0
 10 81  1  0
 12 82  1  0
 14 83  1  0
 15 84  1  0
 15 85  1  0
 17 86  1  0
 17 87  1  0
 18 88  1  1
 19 89  1  0
 22 90  1  6
 23 91  1  0
 23 92  1  0
 23 93  1  0
 24 94  1  0
 29 95  1  0
 30 96  1  1
 31 97  1  0
 31 98  1  0
 31 99  1  0
 34100  1  0
 35101  1  6
 36102  1  0
 36103  1  0
 36104  1  0
 39105  1  0
 40106  1  6
 41107  1  0
 41108  1  0
 41109  1  0
 44110  1  0
 45111  1  6
 46112  1  0
 46113  1  0
 46114  1  0
 49115  1  0
 50116  1  1
 51117  1  0
 51118  1  0
 51119  1  0
 54120  1  0
 55121  1  6
 56122  1  0
 56123  1  0
 56124  1  0
 59125  1  0
 60126  1  6
 61127  1  0
 61128  1  0
 61129  1  0
 64130  1  0
 65131  1  1
 67132  1  0
 67133  1  0
 69134  1  0
 69135  1  0
 71136  1  0
 71137  1  0
M  END
