
     RDKit          3D

127129  0  0  0  0  0  0  0  0999 V2000
   -7.7143    5.0971    1.9757 C   0  0  0  0  0  0  0  0  0  0  0  0
   -7.2548    3.8785    1.2383 C   0  0  0  0  0  0  0  0  0  0  0  0
   -7.9728    2.8436    1.2445 O   0  0  0  0  0  0  0  0  0  0  0  0
   -6.0083    3.8930    0.5239 N   0  0  0  0  0  0  0  0  0  0  0  0
   -5.4669    2.6866   -0.1097 C   0  0  2  0  0  0  0  0  0  0  0  0
   -4.0121    2.8866   -0.5652 C   0  0  0  0  0  0  0  0  0  0  0  0
   -3.8006    4.2614   -1.7663 S   0  0  0  0  0  0  0  0  0  0  0  0
   -2.3778    3.5536   -2.6861 C   0  0  0  0  0  0  0  0  0  0  0  0
   -1.2768    3.1094   -1.7572 C   0  0  0  0  0  0  0  0  0  0  0  0
   -0.5323    4.0544   -1.0382 C   0  0  0  0  0  0  0  0  0  0  0  0
    0.4135    3.6361   -0.0924 C   0  0  0  0  0  0  0  0  0  0  0  0
    0.5883    2.2643    0.1558 C   0  0  0  0  0  0  0  0  0  0  0  0
   -0.1525    1.3081   -0.5512 C   0  0  0  0  0  0  0  0  0  0  0  0
   -1.0297    1.7406   -1.5632 C   0  0  0  0  0  0  0  0  0  0  0  0
    0.0677   -0.1558   -0.2332 C   0  0  0  0  0  0  0  0  0  0  0  0
   -1.3078   -1.2502   -0.7729 S   0  0  0  0  0  0  0  0  0  0  0  0
   -1.1152   -2.5199    0.5359 C   0  0  0  0  0  0  0  0  0  0  0  0
   -1.4211   -3.9278   -0.0055 C   0  0  2  0  0  0  0  0  0  0  0  0
   -1.6990   -4.8080    1.1321 N   0  0  0  0  0  0  0  0  0  0  0  0
   -3.0076   -5.2279    1.5684 C   0  0  0  0  0  0  0  0  0  0  0  0
   -3.1376   -5.6782    2.7431 O   0  0  0  0  0  0  0  0  0  0  0  0
   -4.2177   -5.1845    0.6599 C   0  0  1  0  0  0  0  0  0  0  0  0
   -4.1012   -6.2500   -0.4319 C   0  0  0  0  0  0  0  0  0  0  0  0
   -5.4513   -5.4139    1.4222 N   0  0  0  0  0  0  0  0  0  0  0  0
   -6.5944   -4.5400    1.4106 C   0  0  0  0  0  0  0  0  0  0  0  0
   -7.7451   -5.0600    1.3680 O   0  0  0  0  0  0  0  0  0  0  0  0
   -6.4925   -3.0307    1.4849 C   0  0  1  0  0  0  0  0  0  0  0  0
   -5.3650   -2.5616    2.4086 C   0  0  0  0  0  0  0  0  0  0  0  0
   -6.3521   -2.4467    0.1437 N   0  0  0  0  0  0  0  0  0  0  0  0
   -6.5531   -1.0408   -0.0792 C   0  0  0  0  0  0  0  0  0  0  0  0
   -7.3750   -0.4183    0.6429 O   0  0  0  0  0  0  0  0  0  0  0  0
   -5.7133   -0.2605   -1.0673 C   0  0  1  0  0  0  0  0  0  0  0  0
   -5.1766   -1.1097   -2.2284 C   0  0  0  0  0  0  0  0  0  0  0  0
   -6.4982    0.8552   -1.6169 N   0  0  0  0  0  0  0  0  0  0  0  0
   -6.3389    2.2437   -1.2619 C   0  0  0  0  0  0  0  0  0  0  0  0
   -6.9711    3.1090   -1.9217 O   0  0  0  0  0  0  0  0  0  0  0  0
   -0.3087   -4.5366   -0.8301 C   0  0  0  0  0  0  0  0  0  0  0  0
   -0.5172   -5.6538   -1.3787 O   0  0  0  0  0  0  0  0  0  0  0  0
    0.9775   -3.9080   -0.9763 N   0  0  0  0  0  0  0  0  0  0  0  0
    2.1970   -4.6835   -1.2289 C   0  0  2  0  0  0  0  0  0  0  0  0
    2.4521   -5.6771   -0.0863 C   0  0  0  0  0  0  0  0  0  0  0  0
    3.3599   -3.7565   -1.5210 C   0  0  0  0  0  0  0  0  0  0  0  0
    3.3840   -3.1771   -2.6399 O   0  0  0  0  0  0  0  0  0  0  0  0
    4.4447   -3.5215   -0.6103 N   0  0  0  0  0  0  0  0  0  0  0  0
    4.2993   -3.0457    0.7756 C   0  0  2  0  0  0  0  0  0  0  0  0
    3.3977   -1.8053    0.8682 C   0  0  0  0  0  0  0  0  0  0  0  0
    5.6589   -2.8057    1.3918 C   0  0  0  0  0  0  0  0  0  0  0  0
    6.1892   -3.7415    2.0612 O   0  0  0  0  0  0  0  0  0  0  0  0
    6.3554   -1.5541    1.2844 N   0  0  0  0  0  0  0  0  0  0  0  0
    6.6237   -0.9173   -0.0075 C   0  0  2  0  0  0  0  0  0  0  0  0
    7.8118   -1.6011   -0.6979 C   0  0  0  0  0  0  0  0  0  0  0  0
    6.9191    0.5468    0.1947 C   0  0  0  0  0  0  0  0  0  0  0  0
    7.9284    0.8855    0.8712 O   0  0  0  0  0  0  0  0  0  0  0  0
    6.0797    1.5503   -0.4033 N   0  0  0  0  0  0  0  0  0  0  0  0
    6.4679    2.9532   -0.5915 C   0  0  2  0  0  0  0  0  0  0  0  0
    7.6931    3.0763   -1.5015 C   0  0  0  0  0  0  0  0  0  0  0  0
    6.6749    3.6528    0.7291 C   0  0  0  0  0  0  0  0  0  0  0  0
    7.7988    3.6314    1.2998 O   0  0  0  0  0  0  0  0  0  0  0  0
    5.5769    4.3069    1.3772 N   0  0  0  0  0  0  0  0  0  0  0  0
    5.1932    5.7095    1.1278 C   0  0  1  0  0  0  0  0  0  0  0  0
    5.8624    6.3049   -0.0909 C   0  0  0  0  0  0  0  0  0  0  0  0
    6.9105    7.2601    0.0603 N   0  0  0  0  0  0  0  0  0  0  0  0
    5.5079    5.9688   -1.2503 O   0  0  0  0  0  0  0  0  0  0  0  0
    3.6644    5.8332    1.0728 C   0  0  0  0  0  0  0  0  0  0  0  0
    2.9303    4.6576   -0.1298 S   0  0  0  0  0  0  0  0  0  0  0  0
    1.2701    4.6399    0.6250 C   0  0  0  0  0  0  0  0  0  0  0  0
   -6.9885    5.3329    2.7768 H   0  0  0  0  0  0  0  0  0  0  0  0
   -7.7817    5.9533    1.2742 H   0  0  0  0  0  0  0  0  0  0  0  0
   -8.7093    4.9202    2.4309 H   0  0  0  0  0  0  0  0  0  0  0  0
   -5.4505    4.7811    0.5245 H   0  0  0  0  0  0  0  0  0  0  0  0
   -5.4668    1.8887    0.6673 H   0  0  0  0  0  0  0  0  0  0  0  0
   -3.3724    3.0926    0.3209 H   0  0  0  0  0  0  0  0  0  0  0  0
   -3.6597    1.9422   -1.0225 H   0  0  0  0  0  0  0  0  0  0  0  0
   -1.9847    4.3239   -3.3861 H   0  0  0  0  0  0  0  0  0  0  0  0
   -2.7503    2.7099   -3.3044 H   0  0  0  0  0  0  0  0  0  0  0  0
   -0.6958    5.1106   -1.2138 H   0  0  0  0  0  0  0  0  0  0  0  0
    1.3164    1.9453    0.8928 H   0  0  0  0  0  0  0  0  0  0  0  0
   -1.5805    1.0229   -2.1614 H   0  0  0  0  0  0  0  0  0  0  0  0
    0.2048   -0.2442    0.8646 H   0  0  0  0  0  0  0  0  0  0  0  0
    1.0027   -0.4789   -0.7368 H   0  0  0  0  0  0  0  0  0  0  0  0
   -1.8479   -2.2638    1.3348 H   0  0  0  0  0  0  0  0  0  0  0  0
   -0.1092   -2.5031    1.0095 H   0  0  0  0  0  0  0  0  0  0  0  0
   -2.3023   -3.8512   -0.6697 H   0  0  0  0  0  0  0  0  0  0  0  0
   -0.9049   -5.0181    1.7762 H   0  0  0  0  0  0  0  0  0  0  0  0
   -4.2613   -4.1945    0.1781 H   0  0  0  0  0  0  0  0  0  0  0  0
   -5.0075   -6.2257   -1.0727 H   0  0  0  0  0  0  0  0  0  0  0  0
   -4.0078   -7.2597    0.0149 H   0  0  0  0  0  0  0  0  0  0  0  0
   -3.2189   -6.0586   -1.0777 H   0  0  0  0  0  0  0  0  0  0  0  0
   -5.5965   -6.3686    1.8222 H   0  0  0  0  0  0  0  0  0  0  0  0
   -7.4459   -2.6657    1.9245 H   0  0  0  0  0  0  0  0  0  0  0  0
   -5.4575   -1.4720    2.5923 H   0  0  0  0  0  0  0  0  0  0  0  0
   -4.3729   -2.7375    1.9500 H   0  0  0  0  0  0  0  0  0  0  0  0
   -5.4097   -3.0855    3.3837 H   0  0  0  0  0  0  0  0  0  0  0  0
   -5.9198   -3.0174   -0.6040 H   0  0  0  0  0  0  0  0  0  0  0  0
   -4.8306    0.1064   -0.5106 H   0  0  0  0  0  0  0  0  0  0  0  0
   -6.0071   -1.6554   -2.7288 H   0  0  0  0  0  0  0  0  0  0  0  0
   -4.4189   -1.8331   -1.8584 H   0  0  0  0  0  0  0  0  0  0  0  0
   -4.6794   -0.4515   -2.9725 H   0  0  0  0  0  0  0  0  0  0  0  0
   -7.2539    0.6203   -2.3044 H   0  0  0  0  0  0  0  0  0  0  0  0
    1.0404   -2.8687   -0.9430 H   0  0  0  0  0  0  0  0  0  0  0  0
    2.0409   -5.2882   -2.1483 H   0  0  0  0  0  0  0  0  0  0  0  0
    1.7870   -6.5606   -0.2026 H   0  0  0  0  0  0  0  0  0  0  0  0
    3.5043   -6.0414   -0.0986 H   0  0  0  0  0  0  0  0  0  0  0  0
    2.2121   -5.2198    0.8988 H   0  0  0  0  0  0  0  0  0  0  0  0
    5.3930   -3.4822   -1.0474 H   0  0  0  0  0  0  0  0  0  0  0  0
    3.8233   -3.8411    1.3835 H   0  0  0  0  0  0  0  0  0  0  0  0
    2.3335   -2.1146    0.8227 H   0  0  0  0  0  0  0  0  0  0  0  0
    3.5925   -1.0963    0.0360 H   0  0  0  0  0  0  0  0  0  0  0  0
    3.5497   -1.2795    1.8356 H   0  0  0  0  0  0  0  0  0  0  0  0
    7.0179   -1.3349    2.0625 H   0  0  0  0  0  0  0  0  0  0  0  0
    5.7417   -1.0197   -0.6734 H   0  0  0  0  0  0  0  0  0  0  0  0
    8.7224   -1.5438   -0.0587 H   0  0  0  0  0  0  0  0  0  0  0  0
    8.0170   -1.1115   -1.6746 H   0  0  0  0  0  0  0  0  0  0  0  0
    7.5799   -2.6713   -0.8835 H   0  0  0  0  0  0  0  0  0  0  0  0
    5.1658    1.2502   -0.7987 H   0  0  0  0  0  0  0  0  0  0  0  0
    5.6275    3.4587   -1.1127 H   0  0  0  0  0  0  0  0  0  0  0  0
    7.9432    4.1483   -1.6562 H   0  0  0  0  0  0  0  0  0  0  0  0
    8.5693    2.5665   -1.0631 H   0  0  0  0  0  0  0  0  0  0  0  0
    7.4752    2.6265   -2.4948 H   0  0  0  0  0  0  0  0  0  0  0  0
    5.2367    3.8760    2.2693 H   0  0  0  0  0  0  0  0  0  0  0  0
    5.5304    6.3030    2.0105 H   0  0  0  0  0  0  0  0  0  0  0  0
    7.2035    7.6119    0.9987 H   0  0  0  0  0  0  0  0  0  0  0  0
    7.4038    7.6305   -0.7839 H   0  0  0  0  0  0  0  0  0  0  0  0
    3.2739    5.6202    2.0945 H   0  0  0  0  0  0  0  0  0  0  0  0
    3.3667    6.8723    0.8071 H   0  0  0  0  0  0  0  0  0  0  0  0
    1.3479    4.3584    1.7001 H   0  0  0  0  0  0  0  0  0  0  0  0
    0.8289    5.6559    0.5687 H   0  0  0  0  0  0  0  0  0  0  0  0
  1  2  1  0
  2  3  2  0
  2  4  1  0
  4  5  1  0
  5  6  1  0
  6  7  1  0
  7  8  1  0
  8  9  1  0
  9 10  1  0
 10 11  2  0
 11 12  1  0
 12 13  2  0
 13 14  1  0
 13 15  1  0
 15 16  1  0
 16 17  1  0
 17 18  1  0
 18 19  1  0
 19 20  1  0
 20 21  2  0
 20 22  1  0
 22 23  1  0
 22 24  1  0
 24 25  1  0
 25 26  2  0
 25 27  1  0
 27 28  1  0
 27 29  1  0
 29 30  1  0
 30 31  2  0
 30 32  1  0
 32 33  1  0
 32 34  1  0
 34 35  1  0
 35 36  2  0
 18 37  1  0
 37 38  2  0
 37 39  1  0
 39 40  1  0
 40 41  1  0
 40 42  1  0
 42 43  2  0
 42 44  1  0
 44 45  1  0
 45 46  1  0
 45 47  1  0
 47 48  2  0
 47 49  1  0
 49 50  1  0
 50 51  1  0
 50 52  1  0
 52 53  2  0
 52 54  1  0
 54 55  1  0
 55 56  1  0
 55 57  1  0
 57 58  2  0
 57 59  1  0
 59 60  1  0
 60 61  1  0
 61 62  1  0
 61 63  2  0
 60 64  1  0
 64 65  1  0
 65 66  1  0
 35  5  1  0
 14  9  2  0
 66 11  1  0
  1 67  1  0
  1 68  1  0
  1 69  1  0
  4 70  1  0
  5 71  1  1
  6 72  1  0
  6 73  1  0
  8 74  1  0
  8 75  1  0
 10 76  1  0
 12 77  1  0
 14 78  1  0
 15 79  1  0
 15 80  1  0
 17 81  1  0
 17 82  1  0
 18 83  1  6
 19 84  1  0
 22 85  1  6
 23 86  1  0
 23 87  1  0
 23 88  1  0
 24 89  1  0
 27 90  1  1
 28 91  1  0
 28 92  1  0
 28 93  1  0
 29 94  1  0
 32 95  1  1
 33 96  1  0
 33 97  1  0
 33 98  1  0
 34 99  1  0
 39100  1  0
 40101  1  6
 41102  1  0
 41103  1  0
 41104  1  0
 44105  1  0
 45106  1  1
 46107  1  0
 46108  1  0
 46109  1  0
 49110  1  0
 50111  1  6
 51112  1  0
 51113  1  0
 51114  1  0
 54115  1  0
 55116  1  6
 56117  1  0
 56118  1  0
 56119  1  0
 59120  1  0
 60121  1  1
 62122  1  0
 62123  1  0
 64124  1  0
 64125  1  0
 66126  1  0
 66127  1  0
M  END
