
     RDKit          3D

117119  0  0  0  0  0  0  0  0999 V2000
    9.4892    5.4601    0.3113 C   0  0  0  0  0  0  0  0  0  0  0  0
    8.0537    5.0447    0.4075 C   0  0  0  0  0  0  0  0  0  0  0  0
    7.1689    5.9072    0.6421 O   0  0  0  0  0  0  0  0  0  0  0  0
    7.6990    3.6656    0.2124 N   0  0  0  0  0  0  0  0  0  0  0  0
    6.3048    3.2017    0.1484 C   0  0  1  0  0  0  0  0  0  0  0  0
    5.7098    3.6221   -1.2139 C   0  0  0  0  0  0  0  0  0  0  0  0
    3.9154    3.3613   -1.5174 S   0  0  0  0  0  0  0  0  0  0  0  0
    3.2300    3.1294    0.1689 C   0  0  0  0  0  0  0  0  0  0  0  0
    1.7744    2.7821    0.0361 C   0  0  0  0  0  0  0  0  0  0  0  0
    0.7682    3.6086    0.5724 C   0  0  0  0  0  0  0  0  0  0  0  0
   -0.5854    3.3181    0.3315 C   0  0  0  0  0  0  0  0  0  0  0  0
   -0.9106    2.2285   -0.4896 C   0  0  0  0  0  0  0  0  0  0  0  0
    0.0666    1.3338   -0.9224 C   0  0  0  0  0  0  0  0  0  0  0  0
    1.4102    1.6068   -0.6462 C   0  0  0  0  0  0  0  0  0  0  0  0
   -0.3269    0.1211   -1.7109 C   0  0  0  0  0  0  0  0  0  0  0  0
   -1.5456   -0.8579   -0.7718 S   0  0  0  0  0  0  0  0  0  0  0  0
   -0.4692   -2.3041   -0.4952 C   0  0  0  0  0  0  0  0  0  0  0  0
   -1.2413   -3.4429    0.1946 C   0  0  2  0  0  0  0  0  0  0  0  0
   -0.3463   -4.5875    0.3894 N   0  0  0  0  0  0  0  0  0  0  0  0
    0.8734   -4.4684    1.1429 C   0  0  0  0  0  0  0  0  0  0  0  0
    0.8529   -3.8741    2.2568 O   0  0  0  0  0  0  0  0  0  0  0  0
    2.1952   -4.9973    0.6253 C   0  0  1  0  0  0  0  0  0  0  0  0
    2.0570   -5.8869   -0.6113 C   0  0  0  0  0  0  0  0  0  0  0  0
    3.0825   -3.8707    0.3190 N   0  0  0  0  0  0  0  0  0  0  0  0
    4.3536   -3.7020    0.9592 C   0  0  0  0  0  0  0  0  0  0  0  0
    4.4270   -3.7157    2.2205 O   0  0  0  0  0  0  0  0  0  0  0  0
    5.6205   -3.6191    0.1404 C   0  0  1  0  0  0  0  0  0  0  0  0
    6.1773   -5.0214   -0.1153 C   0  0  0  0  0  0  0  0  0  0  0  0
    5.3709   -2.9269   -1.1309 N   0  0  0  0  0  0  0  0  0  0  0  0
    5.7401   -1.5689   -1.4361 C   0  0  0  0  0  0  0  0  0  0  0  0
    5.5748   -1.1491   -2.6206 O   0  0  0  0  0  0  0  0  0  0  0  0
    6.4195   -0.6593   -0.4326 C   0  0  1  0  0  0  0  0  0  0  0  0
    7.9374   -0.7553   -0.6060 C   0  0  0  0  0  0  0  0  0  0  0  0
    5.9809    0.7359   -0.5842 N   0  0  0  0  0  0  0  0  0  0  0  0
    6.2923    1.7135    0.4226 C   0  0  0  0  0  0  0  0  0  0  0  0
    6.6107    1.3280    1.5750 O   0  0  0  0  0  0  0  0  0  0  0  0
   -2.4302   -3.8569   -0.6587 C   0  0  0  0  0  0  0  0  0  0  0  0
   -2.2132   -4.3673   -1.7896 O   0  0  0  0  0  0  0  0  0  0  0  0
   -3.7815   -3.5325   -0.3023 N   0  0  0  0  0  0  0  0  0  0  0  0
   -4.3479   -3.7209    1.0400 C   0  0  2  0  0  0  0  0  0  0  0  0
   -5.0389   -5.0900    1.1032 C   0  0  0  0  0  0  0  0  0  0  0  0
   -5.3397   -2.6258    1.3794 C   0  0  0  0  0  0  0  0  0  0  0  0
   -5.8625   -2.6131    2.5223 O   0  0  0  0  0  0  0  0  0  0  0  0
   -5.6746   -1.5913    0.4355 N   0  0  0  0  0  0  0  0  0  0  0  0
   -6.9048   -0.7910    0.5176 C   0  0  2  0  0  0  0  0  0  0  0  0
   -8.1410   -1.6924    0.6215 C   0  0  0  0  0  0  0  0  0  0  0  0
   -7.0535    0.0656   -0.7231 C   0  0  0  0  0  0  0  0  0  0  0  0
   -6.7880   -0.4503   -1.8475 O   0  0  0  0  0  0  0  0  0  0  0  0
   -7.5499    1.4204   -0.6872 N   0  0  0  0  0  0  0  0  0  0  0  0
   -7.5029    2.3104    0.4818 C   0  0  2  0  0  0  0  0  0  0  0  0
   -8.7233    2.0706    1.3723 C   0  0  0  0  0  0  0  0  0  0  0  0
   -7.4734    3.7599    0.0164 C   0  0  0  0  0  0  0  0  0  0  0  0
   -8.5668    4.2889   -0.3336 O   0  0  0  0  0  0  0  0  0  0  0  0
   -6.2712    4.5415   -0.1362 N   0  0  0  0  0  0  0  0  0  0  0  0
   -4.8613    4.1329    0.0077 C   0  0  2  0  0  0  0  0  0  0  0  0
   -4.5428    2.9167   -0.8321 C   0  0  0  0  0  0  0  0  0  0  0  0
   -3.9987    3.0644   -2.1452 N   0  0  0  0  0  0  0  0  0  0  0  0
   -4.6845    1.7583   -0.3551 O   0  0  0  0  0  0  0  0  0  0  0  0
   -4.4333    4.0572    1.4908 C   0  0  0  0  0  0  0  0  0  0  0  0
   -2.8783    3.1254    1.8033 S   0  0  0  0  0  0  0  0  0  0  0  0
   -1.6906    4.1871    0.8807 C   0  0  0  0  0  0  0  0  0  0  0  0
   10.0840    4.9030    1.0731 H   0  0  0  0  0  0  0  0  0  0  0  0
    9.5914    6.5487    0.4884 H   0  0  0  0  0  0  0  0  0  0  0  0
    9.8678    5.2100   -0.7043 H   0  0  0  0  0  0  0  0  0  0  0  0
    8.4752    2.9756    0.0661 H   0  0  0  0  0  0  0  0  0  0  0  0
    5.7344    3.7108    0.9580 H   0  0  0  0  0  0  0  0  0  0  0  0
    6.2624    3.1124   -2.0314 H   0  0  0  0  0  0  0  0  0  0  0  0
    5.8872    4.7078   -1.3605 H   0  0  0  0  0  0  0  0  0  0  0  0
    3.7330    2.2862    0.6785 H   0  0  0  0  0  0  0  0  0  0  0  0
    3.3744    4.0501    0.7736 H   0  0  0  0  0  0  0  0  0  0  0  0
    1.0354    4.4892    1.1422 H   0  0  0  0  0  0  0  0  0  0  0  0
   -1.9456    2.0229   -0.7142 H   0  0  0  0  0  0  0  0  0  0  0  0
    2.1827    0.9255   -0.9956 H   0  0  0  0  0  0  0  0  0  0  0  0
   -0.8150    0.4741   -2.6365 H   0  0  0  0  0  0  0  0  0  0  0  0
    0.5628   -0.4815   -2.0098 H   0  0  0  0  0  0  0  0  0  0  0  0
   -0.0692   -2.6665   -1.4718 H   0  0  0  0  0  0  0  0  0  0  0  0
    0.3825   -1.9819    0.1400 H   0  0  0  0  0  0  0  0  0  0  0  0
   -1.5726   -3.0852    1.1931 H   0  0  0  0  0  0  0  0  0  0  0  0
   -0.5159   -5.4709   -0.1462 H   0  0  0  0  0  0  0  0  0  0  0  0
    2.6574   -5.6275    1.4239 H   0  0  0  0  0  0  0  0  0  0  0  0
    1.4683   -6.7977   -0.3799 H   0  0  0  0  0  0  0  0  0  0  0  0
    3.0619   -6.1982   -0.9710 H   0  0  0  0  0  0  0  0  0  0  0  0
    1.5563   -5.3212   -1.4350 H   0  0  0  0  0  0  0  0  0  0  0  0
    2.8011   -3.1805   -0.4195 H   0  0  0  0  0  0  0  0  0  0  0  0
    6.3997   -3.0924    0.7327 H   0  0  0  0  0  0  0  0  0  0  0  0
    6.4329   -5.5113    0.8522 H   0  0  0  0  0  0  0  0  0  0  0  0
    7.0987   -4.9593   -0.7258 H   0  0  0  0  0  0  0  0  0  0  0  0
    5.4320   -5.6479   -0.6481 H   0  0  0  0  0  0  0  0  0  0  0  0
    4.9044   -3.4749   -1.8922 H   0  0  0  0  0  0  0  0  0  0  0  0
    6.1376   -0.9742    0.5913 H   0  0  0  0  0  0  0  0  0  0  0  0
    8.2283   -0.4820   -1.6392 H   0  0  0  0  0  0  0  0  0  0  0  0
    8.2721   -1.7926   -0.3988 H   0  0  0  0  0  0  0  0  0  0  0  0
    8.4539   -0.0827    0.1103 H   0  0  0  0  0  0  0  0  0  0  0  0
    5.2053    0.9500   -1.2653 H   0  0  0  0  0  0  0  0  0  0  0  0
   -4.4652   -3.4900   -1.0890 H   0  0  0  0  0  0  0  0  0  0  0  0
   -3.5478   -3.7160    1.8150 H   0  0  0  0  0  0  0  0  0  0  0  0
   -5.8679   -5.1467    0.3606 H   0  0  0  0  0  0  0  0  0  0  0  0
   -5.4459   -5.2752    2.1172 H   0  0  0  0  0  0  0  0  0  0  0  0
   -4.2982   -5.8926    0.8769 H   0  0  0  0  0  0  0  0  0  0  0  0
   -4.8762   -1.2145   -0.1350 H   0  0  0  0  0  0  0  0  0  0  0  0
   -6.8427   -0.1592    1.4232 H   0  0  0  0  0  0  0  0  0  0  0  0
   -9.0714   -1.0913    0.5483 H   0  0  0  0  0  0  0  0  0  0  0  0
   -8.1677   -2.2326    1.5982 H   0  0  0  0  0  0  0  0  0  0  0  0
   -8.1307   -2.4463   -0.2026 H   0  0  0  0  0  0  0  0  0  0  0  0
   -7.8044    1.8324   -1.6168 H   0  0  0  0  0  0  0  0  0  0  0  0
   -6.5991    2.1060    1.0807 H   0  0  0  0  0  0  0  0  0  0  0  0
   -9.6666    2.2676    0.8257 H   0  0  0  0  0  0  0  0  0  0  0  0
   -8.7512    1.0308    1.7441 H   0  0  0  0  0  0  0  0  0  0  0  0
   -8.6817    2.7336    2.2589 H   0  0  0  0  0  0  0  0  0  0  0  0
   -6.4154    5.5231   -0.4680 H   0  0  0  0  0  0  0  0  0  0  0  0
   -4.2623    4.9569   -0.4376 H   0  0  0  0  0  0  0  0  0  0  0  0
   -3.6820    2.2224   -2.6836 H   0  0  0  0  0  0  0  0  0  0  0  0
   -3.7507    4.0110   -2.5038 H   0  0  0  0  0  0  0  0  0  0  0  0
   -5.2301    3.5666    2.0879 H   0  0  0  0  0  0  0  0  0  0  0  0
   -4.3221    5.0803    1.9035 H   0  0  0  0  0  0  0  0  0  0  0  0
   -2.1780    4.7026    0.0353 H   0  0  0  0  0  0  0  0  0  0  0  0
   -1.2857    4.9642    1.5690 H   0  0  0  0  0  0  0  0  0  0  0  0
  1  2  1  0
  2  3  2  0
  2  4  1  0
  4  5  1  0
  5  6  1  0
  6  7  1  0
  7  8  1  0
  8  9  1  0
  9 10  2  0
 10 11  1  0
 11 12  2  0
 12 13  1  0
 13 14  2  0
 13 15  1  0
 15 16  1  0
 16 17  1  0
 17 18  1  0
 18 19  1  0
 19 20  1  0
 20 21  2  0
 20 22  1  0
 22 23  1  0
 22 24  1  0
 24 25  1  0
 25 26  2  0
 25 27  1  0
 27 28  1  0
 27 29  1  0
 29 30  1  0
 30 31  2  0
 30 32  1  0
 32 33  1  0
 32 34  1  0
 34 35  1  0
 35 36  2  0
 18 37  1  0
 37 38  2  0
 37 39  1  0
 39 40  1  0
 40 41  1  0
 40 42  1  0
 42 43  2  0
 42 44  1  0
 44 45  1  0
 45 46  1  0
 45 47  1  0
 47 48  2  0
 47 49  1  0
 49 50  1  0
 50 51  1  0
 50 52  1  0
 52 53  2  0
 52 54  1  0
 54 55  1  0
 55 56  1  0
 56 57  1  0
 56 58  2  0
 55 59  1  0
 59 60  1  0
 60 61  1  0
 35  5  1  0
 14  9  1  0
 61 11  1  0
  1 62  1  0
  1 63  1  0
  1 64  1  0
  4 65  1  0
  5 66  1  1
  6 67  1  0
  6 68  1  0
  8 69  1  0
  8 70  1  0
 10 71  1  0
 12 72  1  0
 14 73  1  0
 15 74  1  0
 15 75  1  0
 17 76  1  0
 17 77  1  0
 18 78  1  1
 19 79  1  0
 22 80  1  1
 23 81  1  0
 23 82  1  0
 23 83  1  0
 24 84  1  0
 27 85  1  1
 28 86  1  0
 28 87  1  0
 28 88  1  0
 29 89  1  0
 32 90  1  1
 33 91  1  0
 33 92  1  0
 33 93  1  0
 34 94  1  0
 39 95  1  0
 40 96  1  1
 41 97  1  0
 41 98  1  0
 41 99  1  0
 44100  1  0
 45101  1  1
 46102  1  0
 46103  1  0
 46104  1  0
 49105  1  0
 50106  1  1
 51107  1  0
 51108  1  0
 51109  1  0
 54110  1  0
 55111  1  6
 57112  1  0
 57113  1  0
 59114  1  0
 59115  1  0
 61116  1  0
 61117  1  0
M  END
