
     RDKit          3D

137139  0  0  0  0  0  0  0  0999 V2000
   -9.2897    5.1086   -0.4660 C   0  0  0  0  0  0  0  0  0  0  0  0
   -8.5611    4.2380   -1.4441 C   0  0  0  0  0  0  0  0  0  0  0  0
   -8.7183    4.4463   -2.6770 O   0  0  0  0  0  0  0  0  0  0  0  0
   -7.6864    3.1718   -1.0240 N   0  0  0  0  0  0  0  0  0  0  0  0
   -7.4122    2.8187    0.3769 C   0  0  2  0  0  0  0  0  0  0  0  0
   -5.9214    2.9736    0.7117 C   0  0  0  0  0  0  0  0  0  0  0  0
   -5.4067    4.7240    0.5242 S   0  0  0  0  0  0  0  0  0  0  0  0
   -4.0525    4.6815    1.7557 C   0  0  0  0  0  0  0  0  0  0  0  0
   -2.8459    3.9667    1.2105 C   0  0  0  0  0  0  0  0  0  0  0  0
   -1.9111    4.6601    0.4279 C   0  0  0  0  0  0  0  0  0  0  0  0
   -0.7442    4.0326   -0.0359 C   0  0  0  0  0  0  0  0  0  0  0  0
   -0.5350    2.6734    0.2679 C   0  0  0  0  0  0  0  0  0  0  0  0
   -1.4743    1.9599    1.0346 C   0  0  0  0  0  0  0  0  0  0  0  0
   -2.6220    2.6170    1.5100 C   0  0  0  0  0  0  0  0  0  0  0  0
   -1.2175    0.5214    1.4055 C   0  0  0  0  0  0  0  0  0  0  0  0
   -1.0720   -0.5122   -0.1034 S   0  0  0  0  0  0  0  0  0  0  0  0
   -0.9776   -2.1115    0.7867 C   0  0  0  0  0  0  0  0  0  0  0  0
   -1.3198   -3.2861   -0.1448 C   0  0  2  0  0  0  0  0  0  0  0  0
   -1.6421   -4.4693    0.6645 N   0  0  0  0  0  0  0  0  0  0  0  0
   -2.5827   -5.4909    0.2884 C   0  0  0  0  0  0  0  0  0  0  0  0
   -2.6486   -6.5355    0.9911 O   0  0  0  0  0  0  0  0  0  0  0  0
   -3.5022   -5.3264   -0.9079 C   0  0  1  0  0  0  0  0  0  0  0  0
   -4.2254   -6.6223   -1.2918 C   0  0  0  0  0  0  0  0  0  0  0  0
   -4.4681   -4.2536   -0.6650 N   0  0  0  0  0  0  0  0  0  0  0  0
   -5.2819   -4.1654    0.5184 C   0  0  0  0  0  0  0  0  0  0  0  0
   -5.6210   -5.2218    1.1256 O   0  0  0  0  0  0  0  0  0  0  0  0
   -5.8215   -2.8295    0.9931 C   0  0  1  0  0  0  0  0  0  0  0  0
   -5.9490   -2.8024    2.5213 C   0  0  0  0  0  0  0  0  0  0  0  0
   -4.9282   -1.7410    0.5789 N   0  0  0  0  0  0  0  0  0  0  0  0
   -5.1802   -0.8370   -0.5165 C   0  0  0  0  0  0  0  0  0  0  0  0
   -4.2328   -0.5804   -1.3079 O   0  0  0  0  0  0  0  0  0  0  0  0
   -6.4972   -0.1252   -0.7421 C   0  0  1  0  0  0  0  0  0  0  0  0
   -7.4493   -0.9262   -1.6351 C   0  0  0  0  0  0  0  0  0  0  0  0
   -7.1527    0.2368    0.5221 N   0  0  0  0  0  0  0  0  0  0  0  0
   -7.9349    1.4301    0.6895 C   0  0  0  0  0  0  0  0  0  0  0  0
   -9.0803    1.3322    1.2102 O   0  0  0  0  0  0  0  0  0  0  0  0
   -0.1952   -3.5931   -1.1069 C   0  0  0  0  0  0  0  0  0  0  0  0
    0.1814   -2.7149   -1.9345 O   0  0  0  0  0  0  0  0  0  0  0  0
    0.3700   -4.9056   -1.1871 N   0  0  0  0  0  0  0  0  0  0  0  0
    1.5372   -5.3667   -0.4185 C   0  0  2  0  0  0  0  0  0  0  0  0
    1.1885   -6.6887    0.2756 C   0  0  0  0  0  0  0  0  0  0  0  0
    2.0296   -4.3253    0.5700 C   0  0  0  0  0  0  0  0  0  0  0  0
    1.7332   -4.4268    1.7938 O   0  0  0  0  0  0  0  0  0  0  0  0
    2.7034   -3.1386    0.1210 N   0  0  0  0  0  0  0  0  0  0  0  0
    4.1157   -3.0724   -0.2900 C   0  0  2  0  0  0  0  0  0  0  0  0
    4.3534   -3.8574   -1.5856 C   0  0  0  0  0  0  0  0  0  0  0  0
    5.0594   -3.5284    0.8073 C   0  0  0  0  0  0  0  0  0  0  0  0
    4.5940   -3.9444    1.9033 O   0  0  0  0  0  0  0  0  0  0  0  0
    6.4849   -3.5338    0.6199 N   0  0  0  0  0  0  0  0  0  0  0  0
    7.2281   -2.4421   -0.0159 C   0  0  2  0  0  0  0  0  0  0  0  0
    8.2657   -3.0185   -0.9801 C   0  0  0  0  0  0  0  0  0  0  0  0
    7.9134   -1.6121    1.0438 C   0  0  0  0  0  0  0  0  0  0  0  0
    8.6351   -2.1911    1.9059 O   0  0  0  0  0  0  0  0  0  0  0  0
    7.7650   -0.1879    1.1245 N   0  0  0  0  0  0  0  0  0  0  0  0
    7.7033    0.6973   -0.0411 C   0  0  2  0  0  0  0  0  0  0  0  0
    9.0704    1.3709   -0.2243 C   0  0  0  0  0  0  0  0  0  0  0  0
    6.5780    1.6866    0.1508 C   0  0  0  0  0  0  0  0  0  0  0  0
    5.4283    1.2558    0.4348 O   0  0  0  0  0  0  0  0  0  0  0  0
    6.7862    3.0982    0.0606 N   0  0  0  0  0  0  0  0  0  0  0  0
    6.7641    3.7740   -1.2373 C   0  0  2  0  0  0  0  0  0  0  0  0
    7.5724    5.0723   -1.1691 C   0  0  0  0  0  0  0  0  0  0  0  0
    5.3524    4.0207   -1.7049 C   0  0  0  0  0  0  0  0  0  0  0  0
    4.9217    3.3743   -2.6954 O   0  0  0  0  0  0  0  0  0  0  0  0
    4.5309    5.0509   -1.1374 N   0  0  0  0  0  0  0  0  0  0  0  0
    3.8837    4.9009    0.1719 C   0  0  1  0  0  0  0  0  0  0  0  0
    3.5337    6.2652    0.7313 C   0  0  0  0  0  0  0  0  0  0  0  0
    4.5306    7.2855    0.7942 N   0  0  0  0  0  0  0  0  0  0  0  0
    2.3896    6.5053    1.1997 O   0  0  0  0  0  0  0  0  0  0  0  0
    2.6782    3.9229    0.0943 C   0  0  0  0  0  0  0  0  0  0  0  0
    1.7190    4.0205   -1.4723 S   0  0  0  0  0  0  0  0  0  0  0  0
    0.2321    4.8792   -0.8299 C   0  0  0  0  0  0  0  0  0  0  0  0
   -9.9234    5.8463   -1.0019 H   0  0  0  0  0  0  0  0  0  0  0  0
   -9.9469    4.4856    0.1823 H   0  0  0  0  0  0  0  0  0  0  0  0
   -8.5580    5.6624    0.1604 H   0  0  0  0  0  0  0  0  0  0  0  0
   -7.1883    2.6609   -1.7811 H   0  0  0  0  0  0  0  0  0  0  0  0
   -7.9485    3.5130    1.0579 H   0  0  0  0  0  0  0  0  0  0  0  0
   -5.2897    2.3550    0.0448 H   0  0  0  0  0  0  0  0  0  0  0  0
   -5.7636    2.6315    1.7570 H   0  0  0  0  0  0  0  0  0  0  0  0
   -3.7779    5.7310    2.0021 H   0  0  0  0  0  0  0  0  0  0  0  0
   -4.4001    4.2215    2.7041 H   0  0  0  0  0  0  0  0  0  0  0  0
   -2.0779    5.7110    0.2083 H   0  0  0  0  0  0  0  0  0  0  0  0
    0.3508    2.1566   -0.0816 H   0  0  0  0  0  0  0  0  0  0  0  0
   -3.3394    2.0735    2.1111 H   0  0  0  0  0  0  0  0  0  0  0  0
   -2.0501    0.1285    2.0371 H   0  0  0  0  0  0  0  0  0  0  0  0
   -0.2728    0.4539    1.9878 H   0  0  0  0  0  0  0  0  0  0  0  0
   -1.7000   -2.1076    1.6296 H   0  0  0  0  0  0  0  0  0  0  0  0
    0.0367   -2.2300    1.2244 H   0  0  0  0  0  0  0  0  0  0  0  0
   -2.2058   -2.9845   -0.7366 H   0  0  0  0  0  0  0  0  0  0  0  0
   -1.0750   -4.6357    1.5275 H   0  0  0  0  0  0  0  0  0  0  0  0
   -2.8727   -5.0477   -1.7845 H   0  0  0  0  0  0  0  0  0  0  0  0
   -3.4856   -7.3841   -1.6267 H   0  0  0  0  0  0  0  0  0  0  0  0
   -4.8017   -7.0482   -0.4429 H   0  0  0  0  0  0  0  0  0  0  0  0
   -4.9250   -6.4361   -2.1347 H   0  0  0  0  0  0  0  0  0  0  0  0
   -4.4703   -3.4501   -1.3331 H   0  0  0  0  0  0  0  0  0  0  0  0
   -6.8281   -2.7031    0.5561 H   0  0  0  0  0  0  0  0  0  0  0  0
   -6.2752   -1.7955    2.8623 H   0  0  0  0  0  0  0  0  0  0  0  0
   -6.7051   -3.5427    2.8610 H   0  0  0  0  0  0  0  0  0  0  0  0
   -4.9721   -3.0357    3.0001 H   0  0  0  0  0  0  0  0  0  0  0  0
   -3.9474   -1.7783    0.9306 H   0  0  0  0  0  0  0  0  0  0  0  0
   -6.2513    0.7922   -1.3031 H   0  0  0  0  0  0  0  0  0  0  0  0
   -7.9016   -1.7868   -1.1032 H   0  0  0  0  0  0  0  0  0  0  0  0
   -8.2773   -0.2675   -1.9747 H   0  0  0  0  0  0  0  0  0  0  0  0
   -6.9162   -1.2967   -2.5356 H   0  0  0  0  0  0  0  0  0  0  0  0
   -7.3860   -0.5390    1.1742 H   0  0  0  0  0  0  0  0  0  0  0  0
    0.0224   -5.5246   -1.9543 H   0  0  0  0  0  0  0  0  0  0  0  0
    2.3465   -5.5958   -1.1366 H   0  0  0  0  0  0  0  0  0  0  0  0
    0.3450   -6.5522    0.9839 H   0  0  0  0  0  0  0  0  0  0  0  0
    0.8921   -7.4479   -0.4796 H   0  0  0  0  0  0  0  0  0  0  0  0
    2.0733   -7.0748    0.8243 H   0  0  0  0  0  0  0  0  0  0  0  0
    2.2432   -2.2276    0.3434 H   0  0  0  0  0  0  0  0  0  0  0  0
    4.3388   -2.0053   -0.5115 H   0  0  0  0  0  0  0  0  0  0  0  0
    5.2843   -3.5090   -2.0807 H   0  0  0  0  0  0  0  0  0  0  0  0
    3.5111   -3.7018   -2.2928 H   0  0  0  0  0  0  0  0  0  0  0  0
    4.4664   -4.9435   -1.3767 H   0  0  0  0  0  0  0  0  0  0  0  0
    7.0278   -4.2302    1.1795 H   0  0  0  0  0  0  0  0  0  0  0  0
    6.5362   -1.8079   -0.6002 H   0  0  0  0  0  0  0  0  0  0  0  0
    7.7603   -3.5984   -1.7815 H   0  0  0  0  0  0  0  0  0  0  0  0
    8.8419   -2.1922   -1.4558 H   0  0  0  0  0  0  0  0  0  0  0  0
    8.9663   -3.6941   -0.4460 H   0  0  0  0  0  0  0  0  0  0  0  0
    7.9516    0.2581    2.0536 H   0  0  0  0  0  0  0  0  0  0  0  0
    7.4894    0.1241   -0.9673 H   0  0  0  0  0  0  0  0  0  0  0  0
    9.2993    2.0449    0.6306 H   0  0  0  0  0  0  0  0  0  0  0  0
    9.0997    1.9504   -1.1713 H   0  0  0  0  0  0  0  0  0  0  0  0
    9.8614    0.5948   -0.2845 H   0  0  0  0  0  0  0  0  0  0  0  0
    6.6978    3.6592    0.9372 H   0  0  0  0  0  0  0  0  0  0  0  0
    7.2666    3.1222   -1.9867 H   0  0  0  0  0  0  0  0  0  0  0  0
    7.5547    5.5925   -2.1533 H   0  0  0  0  0  0  0  0  0  0  0  0
    7.1647    5.7529   -0.3942 H   0  0  0  0  0  0  0  0  0  0  0  0
    8.6302    4.8413   -0.9129 H   0  0  0  0  0  0  0  0  0  0  0  0
    4.0579    5.6782   -1.8264 H   0  0  0  0  0  0  0  0  0  0  0  0
    4.6045    4.4672    0.8868 H   0  0  0  0  0  0  0  0  0  0  0  0
    5.5139    7.0999    0.5047 H   0  0  0  0  0  0  0  0  0  0  0  0
    4.2964    8.2260    1.1822 H   0  0  0  0  0  0  0  0  0  0  0  0
    2.0194    4.0216    0.9849 H   0  0  0  0  0  0  0  0  0  0  0  0
    3.0821    2.8892    0.1383 H   0  0  0  0  0  0  0  0  0  0  0  0
    0.5374    5.7583   -0.2268 H   0  0  0  0  0  0  0  0  0  0  0  0
   -0.3086    5.2824   -1.7152 H   0  0  0  0  0  0  0  0  0  0  0  0
  1  2  1  0
  2  3  2  0
  2  4  1  0
  4  5  1  0
  5  6  1  0
  6  7  1  0
  7  8  1  0
  8  9  1  0
  9 10  1  0
 10 11  2  0
 11 12  1  0
 12 13  2  0
 13 14  1  0
 13 15  1  0
 15 16  1  0
 16 17  1  0
 17 18  1  0
 18 19  1  0
 19 20  1  0
 20 21  2  0
 20 22  1  0
 22 23  1  0
 22 24  1  0
 24 25  1  0
 25 26  2  0
 25 27  1  0
 27 28  1  0
 27 29  1  0
 29 30  1  0
 30 31  2  0
 30 32  1  0
 32 33  1  0
 32 34  1  0
 34 35  1  0
 35 36  2  0
 18 37  1  0
 37 38  2  0
 37 39  1  0
 39 40  1  0
 40 41  1  0
 40 42  1  0
 42 43  2  0
 42 44  1  0
 44 45  1  0
 45 46  1  0
 45 47  1  0
 47 48  2  0
 47 49  1  0
 49 50  1  0
 50 51  1  0
 50 52  1  0
 52 53  2  0
 52 54  1  0
 54 55  1  0
 55 56  1  0
 55 57  1  0
 57 58  2  0
 57 59  1  0
 59 60  1  0
 60 61  1  0
 60 62  1  0
 62 63  2  0
 62 64  1  0
 64 65  1  0
 65 66  1  0
 66 67  1  0
 66 68  2  0
 65 69  1  0
 69 70  1  0
 70 71  1  0
 35  5  1  0
 14  9  2  0
 71 11  1  0
  1 72  1  0
  1 73  1  0
  1 74  1  0
  4 75  1  0
  5 76  1  1
  6 77  1  0
  6 78  1  0
  8 79  1  0
  8 80  1  0
 10 81  1  0
 12 82  1  0
 14 83  1  0
 15 84  1  0
 15 85  1  0
 17 86  1  0
 17 87  1  0
 18 88  1  6
 19 89  1  0
 22 90  1  6
 23 91  1  0
 23 92  1  0
 23 93  1  0
 24 94  1  0
 27 95  1  6
 28 96  1  0
 28 97  1  0
 28 98  1  0
 29 99  1  0
 32100  1  6
 33101  1  0
 33102  1  0
 33103  1  0
 34104  1  0
 39105  1  0
 40106  1  6
 41107  1  0
 41108  1  0
 41109  1  0
 44110  1  0
 45111  1  6
 46112  1  0
 46113  1  0
 46114  1  0
 49115  1  0
 50116  1  6
 51117  1  0
 51118  1  0
 51119  1  0
 54120  1  0
 55121  1  6
 56122  1  0
 56123  1  0
 56124  1  0
 59125  1  0
 60126  1  6
 61127  1  0
 61128  1  0
 61129  1  0
 64130  1  0
 65131  1  1
 67132  1  0
 67133  1  0
 69134  1  0
 69135  1  0
 71136  1  0
 71137  1  0
M  END
