
     RDKit          3D

117119  0  0  0  0  0  0  0  0999 V2000
    8.2827    4.6142    1.2182 C   0  0  0  0  0  0  0  0  0  0  0  0
    7.9083    3.9711   -0.0822 C   0  0  0  0  0  0  0  0  0  0  0  0
    8.7790    3.8682   -0.9879 O   0  0  0  0  0  0  0  0  0  0  0  0
    6.5805    3.4737   -0.3297 N   0  0  0  0  0  0  0  0  0  0  0  0
    5.4963    3.5158    0.6601 C   0  0  1  0  0  0  0  0  0  0  0  0
    4.1370    3.7060   -0.0402 C   0  0  0  0  0  0  0  0  0  0  0  0
    2.8789    4.4048    1.0995 S   0  0  0  0  0  0  0  0  0  0  0  0
    2.0526    2.8384    1.5527 C   0  0  0  0  0  0  0  0  0  0  0  0
    1.2407    2.2979    0.4087 C   0  0  0  0  0  0  0  0  0  0  0  0
    0.0894    2.9763   -0.0086 C   0  0  0  0  0  0  0  0  0  0  0  0
   -0.6864    2.4748   -1.0650 C   0  0  0  0  0  0  0  0  0  0  0  0
   -0.2681    1.3226   -1.7465 C   0  0  0  0  0  0  0  0  0  0  0  0
    0.8585    0.6031   -1.3043 C   0  0  0  0  0  0  0  0  0  0  0  0
    1.6061    1.0980   -0.2242 C   0  0  0  0  0  0  0  0  0  0  0  0
    1.3311   -0.6535   -2.0027 C   0  0  0  0  0  0  0  0  0  0  0  0
    0.0112   -1.6746   -2.7647 S   0  0  0  0  0  0  0  0  0  0  0  0
   -1.0880   -1.9048   -1.3110 C   0  0  0  0  0  0  0  0  0  0  0  0
   -0.4316   -2.6872   -0.1557 C   0  0  2  0  0  0  0  0  0  0  0  0
    0.1543   -3.9331   -0.6662 N   0  0  0  0  0  0  0  0  0  0  0  0
    1.4944   -4.3906   -0.4187 C   0  0  0  0  0  0  0  0  0  0  0  0
    1.9881   -5.2422   -1.2074 O   0  0  0  0  0  0  0  0  0  0  0  0
    2.2963   -3.9919    0.8054 C   0  0  1  0  0  0  0  0  0  0  0  0
    2.2698   -5.1582    1.8034 C   0  0  0  0  0  0  0  0  0  0  0  0
    3.6594   -3.6239    0.3799 N   0  0  0  0  0  0  0  0  0  0  0  0
    4.8671   -3.7754    1.1527 C   0  0  0  0  0  0  0  0  0  0  0  0
    4.8159   -3.9810    2.3939 O   0  0  0  0  0  0  0  0  0  0  0  0
    6.2141   -3.6282    0.4901 C   0  0  1  0  0  0  0  0  0  0  0  0
    6.4104   -4.7462   -0.5463 C   0  0  0  0  0  0  0  0  0  0  0  0
    6.3136   -2.3082   -0.1409 N   0  0  0  0  0  0  0  0  0  0  0  0
    6.3646   -1.1011    0.6333 C   0  0  0  0  0  0  0  0  0  0  0  0
    6.6842   -1.1632    1.8515 O   0  0  0  0  0  0  0  0  0  0  0  0
    6.0360    0.2539    0.0393 C   0  0  1  0  0  0  0  0  0  0  0  0
    5.3203    0.1541   -1.3148 C   0  0  0  0  0  0  0  0  0  0  0  0
    5.1778    0.9836    0.9748 N   0  0  0  0  0  0  0  0  0  0  0  0
    5.5159    2.2706    1.5131 C   0  0  0  0  0  0  0  0  0  0  0  0
    5.7725    2.3699    2.7412 O   0  0  0  0  0  0  0  0  0  0  0  0
   -1.4119   -3.0239    0.9457 C   0  0  0  0  0  0  0  0  0  0  0  0
   -1.0460   -3.8160    1.8611 O   0  0  0  0  0  0  0  0  0  0  0  0
   -2.7006   -2.3907    1.0388 N   0  0  0  0  0  0  0  0  0  0  0  0
   -3.9738   -3.1210    1.0609 C   0  0  2  0  0  0  0  0  0  0  0  0
   -3.9245   -4.3788    1.9388 C   0  0  0  0  0  0  0  0  0  0  0  0
   -4.3799   -3.4554   -0.3577 C   0  0  0  0  0  0  0  0  0  0  0  0
   -3.7899   -4.4006   -0.9547 O   0  0  0  0  0  0  0  0  0  0  0  0
   -5.3118   -2.6522   -1.1022 N   0  0  0  0  0  0  0  0  0  0  0  0
   -6.4483   -1.9252   -0.5228 C   0  0  2  0  0  0  0  0  0  0  0  0
   -7.4700   -2.9215    0.0329 C   0  0  0  0  0  0  0  0  0  0  0  0
   -7.0968   -1.0512   -1.5831 C   0  0  0  0  0  0  0  0  0  0  0  0
   -7.5697   -1.6125   -2.6097 O   0  0  0  0  0  0  0  0  0  0  0  0
   -7.1547    0.3875   -1.4932 N   0  0  0  0  0  0  0  0  0  0  0  0
   -6.9842    1.1681   -0.2580 C   0  0  2  0  0  0  0  0  0  0  0  0
   -8.2063    1.0016    0.6451 C   0  0  0  0  0  0  0  0  0  0  0  0
   -6.7587    2.6346   -0.5473 C   0  0  0  0  0  0  0  0  0  0  0  0
   -7.2287    3.1701   -1.5951 O   0  0  0  0  0  0  0  0  0  0  0  0
   -6.0825    3.4432    0.4220 N   0  0  0  0  0  0  0  0  0  0  0  0
   -5.0750    4.4320    0.0352 C   0  0  1  0  0  0  0  0  0  0  0  0
   -5.4835    5.7980    0.5136 C   0  0  0  0  0  0  0  0  0  0  0  0
   -5.2248    6.9490   -0.2930 N   0  0  0  0  0  0  0  0  0  0  0  0
   -6.0013    5.9364    1.6513 O   0  0  0  0  0  0  0  0  0  0  0  0
   -3.7182    4.0461    0.6419 C   0  0  0  0  0  0  0  0  0  0  0  0
   -3.1733    2.4310   -0.0342 S   0  0  0  0  0  0  0  0  0  0  0  0
   -2.0408    3.0603   -1.3306 C   0  0  0  0  0  0  0  0  0  0  0  0
    8.0915    3.9104    2.0533 H   0  0  0  0  0  0  0  0  0  0  0  0
    7.6906    5.5400    1.3702 H   0  0  0  0  0  0  0  0  0  0  0  0
    9.3606    4.8813    1.2222 H   0  0  0  0  0  0  0  0  0  0  0  0
    6.4013    3.0077   -1.2497 H   0  0  0  0  0  0  0  0  0  0  0  0
    5.6457    4.3988    1.3166 H   0  0  0  0  0  0  0  0  0  0  0  0
    4.2630    4.4436   -0.8622 H   0  0  0  0  0  0  0  0  0  0  0  0
    3.7886    2.7692   -0.5124 H   0  0  0  0  0  0  0  0  0  0  0  0
    2.8070    2.1033    1.8960 H   0  0  0  0  0  0  0  0  0  0  0  0
    1.3805    3.0293    2.4162 H   0  0  0  0  0  0  0  0  0  0  0  0
   -0.2384    3.8619    0.5269 H   0  0  0  0  0  0  0  0  0  0  0  0
   -0.8579    0.9529   -2.5755 H   0  0  0  0  0  0  0  0  0  0  0  0
    2.4843    0.5633    0.1034 H   0  0  0  0  0  0  0  0  0  0  0  0
    2.0371   -0.3562   -2.8029 H   0  0  0  0  0  0  0  0  0  0  0  0
    1.9007   -1.3004   -1.2985 H   0  0  0  0  0  0  0  0  0  0  0  0
   -1.9816   -2.4641   -1.6689 H   0  0  0  0  0  0  0  0  0  0  0  0
   -1.4348   -0.9155   -0.9513 H   0  0  0  0  0  0  0  0  0  0  0  0
    0.3459   -2.0313    0.2756 H   0  0  0  0  0  0  0  0  0  0  0  0
   -0.4218   -4.4914   -1.3315 H   0  0  0  0  0  0  0  0  0  0  0  0
    1.8513   -3.1160    1.3073 H   0  0  0  0  0  0  0  0  0  0  0  0
    2.5619   -4.8072    2.8136 H   0  0  0  0  0  0  0  0  0  0  0  0
    1.2359   -5.5577    1.8998 H   0  0  0  0  0  0  0  0  0  0  0  0
    2.9375   -5.9815    1.4754 H   0  0  0  0  0  0  0  0  0  0  0  0
    3.7504   -3.1307   -0.5410 H   0  0  0  0  0  0  0  0  0  0  0  0
    7.0159   -3.7191    1.2457 H   0  0  0  0  0  0  0  0  0  0  0  0
    5.6468   -4.6849   -1.3518 H   0  0  0  0  0  0  0  0  0  0  0  0
    7.4220   -4.6597   -0.9970 H   0  0  0  0  0  0  0  0  0  0  0  0
    6.3333   -5.7381   -0.0580 H   0  0  0  0  0  0  0  0  0  0  0  0
    6.4615   -2.2579   -1.1778 H   0  0  0  0  0  0  0  0  0  0  0  0
    6.9874    0.8047   -0.1025 H   0  0  0  0  0  0  0  0  0  0  0  0
    6.0142   -0.2404   -2.0908 H   0  0  0  0  0  0  0  0  0  0  0  0
    4.9942    1.1587   -1.6519 H   0  0  0  0  0  0  0  0  0  0  0  0
    4.4243   -0.4981   -1.2339 H   0  0  0  0  0  0  0  0  0  0  0  0
    4.4482    0.4357    1.4869 H   0  0  0  0  0  0  0  0  0  0  0  0
   -2.7611   -1.3819    0.7968 H   0  0  0  0  0  0  0  0  0  0  0  0
   -4.7293   -2.4624    1.5297 H   0  0  0  0  0  0  0  0  0  0  0  0
   -3.5759   -4.1149    2.9607 H   0  0  0  0  0  0  0  0  0  0  0  0
   -3.2447   -5.1457    1.5067 H   0  0  0  0  0  0  0  0  0  0  0  0
   -4.9418   -4.8229    2.0221 H   0  0  0  0  0  0  0  0  0  0  0  0
   -5.2230   -2.6934   -2.1448 H   0  0  0  0  0  0  0  0  0  0  0  0
   -6.0925   -1.2993    0.3112 H   0  0  0  0  0  0  0  0  0  0  0  0
   -7.0554   -3.4343    0.9228 H   0  0  0  0  0  0  0  0  0  0  0  0
   -7.7194   -3.6922   -0.7309 H   0  0  0  0  0  0  0  0  0  0  0  0
   -8.4035   -2.4020    0.3419 H   0  0  0  0  0  0  0  0  0  0  0  0
   -7.4305    0.8791   -2.3754 H   0  0  0  0  0  0  0  0  0  0  0  0
   -6.0760    0.8232    0.2756 H   0  0  0  0  0  0  0  0  0  0  0  0
   -9.1223    1.3481    0.1156 H   0  0  0  0  0  0  0  0  0  0  0  0
   -8.0756    1.5890    1.5747 H   0  0  0  0  0  0  0  0  0  0  0  0
   -8.3348   -0.0631    0.9257 H   0  0  0  0  0  0  0  0  0  0  0  0
   -6.1099    3.1261    1.4144 H   0  0  0  0  0  0  0  0  0  0  0  0
   -4.9606    4.4551   -1.0738 H   0  0  0  0  0  0  0  0  0  0  0  0
   -4.6864    6.8591   -1.1868 H   0  0  0  0  0  0  0  0  0  0  0  0
   -5.4896    7.9016    0.0490 H   0  0  0  0  0  0  0  0  0  0  0  0
   -2.9640    4.8451    0.4666 H   0  0  0  0  0  0  0  0  0  0  0  0
   -3.8253    3.9331    1.7429 H   0  0  0  0  0  0  0  0  0  0  0  0
   -1.9737    4.1673   -1.3576 H   0  0  0  0  0  0  0  0  0  0  0  0
   -2.4293    2.7323   -2.3242 H   0  0  0  0  0  0  0  0  0  0  0  0
  1  2  1  0
  2  3  2  0
  2  4  1  0
  4  5  1  0
  5  6  1  0
  6  7  1  0
  7  8  1  0
  8  9  1  0
  9 10  2  0
 10 11  1  0
 11 12  2  0
 12 13  1  0
 13 14  2  0
 13 15  1  0
 15 16  1  0
 16 17  1  0
 17 18  1  0
 18 19  1  0
 19 20  1  0
 20 21  2  0
 20 22  1  0
 22 23  1  0
 22 24  1  0
 24 25  1  0
 25 26  2  0
 25 27  1  0
 27 28  1  0
 27 29  1  0
 29 30  1  0
 30 31  2  0
 30 32  1  0
 32 33  1  0
 32 34  1  0
 34 35  1  0
 35 36  2  0
 18 37  1  0
 37 38  2  0
 37 39  1  0
 39 40  1  0
 40 41  1  0
 40 42  1  0
 42 43  2  0
 42 44  1  0
 44 45  1  0
 45 46  1  0
 45 47  1  0
 47 48  2  0
 47 49  1  0
 49 50  1  0
 50 51  1  0
 50 52  1  0
 52 53  2  0
 52 54  1  0
 54 55  1  0
 55 56  1  0
 56 57  1  0
 56 58  2  0
 55 59  1  0
 59 60  1  0
 60 61  1  0
 35  5  1  0
 14  9  1  0
 61 11  1  0
  1 62  1  0
  1 63  1  0
  1 64  1  0
  4 65  1  0
  5 66  1  1
  6 67  1  0
  6 68  1  0
  8 69  1  0
  8 70  1  0
 10 71  1  0
 12 72  1  0
 14 73  1  0
 15 74  1  0
 15 75  1  0
 17 76  1  0
 17 77  1  0
 18 78  1  1
 19 79  1  0
 22 80  1  1
 23 81  1  0
 23 82  1  0
 23 83  1  0
 24 84  1  0
 27 85  1  1
 28 86  1  0
 28 87  1  0
 28 88  1  0
 29 89  1  0
 32 90  1  6
 33 91  1  0
 33 92  1  0
 33 93  1  0
 34 94  1  0
 39 95  1  0
 40 96  1  1
 41 97  1  0
 41 98  1  0
 41 99  1  0
 44100  1  0
 45101  1  1
 46102  1  0
 46103  1  0
 46104  1  0
 49105  1  0
 50106  1  1
 51107  1  0
 51108  1  0
 51109  1  0
 54110  1  0
 55111  1  6
 57112  1  0
 57113  1  0
 59114  1  0
 59115  1  0
 61116  1  0
 61117  1  0
M  END
