
     RDKit          3D

157159  0  0  0  0  0  0  0  0999 V2000
   -9.2283    5.9624   -0.7160 C   0  0  0  0  0  0  0  0  0  0  0  0
   -9.0302    4.6561   -0.0136 C   0  0  0  0  0  0  0  0  0  0  0  0
   -9.8664    4.2929    0.8566 O   0  0  0  0  0  0  0  0  0  0  0  0
   -7.9038    3.8209   -0.3362 N   0  0  0  0  0  0  0  0  0  0  0  0
   -7.6851    2.5025    0.2730 C   0  0  2  0  0  0  0  0  0  0  0  0
   -6.2304    2.3694    0.7351 C   0  0  0  0  0  0  0  0  0  0  0  0
   -5.8337    3.6261    2.0071 S   0  0  0  0  0  0  0  0  0  0  0  0
   -4.2358    2.8811    2.5006 C   0  0  0  0  0  0  0  0  0  0  0  0
   -3.2311    2.9925    1.3871 C   0  0  0  0  0  0  0  0  0  0  0  0
   -2.6305    4.2270    1.1059 C   0  0  0  0  0  0  0  0  0  0  0  0
   -1.7137    4.3407    0.0491 C   0  0  0  0  0  0  0  0  0  0  0  0
   -1.4003    3.2106   -0.7221 C   0  0  0  0  0  0  0  0  0  0  0  0
   -1.9989    1.9671   -0.4539 C   0  0  0  0  0  0  0  0  0  0  0  0
   -2.8952    1.8676    0.6217 C   0  0  0  0  0  0  0  0  0  0  0  0
   -1.5788    0.7443   -1.2350 C   0  0  0  0  0  0  0  0  0  0  0  0
   -3.0026   -0.2869   -1.7690 S   0  0  0  0  0  0  0  0  0  0  0  0
   -3.0444   -1.4367   -0.3402 C   0  0  0  0  0  0  0  0  0  0  0  0
   -2.8579   -2.8953   -0.7774 C   0  0  2  0  0  0  0  0  0  0  0  0
   -3.1559   -3.7811    0.3537 N   0  0  0  0  0  0  0  0  0  0  0  0
   -3.8012   -5.0644    0.2542 C   0  0  0  0  0  0  0  0  0  0  0  0
   -3.8299   -5.8026    1.2762 O   0  0  0  0  0  0  0  0  0  0  0  0
   -4.5102   -5.5065   -1.0117 C   0  0  1  0  0  0  0  0  0  0  0  0
   -4.7986   -7.0159   -1.0368 C   0  0  0  0  0  0  0  0  0  0  0  0
   -5.7534   -4.7468   -1.1967 N   0  0  0  0  0  0  0  0  0  0  0  0
   -6.7955   -4.6752   -0.2120 C   0  0  0  0  0  0  0  0  0  0  0  0
   -6.7312   -5.3814    0.8328 O   0  0  0  0  0  0  0  0  0  0  0  0
   -7.9876   -3.7793   -0.4310 C   0  0  1  0  0  0  0  0  0  0  0  0
   -9.1209   -4.5558   -1.0983 C   0  0  0  0  0  0  0  0  0  0  0  0
   -8.4445   -3.2253    0.8454 N   0  0  0  0  0  0  0  0  0  0  0  0
   -8.3823   -1.8298    1.1466 C   0  0  0  0  0  0  0  0  0  0  0  0
   -7.8788   -1.4632    2.2436 O   0  0  0  0  0  0  0  0  0  0  0  0
   -8.9403   -0.8007    0.1987 C   0  0  1  0  0  0  0  0  0  0  0  0
  -10.0304    0.0200    0.9132 C   0  0  0  0  0  0  0  0  0  0  0  0
   -7.8460    0.0332   -0.3155 N   0  0  0  0  0  0  0  0  0  0  0  0
   -8.0145    1.4016   -0.7054 C   0  0  0  0  0  0  0  0  0  0  0  0
   -8.3993    1.6682   -1.8738 O   0  0  0  0  0  0  0  0  0  0  0  0
   -1.4602   -3.1715   -1.2581 C   0  0  0  0  0  0  0  0  0  0  0  0
   -1.2712   -3.6260   -2.4196 O   0  0  0  0  0  0  0  0  0  0  0  0
   -0.3513   -3.0080   -0.3670 N   0  0  0  0  0  0  0  0  0  0  0  0
    0.5897   -4.0929   -0.0622 C   0  0  2  0  0  0  0  0  0  0  0  0
   -0.1702   -5.3662    0.3366 C   0  0  0  0  0  0  0  0  0  0  0  0
    1.5044   -3.6773    1.0606 C   0  0  0  0  0  0  0  0  0  0  0  0
    1.0470   -2.9814    2.0083 O   0  0  0  0  0  0  0  0  0  0  0  0
    2.8960   -4.0236    1.0636 N   0  0  0  0  0  0  0  0  0  0  0  0
    3.3217   -5.4143    1.2457 C   0  0  2  0  0  0  0  0  0  0  0  0
    4.5934   -5.5107    2.0963 C   0  0  0  0  0  0  0  0  0  0  0  0
    3.4686   -6.1343   -0.0834 C   0  0  0  0  0  0  0  0  0  0  0  0
    2.7550   -7.1548   -0.2845 O   0  0  0  0  0  0  0  0  0  0  0  0
    4.3887   -5.7421   -1.1258 N   0  0  0  0  0  0  0  0  0  0  0  0
    5.3667   -4.6485   -1.0797 C   0  0  2  0  0  0  0  0  0  0  0  0
    5.5244   -4.0786   -2.4970 C   0  0  0  0  0  0  0  0  0  0  0  0
    6.6943   -5.1650   -0.5782 C   0  0  0  0  0  0  0  0  0  0  0  0
    7.0071   -6.3708   -0.7928 O   0  0  0  0  0  0  0  0  0  0  0  0
    7.5884   -4.3449    0.1940 N   0  0  0  0  0  0  0  0  0  0  0  0
    7.8879   -2.9460   -0.1401 C   0  0  2  0  0  0  0  0  0  0  0  0
    8.9670   -2.9262   -1.2249 C   0  0  0  0  0  0  0  0  0  0  0  0
    8.3617   -2.1887    1.0826 C   0  0  0  0  0  0  0  0  0  0  0  0
    8.4606   -2.7825    2.1911 O   0  0  0  0  0  0  0  0  0  0  0  0
    8.7748   -0.8173    1.0043 N   0  0  0  0  0  0  0  0  0  0  0  0
    7.8703    0.2732    0.6116 C   0  0  2  0  0  0  0  0  0  0  0  0
    7.9165    0.4877   -0.9087 C   0  0  0  0  0  0  0  0  0  0  0  0
    8.2789    1.5563    1.3058 C   0  0  0  0  0  0  0  0  0  0  0  0
    9.4921    1.9164    1.2783 O   0  0  0  0  0  0  0  0  0  0  0  0
    7.3320    2.3654    2.0151 N   0  0  0  0  0  0  0  0  0  0  0  0
    6.1927    3.0583    1.3884 C   0  0  2  0  0  0  0  0  0  0  0  0
    5.0856    2.0702    0.9957 C   0  0  0  0  0  0  0  0  0  0  0  0
    6.6263    3.9458    0.2359 C   0  0  0  0  0  0  0  0  0  0  0  0
    7.8475    4.0751   -0.0469 O   0  0  0  0  0  0  0  0  0  0  0  0
    5.6471    4.7146   -0.4862 N   0  0  0  0  0  0  0  0  0  0  0  0
    5.9742    6.0044   -1.1157 C   0  0  2  0  0  0  0  0  0  0  0  0
    6.5639    6.9968   -0.1070 C   0  0  0  0  0  0  0  0  0  0  0  0
    4.7709    6.6028   -1.8169 C   0  0  0  0  0  0  0  0  0  0  0  0
    4.7351    6.5829   -3.0698 O   0  0  0  0  0  0  0  0  0  0  0  0
    3.7749    7.3626   -1.1066 N   0  0  0  0  0  0  0  0  0  0  0  0
    2.9804    6.8313    0.0073 C   0  0  1  0  0  0  0  0  0  0  0  0
    3.1434    7.7003    1.2278 C   0  0  0  0  0  0  0  0  0  0  0  0
    2.8745    9.1009    1.1789 N   0  0  0  0  0  0  0  0  0  0  0  0
    3.5436    7.1833    2.3062 O   0  0  0  0  0  0  0  0  0  0  0  0
    1.5066    6.7113   -0.4089 C   0  0  0  0  0  0  0  0  0  0  0  0
    0.6435    5.5288    0.6824 S   0  0  0  0  0  0  0  0  0  0  0  0
   -0.9739    5.6308   -0.1746 C   0  0  0  0  0  0  0  0  0  0  0  0
   -9.2074    6.7882    0.0246 H   0  0  0  0  0  0  0  0  0  0  0  0
   -8.4266    6.1405   -1.4650 H   0  0  0  0  0  0  0  0  0  0  0  0
  -10.2118    5.9636   -1.2378 H   0  0  0  0  0  0  0  0  0  0  0  0
   -7.2717    4.1184   -1.1116 H   0  0  0  0  0  0  0  0  0  0  0  0
   -8.3310    2.3873    1.1691 H   0  0  0  0  0  0  0  0  0  0  0  0
   -5.5553    2.5041   -0.1402 H   0  0  0  0  0  0  0  0  0  0  0  0
   -6.0664    1.3553    1.1617 H   0  0  0  0  0  0  0  0  0  0  0  0
   -4.3950    1.8202    2.7863 H   0  0  0  0  0  0  0  0  0  0  0  0
   -3.8482    3.3973    3.4053 H   0  0  0  0  0  0  0  0  0  0  0  0
   -2.8598    5.0904    1.7205 H   0  0  0  0  0  0  0  0  0  0  0  0
   -0.6563    3.2959   -1.5061 H   0  0  0  0  0  0  0  0  0  0  0  0
   -3.3551    0.9245    0.8677 H   0  0  0  0  0  0  0  0  0  0  0  0
   -1.0608    1.0639   -2.1660 H   0  0  0  0  0  0  0  0  0  0  0  0
   -0.8389    0.1554   -0.6545 H   0  0  0  0  0  0  0  0  0  0  0  0
   -2.2965   -1.1794    0.4402 H   0  0  0  0  0  0  0  0  0  0  0  0
   -4.0459   -1.3380    0.1305 H   0  0  0  0  0  0  0  0  0  0  0  0
   -3.5746   -3.0744   -1.6076 H   0  0  0  0  0  0  0  0  0  0  0  0
   -2.7456   -3.5301    1.2827 H   0  0  0  0  0  0  0  0  0  0  0  0
   -3.8359   -5.3107   -1.8768 H   0  0  0  0  0  0  0  0  0  0  0  0
   -3.8490   -7.5864   -1.0195 H   0  0  0  0  0  0  0  0  0  0  0  0
   -5.4122   -7.3307   -0.1672 H   0  0  0  0  0  0  0  0  0  0  0  0
   -5.3488   -7.2840   -1.9626 H   0  0  0  0  0  0  0  0  0  0  0  0
   -5.8778   -4.2259   -2.1004 H   0  0  0  0  0  0  0  0  0  0  0  0
   -7.6864   -2.9535   -1.1144 H   0  0  0  0  0  0  0  0  0  0  0  0
   -8.7878   -4.9518   -2.0834 H   0  0  0  0  0  0  0  0  0  0  0  0
   -9.9879   -3.8795   -1.2664 H   0  0  0  0  0  0  0  0  0  0  0  0
   -9.4467   -5.4040   -0.4555 H   0  0  0  0  0  0  0  0  0  0  0  0
   -8.6455   -3.8899    1.6313 H   0  0  0  0  0  0  0  0  0  0  0  0
   -9.4211   -1.3125   -0.6608 H   0  0  0  0  0  0  0  0  0  0  0  0
  -10.4807    0.7585    0.2152 H   0  0  0  0  0  0  0  0  0  0  0  0
   -9.6191    0.5504    1.7982 H   0  0  0  0  0  0  0  0  0  0  0  0
  -10.8412   -0.6553    1.2551 H   0  0  0  0  0  0  0  0  0  0  0  0
   -7.0513   -0.4675   -0.7771 H   0  0  0  0  0  0  0  0  0  0  0  0
   -0.0580   -2.0221   -0.1606 H   0  0  0  0  0  0  0  0  0  0  0  0
    1.1995   -4.3157   -0.9651 H   0  0  0  0  0  0  0  0  0  0  0  0
    0.5289   -6.1898    0.5849 H   0  0  0  0  0  0  0  0  0  0  0  0
   -0.8130   -5.1760    1.2198 H   0  0  0  0  0  0  0  0  0  0  0  0
   -0.8007   -5.7157   -0.5076 H   0  0  0  0  0  0  0  0  0  0  0  0
    3.5536   -3.2634    1.3535 H   0  0  0  0  0  0  0  0  0  0  0  0
    2.5398   -5.9508    1.8298 H   0  0  0  0  0  0  0  0  0  0  0  0
    4.3545   -5.2300    3.1437 H   0  0  0  0  0  0  0  0  0  0  0  0
    4.9867   -6.5498    2.0958 H   0  0  0  0  0  0  0  0  0  0  0  0
    5.3769   -4.8186    1.7381 H   0  0  0  0  0  0  0  0  0  0  0  0
    4.4608   -6.4036   -1.9346 H   0  0  0  0  0  0  0  0  0  0  0  0
    5.0019   -3.8314   -0.4272 H   0  0  0  0  0  0  0  0  0  0  0  0
    6.0028   -4.8233   -3.1699 H   0  0  0  0  0  0  0  0  0  0  0  0
    4.5269   -3.8204   -2.9124 H   0  0  0  0  0  0  0  0  0  0  0  0
    6.1374   -3.1549   -2.4985 H   0  0  0  0  0  0  0  0  0  0  0  0
    8.3143   -4.8636    0.7385 H   0  0  0  0  0  0  0  0  0  0  0  0
    6.9734   -2.4409   -0.5091 H   0  0  0  0  0  0  0  0  0  0  0  0
    9.1654   -1.8996   -1.5900 H   0  0  0  0  0  0  0  0  0  0  0  0
    9.9181   -3.3453   -0.8273 H   0  0  0  0  0  0  0  0  0  0  0  0
    8.6513   -3.5421   -2.0956 H   0  0  0  0  0  0  0  0  0  0  0  0
    9.6367   -0.5822    1.5518 H   0  0  0  0  0  0  0  0  0  0  0  0
    6.8407    0.0095    0.9058 H   0  0  0  0  0  0  0  0  0  0  0  0
    8.9737    0.5251   -1.2606 H   0  0  0  0  0  0  0  0  0  0  0  0
    7.3850   -0.3320   -1.4297 H   0  0  0  0  0  0  0  0  0  0  0  0
    7.4207    1.4397   -1.1946 H   0  0  0  0  0  0  0  0  0  0  0  0
    7.6298    2.7113    2.9570 H   0  0  0  0  0  0  0  0  0  0  0  0
    5.7533    3.7348    2.1576 H   0  0  0  0  0  0  0  0  0  0  0  0
    4.9497    1.3102    1.7916 H   0  0  0  0  0  0  0  0  0  0  0  0
    4.1220    2.6058    0.8875 H   0  0  0  0  0  0  0  0  0  0  0  0
    5.3142    1.5697    0.0328 H   0  0  0  0  0  0  0  0  0  0  0  0
    4.6668    4.3747   -0.4786 H   0  0  0  0  0  0  0  0  0  0  0  0
    6.7506    5.8106   -1.8847 H   0  0  0  0  0  0  0  0  0  0  0  0
    6.7235    7.9832   -0.5923 H   0  0  0  0  0  0  0  0  0  0  0  0
    5.8888    7.1228    0.7613 H   0  0  0  0  0  0  0  0  0  0  0  0
    7.5492    6.6404    0.2658 H   0  0  0  0  0  0  0  0  0  0  0  0
    3.4471    8.2453   -1.5609 H   0  0  0  0  0  0  0  0  0  0  0  0
    3.3347    5.8246    0.2706 H   0  0  0  0  0  0  0  0  0  0  0  0
    2.5435    9.5515    0.3005 H   0  0  0  0  0  0  0  0  0  0  0  0
    3.0333    9.6917    2.0247 H   0  0  0  0  0  0  0  0  0  0  0  0
    1.4599    6.3203   -1.4471 H   0  0  0  0  0  0  0  0  0  0  0  0
    1.0012    7.6989   -0.3776 H   0  0  0  0  0  0  0  0  0  0  0  0
   -0.8457    5.8046   -1.2654 H   0  0  0  0  0  0  0  0  0  0  0  0
   -1.5437    6.4914    0.2453 H   0  0  0  0  0  0  0  0  0  0  0  0
  1  2  1  0
  2  3  2  0
  2  4  1  0
  4  5  1  0
  5  6  1  0
  6  7  1  0
  7  8  1  0
  8  9  1  0
  9 10  1  0
 10 11  2  0
 11 12  1  0
 12 13  2  0
 13 14  1  0
 13 15  1  0
 15 16  1  0
 16 17  1  0
 17 18  1  0
 18 19  1  0
 19 20  1  0
 20 21  2  0
 20 22  1  0
 22 23  1  0
 22 24  1  0
 24 25  1  0
 25 26  2  0
 25 27  1  0
 27 28  1  0
 27 29  1  0
 29 30  1  0
 30 31  2  0
 30 32  1  0
 32 33  1  0
 32 34  1  0
 34 35  1  0
 35 36  2  0
 18 37  1  0
 37 38  2  0
 37 39  1  0
 39 40  1  0
 40 41  1  0
 40 42  1  0
 42 43  2  0
 42 44  1  0
 44 45  1  0
 45 46  1  0
 45 47  1  0
 47 48  2  0
 47 49  1  0
 49 50  1  0
 50 51  1  0
 50 52  1  0
 52 53  2  0
 52 54  1  0
 54 55  1  0
 55 56  1  0
 55 57  1  0
 57 58  2  0
 57 59  1  0
 59 60  1  0
 60 61  1  0
 60 62  1  0
 62 63  2  0
 62 64  1  0
 64 65  1  0
 65 66  1  0
 65 67  1  0
 67 68  2  0
 67 69  1  0
 69 70  1  0
 70 71  1  0
 70 72  1  0
 72 73  2  0
 72 74  1  0
 74 75  1  0
 75 76  1  0
 76 77  1  0
 76 78  2  0
 75 79  1  0
 79 80  1  0
 80 81  1  0
 35  5  1  0
 14  9  2  0
 81 11  1  0
  1 82  1  0
  1 83  1  0
  1 84  1  0
  4 85  1  0
  5 86  1  1
  6 87  1  0
  6 88  1  0
  8 89  1  0
  8 90  1  0
 10 91  1  0
 12 92  1  0
 14 93  1  0
 15 94  1  0
 15 95  1  0
 17 96  1  0
 17 97  1  0
 18 98  1  6
 19 99  1  0
 22100  1  6
 23101  1  0
 23102  1  0
 23103  1  0
 24104  1  0
 27105  1  6
 28106  1  0
 28107  1  0
 28108  1  0
 29109  1  0
 32110  1  6
 33111  1  0
 33112  1  0
 33113  1  0
 34114  1  0
 39115  1  0
 40116  1  6
 41117  1  0
 41118  1  0
 41119  1  0
 44120  1  0
 45121  1  1
 46122  1  0
 46123  1  0
 46124  1  0
 49125  1  0
 50126  1  1
 51127  1  0
 51128  1  0
 51129  1  0
 54130  1  0
 55131  1  6
 56132  1  0
 56133  1  0
 56134  1  0
 59135  1  0
 60136  1  1
 61137  1  0
 61138  1  0
 61139  1  0
 64140  1  0
 65141  1  1
 66142  1  0
 66143  1  0
 66144  1  0
 69145  1  0
 70146  1  6
 71147  1  0
 71148  1  0
 71149  1  0
 74150  1  0
 75151  1  1
 77152  1  0
 77153  1  0
 79154  1  0
 79155  1  0
 81156  1  0
 81157  1  0
M  END
