
     RDKit          3D

147149  0  0  0  0  0  0  0  0999 V2000
   -9.3938    6.1132   -0.2281 C   0  0  0  0  0  0  0  0  0  0  0  0
   -8.4026    5.1270    0.3075 C   0  0  0  0  0  0  0  0  0  0  0  0
   -7.8346    5.3672    1.4105 O   0  0  0  0  0  0  0  0  0  0  0  0
   -8.0796    3.9443   -0.4402 N   0  0  0  0  0  0  0  0  0  0  0  0
   -7.2626    2.8492    0.1045 C   0  0  2  0  0  0  0  0  0  0  0  0
   -5.8018    3.2889    0.3127 C   0  0  0  0  0  0  0  0  0  0  0  0
   -5.0403    3.9610   -1.2168 S   0  0  0  0  0  0  0  0  0  0  0  0
   -3.9718    2.5176   -1.5843 C   0  0  0  0  0  0  0  0  0  0  0  0
   -2.7429    2.5115   -0.7135 C   0  0  0  0  0  0  0  0  0  0  0  0
   -1.7995    3.5404   -0.8266 C   0  0  0  0  0  0  0  0  0  0  0  0
   -0.6304    3.5364   -0.0516 C   0  0  0  0  0  0  0  0  0  0  0  0
   -0.4217    2.4922    0.8667 C   0  0  0  0  0  0  0  0  0  0  0  0
   -1.3764    1.4739    1.0200 C   0  0  0  0  0  0  0  0  0  0  0  0
   -2.5304    1.4827    0.2184 C   0  0  0  0  0  0  0  0  0  0  0  0
   -1.1794    0.4092    2.0689 C   0  0  0  0  0  0  0  0  0  0  0  0
    0.0490   -0.8509    1.5640 S   0  0  0  0  0  0  0  0  0  0  0  0
   -0.8388   -1.6284    0.1575 C   0  0  0  0  0  0  0  0  0  0  0  0
   -1.6652   -2.8941    0.4928 C   0  0  2  0  0  0  0  0  0  0  0  0
   -2.9742   -2.5531    1.0648 N   0  0  0  0  0  0  0  0  0  0  0  0
   -3.9646   -3.5306    1.4308 C   0  0  0  0  0  0  0  0  0  0  0  0
   -4.7586   -3.2749    2.3726 O   0  0  0  0  0  0  0  0  0  0  0  0
   -4.1564   -4.8072    0.6484 C   0  0  1  0  0  0  0  0  0  0  0  0
   -3.9955   -6.0178    1.5795 C   0  0  0  0  0  0  0  0  0  0  0  0
   -5.4843   -4.8344    0.0173 N   0  0  0  0  0  0  0  0  0  0  0  0
   -6.0591   -3.6776   -0.6140 C   0  0  0  0  0  0  0  0  0  0  0  0
   -5.3088   -2.8254   -1.1566 O   0  0  0  0  0  0  0  0  0  0  0  0
   -7.5389   -3.3923   -0.5145 C   0  0  1  0  0  0  0  0  0  0  0  0
   -8.3849   -4.6630   -0.6004 C   0  0  0  0  0  0  0  0  0  0  0  0
   -7.7977   -2.7066    0.7490 N   0  0  0  0  0  0  0  0  0  0  0  0
   -8.4771   -1.4485    0.7815 C   0  0  0  0  0  0  0  0  0  0  0  0
   -9.7153   -1.4097    0.5377 O   0  0  0  0  0  0  0  0  0  0  0  0
   -7.7181   -0.1632    0.9795 C   0  0  1  0  0  0  0  0  0  0  0  0
   -6.5575   -0.3342    1.9649 C   0  0  0  0  0  0  0  0  0  0  0  0
   -7.2044    0.2961   -0.3128 N   0  0  0  0  0  0  0  0  0  0  0  0
   -7.3049    1.6377   -0.8113 C   0  0  0  0  0  0  0  0  0  0  0  0
   -7.3000    1.8108   -2.0640 O   0  0  0  0  0  0  0  0  0  0  0  0
   -0.9396   -3.8527    1.4147 C   0  0  0  0  0  0  0  0  0  0  0  0
   -0.8267   -3.5582    2.6388 O   0  0  0  0  0  0  0  0  0  0  0  0
   -0.4741   -5.1374    0.9721 N   0  0  0  0  0  0  0  0  0  0  0  0
    0.2377   -5.3634   -0.2941 C   0  0  2  0  0  0  0  0  0  0  0  0
   -0.7351   -5.9070   -1.3526 C   0  0  0  0  0  0  0  0  0  0  0  0
    1.3349   -6.3874   -0.0734 C   0  0  0  0  0  0  0  0  0  0  0  0
    1.0022   -7.5404    0.3071 O   0  0  0  0  0  0  0  0  0  0  0  0
    2.7271   -6.1271   -0.3092 N   0  0  0  0  0  0  0  0  0  0  0  0
    3.3209   -4.8031   -0.5484 C   0  0  2  0  0  0  0  0  0  0  0  0
    3.2613   -4.4919   -2.0513 C   0  0  0  0  0  0  0  0  0  0  0  0
    4.7626   -4.7654   -0.0671 C   0  0  0  0  0  0  0  0  0  0  0  0
    5.2535   -5.7598    0.5401 O   0  0  0  0  0  0  0  0  0  0  0  0
    5.6121   -3.6338   -0.3162 N   0  0  0  0  0  0  0  0  0  0  0  0
    5.2044   -2.2499   -0.0658 C   0  0  2  0  0  0  0  0  0  0  0  0
    5.7353   -1.3613   -1.1896 C   0  0  0  0  0  0  0  0  0  0  0  0
    5.6506   -1.8305    1.3155 C   0  0  0  0  0  0  0  0  0  0  0  0
    5.2192   -2.4768    2.3096 O   0  0  0  0  0  0  0  0  0  0  0  0
    6.4775   -0.6771    1.5547 N   0  0  0  0  0  0  0  0  0  0  0  0
    7.9268   -0.6466    1.2905 C   0  0  2  0  0  0  0  0  0  0  0  0
    8.5982   -1.9651    1.7099 C   0  0  0  0  0  0  0  0  0  0  0  0
    8.5509    0.5299    2.0187 C   0  0  0  0  0  0  0  0  0  0  0  0
    8.9372    0.3827    3.2125 O   0  0  0  0  0  0  0  0  0  0  0  0
    8.6149    1.8497    1.4464 N   0  0  0  0  0  0  0  0  0  0  0  0
    8.4971    2.1486    0.0129 C   0  0  2  0  0  0  0  0  0  0  0  0
    9.8298    1.8714   -0.6880 C   0  0  0  0  0  0  0  0  0  0  0  0
    8.0943    3.5876   -0.2054 C   0  0  0  0  0  0  0  0  0  0  0  0
    8.6520    4.5116    0.4443 O   0  0  0  0  0  0  0  0  0  0  0  0
    7.1565    3.9236   -1.2364 N   0  0  0  0  0  0  0  0  0  0  0  0
    5.7146    4.0337   -0.9674 C   0  0  2  0  0  0  0  0  0  0  0  0
    5.1681    2.7465   -0.3448 C   0  0  0  0  0  0  0  0  0  0  0  0
    4.9778    4.2990   -2.2625 C   0  0  0  0  0  0  0  0  0  0  0  0
    5.2974    3.6383   -3.2833 O   0  0  0  0  0  0  0  0  0  0  0  0
    3.9030    5.2497   -2.3574 N   0  0  0  0  0  0  0  0  0  0  0  0
    3.3446    5.9972   -1.2208 C   0  0  1  0  0  0  0  0  0  0  0  0
    4.2025    7.1972   -0.9097 C   0  0  0  0  0  0  0  0  0  0  0  0
    3.9434    7.9798    0.2569 N   0  0  0  0  0  0  0  0  0  0  0  0
    5.1345    7.5346   -1.6852 O   0  0  0  0  0  0  0  0  0  0  0  0
    1.9030    6.4295   -1.5315 C   0  0  0  0  0  0  0  0  0  0  0  0
    0.8417    4.9794   -1.8760 S   0  0  0  0  0  0  0  0  0  0  0  0
    0.3418    4.6853   -0.1388 C   0  0  0  0  0  0  0  0  0  0  0  0
  -10.1968    6.2696    0.5238 H   0  0  0  0  0  0  0  0  0  0  0  0
   -8.8866    7.0806   -0.4338 H   0  0  0  0  0  0  0  0  0  0  0  0
   -9.8554    5.7414   -1.1673 H   0  0  0  0  0  0  0  0  0  0  0  0
   -8.5364    3.8343   -1.3787 H   0  0  0  0  0  0  0  0  0  0  0  0
   -7.6793    2.5879    1.0996 H   0  0  0  0  0  0  0  0  0  0  0  0
   -5.2176    2.4420    0.7312 H   0  0  0  0  0  0  0  0  0  0  0  0
   -5.7577    4.0880    1.0781 H   0  0  0  0  0  0  0  0  0  0  0  0
   -4.5556    1.5752   -1.4759 H   0  0  0  0  0  0  0  0  0  0  0  0
   -3.6603    2.5786   -2.6490 H   0  0  0  0  0  0  0  0  0  0  0  0
   -1.9866    4.3525   -1.5177 H   0  0  0  0  0  0  0  0  0  0  0  0
    0.4657    2.4902    1.4839 H   0  0  0  0  0  0  0  0  0  0  0  0
   -3.2662    0.6947    0.3252 H   0  0  0  0  0  0  0  0  0  0  0  0
   -2.1401   -0.0569    2.3587 H   0  0  0  0  0  0  0  0  0  0  0  0
   -0.7915    0.8946    2.9956 H   0  0  0  0  0  0  0  0  0  0  0  0
   -0.0474   -1.9290   -0.5614 H   0  0  0  0  0  0  0  0  0  0  0  0
   -1.4703   -0.9032   -0.3850 H   0  0  0  0  0  0  0  0  0  0  0  0
   -1.8460   -3.3829   -0.4793 H   0  0  0  0  0  0  0  0  0  0  0  0
   -3.2173   -1.5600    1.2525 H   0  0  0  0  0  0  0  0  0  0  0  0
   -3.3924   -4.9058   -0.1495 H   0  0  0  0  0  0  0  0  0  0  0  0
   -4.0218   -6.9612    0.9902 H   0  0  0  0  0  0  0  0  0  0  0  0
   -4.8131   -6.0418    2.3343 H   0  0  0  0  0  0  0  0  0  0  0  0
   -3.0161   -5.9738    2.0991 H   0  0  0  0  0  0  0  0  0  0  0  0
   -5.9423   -5.7631   -0.1490 H   0  0  0  0  0  0  0  0  0  0  0  0
   -7.8336   -2.7390   -1.3675 H   0  0  0  0  0  0  0  0  0  0  0  0
   -8.2170   -5.3160    0.2843 H   0  0  0  0  0  0  0  0  0  0  0  0
   -8.1461   -5.2267   -1.5320 H   0  0  0  0  0  0  0  0  0  0  0  0
   -9.4618   -4.3861   -0.6220 H   0  0  0  0  0  0  0  0  0  0  0  0
   -7.4455   -3.1157    1.6440 H   0  0  0  0  0  0  0  0  0  0  0  0
   -8.4295    0.5730    1.3978 H   0  0  0  0  0  0  0  0  0  0  0  0
   -6.1209    0.6595    2.2002 H   0  0  0  0  0  0  0  0  0  0  0  0
   -5.7586   -0.9703    1.5283 H   0  0  0  0  0  0  0  0  0  0  0  0
   -6.9148   -0.7806    2.9181 H   0  0  0  0  0  0  0  0  0  0  0  0
   -6.8090   -0.4179   -0.9686 H   0  0  0  0  0  0  0  0  0  0  0  0
   -0.4628   -5.8927    1.6937 H   0  0  0  0  0  0  0  0  0  0  0  0
    0.6453   -4.4023   -0.6655 H   0  0  0  0  0  0  0  0  0  0  0  0
   -1.3405   -6.7410   -0.9319 H   0  0  0  0  0  0  0  0  0  0  0  0
   -1.4249   -5.1160   -1.7117 H   0  0  0  0  0  0  0  0  0  0  0  0
   -0.1749   -6.2829   -2.2347 H   0  0  0  0  0  0  0  0  0  0  0  0
    3.3487   -6.9710   -0.3482 H   0  0  0  0  0  0  0  0  0  0  0  0
    2.7584   -4.0312    0.0143 H   0  0  0  0  0  0  0  0  0  0  0  0
    3.7301   -3.5104   -2.2860 H   0  0  0  0  0  0  0  0  0  0  0  0
    2.2074   -4.4387   -2.3973 H   0  0  0  0  0  0  0  0  0  0  0  0
    3.7855   -5.2884   -2.6227 H   0  0  0  0  0  0  0  0  0  0  0  0
    6.6346   -3.8219   -0.3987 H   0  0  0  0  0  0  0  0  0  0  0  0
    4.0961   -2.1678   -0.0935 H   0  0  0  0  0  0  0  0  0  0  0  0
    5.5722   -0.2969   -0.9469 H   0  0  0  0  0  0  0  0  0  0  0  0
    5.1989   -1.5880   -2.1382 H   0  0  0  0  0  0  0  0  0  0  0  0
    6.8156   -1.5417   -1.3637 H   0  0  0  0  0  0  0  0  0  0  0  0
    6.0764    0.0214    2.2198 H   0  0  0  0  0  0  0  0  0  0  0  0
    8.0956   -0.5354    0.2026 H   0  0  0  0  0  0  0  0  0  0  0  0
    8.2763   -2.2572    2.7286 H   0  0  0  0  0  0  0  0  0  0  0  0
    9.7011   -1.8550    1.6990 H   0  0  0  0  0  0  0  0  0  0  0  0
    8.3330   -2.7693    0.9930 H   0  0  0  0  0  0  0  0  0  0  0  0
    8.9475    2.6146    2.0777 H   0  0  0  0  0  0  0  0  0  0  0  0
    7.7176    1.5100   -0.4546 H   0  0  0  0  0  0  0  0  0  0  0  0
   10.6359    2.4951   -0.2421 H   0  0  0  0  0  0  0  0  0  0  0  0
    9.7507    2.1096   -1.7718 H   0  0  0  0  0  0  0  0  0  0  0  0
   10.1013    0.7998   -0.5848 H   0  0  0  0  0  0  0  0  0  0  0  0
    7.5515    4.4877   -2.0278 H   0  0  0  0  0  0  0  0  0  0  0  0
    5.5686    4.8626   -0.2454 H   0  0  0  0  0  0  0  0  0  0  0  0
    5.6658    2.5293    0.6237 H   0  0  0  0  0  0  0  0  0  0  0  0
    5.3251    1.9062   -1.0465 H   0  0  0  0  0  0  0  0  0  0  0  0
    4.0759    2.8500   -0.1523 H   0  0  0  0  0  0  0  0  0  0  0  0
    3.4876    5.3915   -3.3052 H   0  0  0  0  0  0  0  0  0  0  0  0
    3.3133    5.3412   -0.3284 H   0  0  0  0  0  0  0  0  0  0  0  0
    3.1819    7.7216    0.9192 H   0  0  0  0  0  0  0  0  0  0  0  0
    4.4623    8.8687    0.4154 H   0  0  0  0  0  0  0  0  0  0  0  0
    1.9033    7.0882   -2.4262 H   0  0  0  0  0  0  0  0  0  0  0  0
    1.4793    7.0205   -0.6902 H   0  0  0  0  0  0  0  0  0  0  0  0
    1.2510    4.4833    0.4664 H   0  0  0  0  0  0  0  0  0  0  0  0
   -0.1533    5.5866    0.2749 H   0  0  0  0  0  0  0  0  0  0  0  0
  1  2  1  0
  2  3  2  0
  2  4  1  0
  4  5  1  0
  5  6  1  0
  6  7  1  0
  7  8  1  0
  8  9  1  0
  9 10  1  0
 10 11  2  0
 11 12  1  0
 12 13  2  0
 13 14  1  0
 13 15  1  0
 15 16  1  0
 16 17  1  0
 17 18  1  0
 18 19  1  0
 19 20  1  0
 20 21  2  0
 20 22  1  0
 22 23  1  0
 22 24  1  0
 24 25  1  0
 25 26  2  0
 25 27  1  0
 27 28  1  0
 27 29  1  0
 29 30  1  0
 30 31  2  0
 30 32  1  0
 32 33  1  0
 32 34  1  0
 34 35  1  0
 35 36  2  0
 18 37  1  0
 37 38  2  0
 37 39  1  0
 39 40  1  0
 40 41  1  0
 40 42  1  0
 42 43  2  0
 42 44  1  0
 44 45  1  0
 45 46  1  0
 45 47  1  0
 47 48  2  0
 47 49  1  0
 49 50  1  0
 50 51  1  0
 50 52  1  0
 52 53  2  0
 52 54  1  0
 54 55  1  0
 55 56  1  0
 55 57  1  0
 57 58  2  0
 57 59  1  0
 59 60  1  0
 60 61  1  0
 60 62  1  0
 62 63  2  0
 62 64  1  0
 64 65  1  0
 65 66  1  0
 65 67  1  0
 67 68  2  0
 67 69  1  0
 69 70  1  0
 70 71  1  0
 71 72  1  0
 71 73  2  0
 70 74  1  0
 74 75  1  0
 75 76  1  0
 35  5  1  0
 14  9  2  0
 76 11  1  0
  1 77  1  0
  1 78  1  0
  1 79  1  0
  4 80  1  0
  5 81  1  1
  6 82  1  0
  6 83  1  0
  8 84  1  0
  8 85  1  0
 10 86  1  0
 12 87  1  0
 14 88  1  0
 15 89  1  0
 15 90  1  0
 17 91  1  0
 17 92  1  0
 18 93  1  6
 19 94  1  0
 22 95  1  6
 23 96  1  0
 23 97  1  0
 23 98  1  0
 24 99  1  0
 27100  1  6
 28101  1  0
 28102  1  0
 28103  1  0
 29104  1  0
 32105  1  1
 33106  1  0
 33107  1  0
 33108  1  0
 34109  1  0
 39110  1  0
 40111  1  6
 41112  1  0
 41113  1  0
 41114  1  0
 44115  1  0
 45116  1  1
 46117  1  0
 46118  1  0
 46119  1  0
 49120  1  0
 50121  1  1
 51122  1  0
 51123  1  0
 51124  1  0
 54125  1  0
 55126  1  6
 56127  1  0
 56128  1  0
 56129  1  0
 59130  1  0
 60131  1  6
 61132  1  0
 61133  1  0
 61134  1  0
 64135  1  0
 65136  1  1
 66137  1  0
 66138  1  0
 66139  1  0
 69140  1  0
 70141  1  1
 72142  1  0
 72143  1  0
 74144  1  0
 74145  1  0
 76146  1  0
 76147  1  0
M  END
