
     RDKit          3D

147149  0  0  0  0  0  0  0  0999 V2000
  -10.0881   -4.9638   -1.6549 C   0  0  0  0  0  0  0  0  0  0  0  0
   -8.7474   -4.3104   -1.5651 C   0  0  0  0  0  0  0  0  0  0  0  0
   -8.1470   -4.0023   -2.6303 O   0  0  0  0  0  0  0  0  0  0  0  0
   -8.1494   -4.0437   -0.2860 N   0  0  0  0  0  0  0  0  0  0  0  0
   -6.9827   -3.1692   -0.1322 C   0  0  2  0  0  0  0  0  0  0  0  0
   -6.1499   -3.6399    1.0813 C   0  0  0  0  0  0  0  0  0  0  0  0
   -4.5978   -2.7002    1.3589 S   0  0  0  0  0  0  0  0  0  0  0  0
   -3.8087   -3.0330   -0.2559 C   0  0  0  0  0  0  0  0  0  0  0  0
   -2.3397   -2.7342   -0.1653 C   0  0  0  0  0  0  0  0  0  0  0  0
   -1.4955   -3.6017    0.5365 C   0  0  0  0  0  0  0  0  0  0  0  0
   -0.1171   -3.3551    0.6017 C   0  0  0  0  0  0  0  0  0  0  0  0
    0.4094   -2.2058   -0.0112 C   0  0  0  0  0  0  0  0  0  0  0  0
   -0.4286   -1.3189   -0.7026 C   0  0  0  0  0  0  0  0  0  0  0  0
   -1.8008   -1.5997   -0.7903 C   0  0  0  0  0  0  0  0  0  0  0  0
    0.1425   -0.0810   -1.3480 C   0  0  0  0  0  0  0  0  0  0  0  0
    0.8401    1.0584   -0.0974 S   0  0  0  0  0  0  0  0  0  0  0  0
   -0.7319    1.4616    0.7552 C   0  0  0  0  0  0  0  0  0  0  0  0
   -0.9449    2.9812    0.8204 C   0  0  2  0  0  0  0  0  0  0  0  0
   -2.0004    3.3128    1.7887 N   0  0  0  0  0  0  0  0  0  0  0  0
   -3.3681    3.5847    1.4471 C   0  0  0  0  0  0  0  0  0  0  0  0
   -3.8313    4.7345    1.6635 O   0  0  0  0  0  0  0  0  0  0  0  0
   -4.2874    2.4817    0.9857 C   0  0  1  0  0  0  0  0  0  0  0  0
   -5.0721    1.9170    2.1718 C   0  0  0  0  0  0  0  0  0  0  0  0
   -5.1710    2.9520   -0.0861 N   0  0  0  0  0  0  0  0  0  0  0  0
   -6.4148    3.6230    0.1564 C   0  0  0  0  0  0  0  0  0  0  0  0
   -6.4098    4.8199    0.5504 O   0  0  0  0  0  0  0  0  0  0  0  0
   -7.7177    2.8644    0.0287 C   0  0  1  0  0  0  0  0  0  0  0  0
   -8.9141    3.8097   -0.1490 C   0  0  0  0  0  0  0  0  0  0  0  0
   -7.6609    1.9378   -1.1136 N   0  0  0  0  0  0  0  0  0  0  0  0
   -8.4931    0.7702   -1.2870 C   0  0  0  0  0  0  0  0  0  0  0  0
   -8.5807    0.2616   -2.4401 O   0  0  0  0  0  0  0  0  0  0  0  0
   -9.2104    0.0810   -0.1401 C   0  0  1  0  0  0  0  0  0  0  0  0
  -10.7257    0.1635   -0.3516 C   0  0  0  0  0  0  0  0  0  0  0  0
   -8.7869   -1.3218   -0.0418 N   0  0  0  0  0  0  0  0  0  0  0  0
   -7.4030   -1.7162   -0.0148 C   0  0  0  0  0  0  0  0  0  0  0  0
   -6.5072   -0.8289    0.0532 O   0  0  0  0  0  0  0  0  0  0  0  0
   -1.2288    3.5713   -0.5527 C   0  0  0  0  0  0  0  0  0  0  0  0
   -2.0697    2.9993   -1.2962 O   0  0  0  0  0  0  0  0  0  0  0  0
   -0.5808    4.7608   -1.0493 N   0  0  0  0  0  0  0  0  0  0  0  0
    0.4452    5.5356   -0.3356 C   0  0  2  0  0  0  0  0  0  0  0  0
   -0.1964    6.3691    0.7787 C   0  0  0  0  0  0  0  0  0  0  0  0
    1.1634    6.4595   -1.3011 C   0  0  0  0  0  0  0  0  0  0  0  0
    0.4854    7.3156   -1.9322 O   0  0  0  0  0  0  0  0  0  0  0  0
    2.5842    6.4034   -1.5406 N   0  0  0  0  0  0  0  0  0  0  0  0
    3.5468    5.5830   -0.7918 C   0  0  2  0  0  0  0  0  0  0  0  0
    4.9027    6.3058   -0.7567 C   0  0  0  0  0  0  0  0  0  0  0  0
    3.6395    4.2061   -1.4111 C   0  0  0  0  0  0  0  0  0  0  0  0
    2.5843    3.5764   -1.6915 O   0  0  0  0  0  0  0  0  0  0  0  0
    4.9033    3.5947   -1.7081 N   0  0  0  0  0  0  0  0  0  0  0  0
    5.6953    2.8047   -0.7486 C   0  0  2  0  0  0  0  0  0  0  0  0
    5.0375    2.7487    0.6418 C   0  0  0  0  0  0  0  0  0  0  0  0
    7.1072    3.3561   -0.6577 C   0  0  0  0  0  0  0  0  0  0  0  0
    7.4206    4.3708   -1.3392 O   0  0  0  0  0  0  0  0  0  0  0  0
    8.0961    2.7913    0.2158 N   0  0  0  0  0  0  0  0  0  0  0  0
    8.2523    1.3534    0.4628 C   0  0  2  0  0  0  0  0  0  0  0  0
    8.5474    1.1339    1.9493 C   0  0  0  0  0  0  0  0  0  0  0  0
    9.3840    0.8046   -0.3801 C   0  0  0  0  0  0  0  0  0  0  0  0
   10.3625    1.5527   -0.6533 O   0  0  0  0  0  0  0  0  0  0  0  0
    9.3821   -0.5371   -0.9002 N   0  0  0  0  0  0  0  0  0  0  0  0
    8.6866   -1.6707   -0.2775 C   0  0  2  0  0  0  0  0  0  0  0  0
    9.6817   -2.4717    0.5633 C   0  0  0  0  0  0  0  0  0  0  0  0
    8.0620   -2.5616   -1.3343 C   0  0  0  0  0  0  0  0  0  0  0  0
    8.3471   -2.3907   -2.5472 O   0  0  0  0  0  0  0  0  0  0  0  0
    7.1816   -3.6377   -0.9791 N   0  0  0  0  0  0  0  0  0  0  0  0
    6.0663   -3.4872   -0.0402 C   0  0  2  0  0  0  0  0  0  0  0  0
    6.2085   -4.4875    1.1079 C   0  0  0  0  0  0  0  0  0  0  0  0
    4.7660   -3.6778   -0.7738 C   0  0  0  0  0  0  0  0  0  0  0  0
    4.0369   -2.6810   -1.0230 O   0  0  0  0  0  0  0  0  0  0  0  0
    4.3486   -4.9814   -1.1895 N   0  0  0  0  0  0  0  0  0  0  0  0
    3.4031   -5.7405   -0.3705 C   0  0  2  0  0  0  0  0  0  0  0  0
    3.7614   -7.2028   -0.3981 C   0  0  0  0  0  0  0  0  0  0  0  0
    4.0507   -7.9015    0.8132 N   0  0  0  0  0  0  0  0  0  0  0  0
    3.8113   -7.8211   -1.4968 O   0  0  0  0  0  0  0  0  0  0  0  0
    1.9673   -5.5085   -0.8609 C   0  0  0  0  0  0  0  0  0  0  0  0
    0.7597   -5.9506    0.4393 S   0  0  0  0  0  0  0  0  0  0  0  0
    0.7860   -4.3328    1.3024 C   0  0  0  0  0  0  0  0  0  0  0  0
  -10.7805   -4.2964   -2.2104 H   0  0  0  0  0  0  0  0  0  0  0  0
  -10.5068   -5.1490   -0.6446 H   0  0  0  0  0  0  0  0  0  0  0  0
  -10.0030   -5.9311   -2.1898 H   0  0  0  0  0  0  0  0  0  0  0  0
   -8.6762   -4.3276    0.5738 H   0  0  0  0  0  0  0  0  0  0  0  0
   -6.3563   -3.2676   -1.0416 H   0  0  0  0  0  0  0  0  0  0  0  0
   -6.7682   -3.5515    2.0001 H   0  0  0  0  0  0  0  0  0  0  0  0
   -5.8903   -4.7137    0.9547 H   0  0  0  0  0  0  0  0  0  0  0  0
   -3.9518   -4.0971   -0.5505 H   0  0  0  0  0  0  0  0  0  0  0  0
   -4.2834   -2.3874   -1.0272 H   0  0  0  0  0  0  0  0  0  0  0  0
   -1.9092   -4.4869    1.0116 H   0  0  0  0  0  0  0  0  0  0  0  0
    1.4722   -2.0037    0.0405 H   0  0  0  0  0  0  0  0  0  0  0  0
   -2.4459   -0.9337   -1.3507 H   0  0  0  0  0  0  0  0  0  0  0  0
   -0.6239    0.4592   -1.9440 H   0  0  0  0  0  0  0  0  0  0  0  0
    0.9570   -0.3780   -2.0420 H   0  0  0  0  0  0  0  0  0  0  0  0
   -0.6675    1.0577    1.7883 H   0  0  0  0  0  0  0  0  0  0  0  0
   -1.5947    0.9734    0.2701 H   0  0  0  0  0  0  0  0  0  0  0  0
    0.0010    3.4010    1.2220 H   0  0  0  0  0  0  0  0  0  0  0  0
   -1.6790    3.6726    2.7178 H   0  0  0  0  0  0  0  0  0  0  0  0
   -3.6847    1.6500    0.5762 H   0  0  0  0  0  0  0  0  0  0  0  0
   -5.6674    2.7081    2.6710 H   0  0  0  0  0  0  0  0  0  0  0  0
   -4.3704    1.4833    2.9171 H   0  0  0  0  0  0  0  0  0  0  0  0
   -5.7541    1.1092    1.8298 H   0  0  0  0  0  0  0  0  0  0  0  0
   -4.7454    3.1060   -1.0307 H   0  0  0  0  0  0  0  0  0  0  0  0
   -7.8353    2.3122    0.9780 H   0  0  0  0  0  0  0  0  0  0  0  0
   -9.0371    4.4559    0.7496 H   0  0  0  0  0  0  0  0  0  0  0  0
   -9.8515    3.2300   -0.2769 H   0  0  0  0  0  0  0  0  0  0  0  0
   -8.7707    4.4531   -1.0435 H   0  0  0  0  0  0  0  0  0  0  0  0
   -7.1230    2.2493   -1.9553 H   0  0  0  0  0  0  0  0  0  0  0  0
   -8.9868    0.5610    0.8276 H   0  0  0  0  0  0  0  0  0  0  0  0
  -11.0488    1.2118   -0.5224 H   0  0  0  0  0  0  0  0  0  0  0  0
  -11.0275   -0.4482   -1.2296 H   0  0  0  0  0  0  0  0  0  0  0  0
  -11.2535   -0.2166    0.5488 H   0  0  0  0  0  0  0  0  0  0  0  0
   -9.5177   -2.0364    0.1905 H   0  0  0  0  0  0  0  0  0  0  0  0
   -0.8380    5.0518   -2.0214 H   0  0  0  0  0  0  0  0  0  0  0  0
    1.1682    4.8374    0.1159 H   0  0  0  0  0  0  0  0  0  0  0  0
    0.5906    6.9360    1.3243 H   0  0  0  0  0  0  0  0  0  0  0  0
   -0.9285    7.0896    0.3607 H   0  0  0  0  0  0  0  0  0  0  0  0
   -0.7209    5.7220    1.5091 H   0  0  0  0  0  0  0  0  0  0  0  0
    2.9512    6.9982   -2.3191 H   0  0  0  0  0  0  0  0  0  0  0  0
    3.2230    5.4896    0.2670 H   0  0  0  0  0  0  0  0  0  0  0  0
    5.3544    6.3402   -1.7713 H   0  0  0  0  0  0  0  0  0  0  0  0
    4.7646    7.3464   -0.3962 H   0  0  0  0  0  0  0  0  0  0  0  0
    5.5950    5.7992   -0.0581 H   0  0  0  0  0  0  0  0  0  0  0  0
    5.1733    3.5337   -2.7172 H   0  0  0  0  0  0  0  0  0  0  0  0
    5.7503    1.7673   -1.1410 H   0  0  0  0  0  0  0  0  0  0  0  0
    4.0207    2.3174    0.5629 H   0  0  0  0  0  0  0  0  0  0  0  0
    5.6180    2.0956    1.3253 H   0  0  0  0  0  0  0  0  0  0  0  0
    4.9729    3.7597    1.0934 H   0  0  0  0  0  0  0  0  0  0  0  0
    8.8873    3.4175    0.4989 H   0  0  0  0  0  0  0  0  0  0  0  0
    7.3153    0.8229    0.2112 H   0  0  0  0  0  0  0  0  0  0  0  0
    8.5638    0.0512    2.1951 H   0  0  0  0  0  0  0  0  0  0  0  0
    7.7601    1.6146    2.5678 H   0  0  0  0  0  0  0  0  0  0  0  0
    9.5293    1.5763    2.2245 H   0  0  0  0  0  0  0  0  0  0  0  0
   10.1216   -0.7631   -1.6040 H   0  0  0  0  0  0  0  0  0  0  0  0
    7.8914   -1.3048    0.3920 H   0  0  0  0  0  0  0  0  0  0  0  0
   10.1526   -1.8102    1.3226 H   0  0  0  0  0  0  0  0  0  0  0  0
   10.4822   -2.8971   -0.0803 H   0  0  0  0  0  0  0  0  0  0  0  0
    9.1725   -3.2995    1.0949 H   0  0  0  0  0  0  0  0  0  0  0  0
    7.2122   -4.4996   -1.5698 H   0  0  0  0  0  0  0  0  0  0  0  0
    6.0598   -2.4698    0.3982 H   0  0  0  0  0  0  0  0  0  0  0  0
    6.2479   -5.5300    0.7230 H   0  0  0  0  0  0  0  0  0  0  0  0
    7.1405   -4.2879    1.6770 H   0  0  0  0  0  0  0  0  0  0  0  0
    5.3531   -4.3878    1.8091 H   0  0  0  0  0  0  0  0  0  0  0  0
    4.4551   -5.2248   -2.2002 H   0  0  0  0  0  0  0  0  0  0  0  0
    3.4789   -5.3870    0.6773 H   0  0  0  0  0  0  0  0  0  0  0  0
    4.0058   -7.4152    1.7357 H   0  0  0  0  0  0  0  0  0  0  0  0
    4.3217   -8.9082    0.7913 H   0  0  0  0  0  0  0  0  0  0  0  0
    1.8255   -4.4506   -1.1628 H   0  0  0  0  0  0  0  0  0  0  0  0
    1.7616   -6.1249   -1.7621 H   0  0  0  0  0  0  0  0  0  0  0  0
    1.8233   -3.9378    1.3669 H   0  0  0  0  0  0  0  0  0  0  0  0
    0.4275   -4.4803    2.3442 H   0  0  0  0  0  0  0  0  0  0  0  0
  1  2  1  0
  2  3  2  0
  2  4  1  0
  4  5  1  0
  5  6  1  0
  6  7  1  0
  7  8  1  0
  8  9  1  0
  9 10  1  0
 10 11  2  0
 11 12  1  0
 12 13  2  0
 13 14  1  0
 13 15  1  0
 15 16  1  0
 16 17  1  0
 17 18  1  0
 18 19  1  0
 19 20  1  0
 20 21  2  0
 20 22  1  0
 22 23  1  0
 22 24  1  0
 24 25  1  0
 25 26  2  0
 25 27  1  0
 27 28  1  0
 27 29  1  0
 29 30  1  0
 30 31  2  0
 30 32  1  0
 32 33  1  0
 32 34  1  0
 34 35  1  0
 35 36  2  0
 18 37  1  0
 37 38  2  0
 37 39  1  0
 39 40  1  0
 40 41  1  0
 40 42  1  0
 42 43  2  0
 42 44  1  0
 44 45  1  0
 45 46  1  0
 45 47  1  0
 47 48  2  0
 47 49  1  0
 49 50  1  0
 50 51  1  0
 50 52  1  0
 52 53  2  0
 52 54  1  0
 54 55  1  0
 55 56  1  0
 55 57  1  0
 57 58  2  0
 57 59  1  0
 59 60  1  0
 60 61  1  0
 60 62  1  0
 62 63  2  0
 62 64  1  0
 64 65  1  0
 65 66  1  0
 65 67  1  0
 67 68  2  0
 67 69  1  0
 69 70  1  0
 70 71  1  0
 71 72  1  0
 71 73  2  0
 70 74  1  0
 74 75  1  0
 75 76  1  0
 35  5  1  0
 14  9  2  0
 76 11  1  0
  1 77  1  0
  1 78  1  0
  1 79  1  0
  4 80  1  0
  5 81  1  6
  6 82  1  0
  6 83  1  0
  8 84  1  0
  8 85  1  0
 10 86  1  0
 12 87  1  0
 14 88  1  0
 15 89  1  0
 15 90  1  0
 17 91  1  0
 17 92  1  0
 18 93  1  1
 19 94  1  0
 22 95  1  6
 23 96  1  0
 23 97  1  0
 23 98  1  0
 24 99  1  0
 27100  1  1
 28101  1  0
 28102  1  0
 28103  1  0
 29104  1  0
 32105  1  1
 33106  1  0
 33107  1  0
 33108  1  0
 34109  1  0
 39110  1  0
 40111  1  1
 41112  1  0
 41113  1  0
 41114  1  0
 44115  1  0
 45116  1  1
 46117  1  0
 46118  1  0
 46119  1  0
 49120  1  0
 50121  1  6
 51122  1  0
 51123  1  0
 51124  1  0
 54125  1  0
 55126  1  6
 56127  1  0
 56128  1  0
 56129  1  0
 59130  1  0
 60131  1  1
 61132  1  0
 61133  1  0
 61134  1  0
 64135  1  0
 65136  1  1
 66137  1  0
 66138  1  0
 66139  1  0
 69140  1  0
 70141  1  1
 72142  1  0
 72143  1  0
 74144  1  0
 74145  1  0
 76146  1  0
 76147  1  0
M  END
