
     RDKit          3D

137139  0  0  0  0  0  0  0  0999 V2000
    8.1225   -0.1076    2.8174 C   0  0  0  0  0  0  0  0  0  0  0  0
    9.3279   -0.0985    1.9250 C   0  0  0  0  0  0  0  0  0  0  0  0
   10.4066   -0.5870    2.3510 O   0  0  0  0  0  0  0  0  0  0  0  0
    9.3163    0.5611    0.6496 N   0  0  0  0  0  0  0  0  0  0  0  0
    8.1908    0.5193   -0.2929 C   0  0  1  0  0  0  0  0  0  0  0  0
    7.7752    1.9484   -0.6680 C   0  0  0  0  0  0  0  0  0  0  0  0
    7.0740    2.7979    0.7952 S   0  0  0  0  0  0  0  0  0  0  0  0
    6.0298    3.9887   -0.1338 C   0  0  0  0  0  0  0  0  0  0  0  0
    4.6576    3.4739   -0.5191 C   0  0  0  0  0  0  0  0  0  0  0  0
    3.7167    4.3985   -0.9933 C   0  0  0  0  0  0  0  0  0  0  0  0
    2.4338    3.9832   -1.3814 C   0  0  0  0  0  0  0  0  0  0  0  0
    2.0905    2.6257   -1.3018 C   0  0  0  0  0  0  0  0  0  0  0  0
    3.0237    1.6831   -0.8451 C   0  0  0  0  0  0  0  0  0  0  0  0
    4.3012    2.1159   -0.4550 C   0  0  0  0  0  0  0  0  0  0  0  0
    2.6588    0.2236   -0.7563 C   0  0  0  0  0  0  0  0  0  0  0  0
    2.2574   -0.2372    0.9631 S   0  0  0  0  0  0  0  0  0  0  0  0
    3.8511   -1.0431    1.3973 C   0  0  0  0  0  0  0  0  0  0  0  0
    3.9513   -2.4992    0.8803 C   0  0  1  0  0  0  0  0  0  0  0  0
    4.7243   -2.5849   -0.3699 N   0  0  0  0  0  0  0  0  0  0  0  0
    6.1184   -2.2560   -0.5294 C   0  0  0  0  0  0  0  0  0  0  0  0
    6.9064   -2.3612    0.4477 O   0  0  0  0  0  0  0  0  0  0  0  0
    6.6705   -1.9197   -1.8957 C   0  0  1  0  0  0  0  0  0  0  0  0
    5.8590   -0.8379   -2.6067 C   0  0  0  0  0  0  0  0  0  0  0  0
    8.0965   -1.5570   -1.8490 N   0  0  0  0  0  0  0  0  0  0  0  0
    8.6234   -0.2551   -1.5209 C   0  0  0  0  0  0  0  0  0  0  0  0
    9.5739    0.1979   -2.2150 O   0  0  0  0  0  0  0  0  0  0  0  0
    4.5187   -3.4242    1.9453 C   0  0  0  0  0  0  0  0  0  0  0  0
    5.5624   -3.0920    2.5615 O   0  0  0  0  0  0  0  0  0  0  0  0
    3.8879   -4.6602    2.3198 N   0  0  0  0  0  0  0  0  0  0  0  0
    2.4597   -4.9503    2.1402 C   0  0  2  0  0  0  0  0  0  0  0  0
    1.9908   -5.9066    3.2441 C   0  0  0  0  0  0  0  0  0  0  0  0
    2.2168   -5.5512    0.7764 C   0  0  0  0  0  0  0  0  0  0  0  0
    3.1307   -6.2405    0.2469 O   0  0  0  0  0  0  0  0  0  0  0  0
    0.9960   -5.3467    0.0421 N   0  0  0  0  0  0  0  0  0  0  0  0
   -0.3110   -5.1254    0.6644 C   0  0  2  0  0  0  0  0  0  0  0  0
   -0.9731   -6.4778    0.9587 C   0  0  0  0  0  0  0  0  0  0  0  0
   -1.1581   -4.2669   -0.2416 C   0  0  0  0  0  0  0  0  0  0  0  0
   -0.9872   -3.0172   -0.2436 O   0  0  0  0  0  0  0  0  0  0  0  0
   -2.0991   -4.8492   -1.1468 N   0  0  0  0  0  0  0  0  0  0  0  0
   -3.5159   -4.9705   -0.7953 C   0  0  2  0  0  0  0  0  0  0  0  0
   -4.0206   -6.3654   -1.1690 C   0  0  0  0  0  0  0  0  0  0  0  0
   -4.3337   -3.9154   -1.5071 C   0  0  0  0  0  0  0  0  0  0  0  0
   -3.9286   -3.4737   -2.6210 O   0  0  0  0  0  0  0  0  0  0  0  0
   -5.5797   -3.4117   -0.9846 N   0  0  0  0  0  0  0  0  0  0  0  0
   -6.3247   -3.9755    0.1505 C   0  0  2  0  0  0  0  0  0  0  0  0
   -7.6166   -4.6061   -0.3662 C   0  0  0  0  0  0  0  0  0  0  0  0
   -6.6208   -2.9141    1.1802 C   0  0  0  0  0  0  0  0  0  0  0  0
   -7.2520   -3.2390    2.2212 O   0  0  0  0  0  0  0  0  0  0  0  0
   -6.1307   -1.5697    1.0286 N   0  0  0  0  0  0  0  0  0  0  0  0
   -6.7887   -0.3451    1.5139 C   0  0  2  0  0  0  0  0  0  0  0  0
   -8.2521   -0.5480    1.9263 C   0  0  0  0  0  0  0  0  0  0  0  0
   -6.7184    0.7013    0.4292 C   0  0  0  0  0  0  0  0  0  0  0  0
   -7.3599    0.5369   -0.6460 O   0  0  0  0  0  0  0  0  0  0  0  0
   -5.8360    1.8218    0.5709 N   0  0  0  0  0  0  0  0  0  0  0  0
   -6.2916    3.2138    0.6840 C   0  0  2  0  0  0  0  0  0  0  0  0
   -7.2449    3.3729    1.8725 C   0  0  0  0  0  0  0  0  0  0  0  0
   -6.9520    3.6897   -0.5947 C   0  0  0  0  0  0  0  0  0  0  0  0
   -8.0302    3.1420   -0.9681 O   0  0  0  0  0  0  0  0  0  0  0  0
   -6.4366    4.7692   -1.3935 N   0  0  0  0  0  0  0  0  0  0  0  0
   -5.2640    5.6023   -1.0731 C   0  0  2  0  0  0  0  0  0  0  0  0
   -5.4110    6.9604   -1.7695 C   0  0  0  0  0  0  0  0  0  0  0  0
   -3.9947    4.8801   -1.4963 C   0  0  0  0  0  0  0  0  0  0  0  0
   -4.0102    3.6227   -1.6195 O   0  0  0  0  0  0  0  0  0  0  0  0
   -2.7730    5.5712   -1.8232 N   0  0  0  0  0  0  0  0  0  0  0  0
   -2.1771    6.6862   -1.0740 C   0  0  1  0  0  0  0  0  0  0  0  0
   -2.5470    6.6677    0.3950 C   0  0  0  0  0  0  0  0  0  0  0  0
   -2.9483    7.8700    1.0525 N   0  0  0  0  0  0  0  0  0  0  0  0
   -2.4789    5.5947    1.0543 O   0  0  0  0  0  0  0  0  0  0  0  0
   -0.6475    6.6775   -1.2441 C   0  0  0  0  0  0  0  0  0  0  0  0
    0.1069    5.1398   -0.5809 S   0  0  0  0  0  0  0  0  0  0  0  0
    1.4147    4.9867   -1.8432 C   0  0  0  0  0  0  0  0  0  0  0  0
    7.8407    0.9345    3.0630 H   0  0  0  0  0  0  0  0  0  0  0  0
    8.3534   -0.6412    3.7624 H   0  0  0  0  0  0  0  0  0  0  0  0
    7.2619   -0.6135    2.3325 H   0  0  0  0  0  0  0  0  0  0  0  0
   10.2293    0.9319    0.2949 H   0  0  0  0  0  0  0  0  0  0  0  0
    7.3155    0.0335    0.1677 H   0  0  0  0  0  0  0  0  0  0  0  0
    8.6457    2.5224   -1.0338 H   0  0  0  0  0  0  0  0  0  0  0  0
    7.0209    1.9089   -1.4851 H   0  0  0  0  0  0  0  0  0  0  0  0
    5.8916    4.8693    0.5318 H   0  0  0  0  0  0  0  0  0  0  0  0
    6.5684    4.3441   -1.0462 H   0  0  0  0  0  0  0  0  0  0  0  0
    3.9815    5.4492   -1.0571 H   0  0  0  0  0  0  0  0  0  0  0  0
    1.0998    2.3050   -1.6018 H   0  0  0  0  0  0  0  0  0  0  0  0
    5.0100    1.3811   -0.1203 H   0  0  0  0  0  0  0  0  0  0  0  0
    1.7647    0.0126   -1.3832 H   0  0  0  0  0  0  0  0  0  0  0  0
    3.4681   -0.4059   -1.1601 H   0  0  0  0  0  0  0  0  0  0  0  0
    3.8847   -1.0350    2.5104 H   0  0  0  0  0  0  0  0  0  0  0  0
    4.7191   -0.4519    1.0658 H   0  0  0  0  0  0  0  0  0  0  0  0
    2.9204   -2.8353    0.6456 H   0  0  0  0  0  0  0  0  0  0  0  0
    4.2154   -2.9341   -1.2194 H   0  0  0  0  0  0  0  0  0  0  0  0
    6.5714   -2.8447   -2.5050 H   0  0  0  0  0  0  0  0  0  0  0  0
    4.8585   -1.2360   -2.8971 H   0  0  0  0  0  0  0  0  0  0  0  0
    5.7116    0.0441   -1.9489 H   0  0  0  0  0  0  0  0  0  0  0  0
    6.3797   -0.5150   -3.5316 H   0  0  0  0  0  0  0  0  0  0  0  0
    8.7194   -2.1697   -2.4184 H   0  0  0  0  0  0  0  0  0  0  0  0
    4.4541   -5.3100    2.9103 H   0  0  0  0  0  0  0  0  0  0  0  0
    1.8869   -4.0097    2.2607 H   0  0  0  0  0  0  0  0  0  0  0  0
    0.8897   -6.0056    3.2393 H   0  0  0  0  0  0  0  0  0  0  0  0
    2.2784   -5.5094    4.2393 H   0  0  0  0  0  0  0  0  0  0  0  0
    2.4443   -6.9148    3.1098 H   0  0  0  0  0  0  0  0  0  0  0  0
    0.9904   -5.6694   -0.9543 H   0  0  0  0  0  0  0  0  0  0  0  0
   -0.2040   -4.5787    1.6264 H   0  0  0  0  0  0  0  0  0  0  0  0
   -0.3360   -7.0821    1.6387 H   0  0  0  0  0  0  0  0  0  0  0  0
   -1.1059   -7.0574    0.0253 H   0  0  0  0  0  0  0  0  0  0  0  0
   -1.9581   -6.3260    1.4545 H   0  0  0  0  0  0  0  0  0  0  0  0
   -1.7919   -5.0465   -2.1267 H   0  0  0  0  0  0  0  0  0  0  0  0
   -3.6115   -4.8361    0.3034 H   0  0  0  0  0  0  0  0  0  0  0  0
   -4.0206   -6.5018   -2.2687 H   0  0  0  0  0  0  0  0  0  0  0  0
   -5.0517   -6.5222   -0.7845 H   0  0  0  0  0  0  0  0  0  0  0  0
   -3.3711   -7.1444   -0.7145 H   0  0  0  0  0  0  0  0  0  0  0  0
   -6.0507   -2.6540   -1.5320 H   0  0  0  0  0  0  0  0  0  0  0  0
   -5.7461   -4.7711    0.6590 H   0  0  0  0  0  0  0  0  0  0  0  0
   -8.2603   -3.8422   -0.8481 H   0  0  0  0  0  0  0  0  0  0  0  0
   -8.1791   -5.0791    0.4684 H   0  0  0  0  0  0  0  0  0  0  0  0
   -7.3781   -5.3963   -1.1143 H   0  0  0  0  0  0  0  0  0  0  0  0
   -5.2059   -1.4495    0.5560 H   0  0  0  0  0  0  0  0  0  0  0  0
   -6.2311    0.0279    2.4014 H   0  0  0  0  0  0  0  0  0  0  0  0
   -8.7399    0.4348    2.1144 H   0  0  0  0  0  0  0  0  0  0  0  0
   -8.8225   -1.0714    1.1271 H   0  0  0  0  0  0  0  0  0  0  0  0
   -8.3140   -1.1190    2.8743 H   0  0  0  0  0  0  0  0  0  0  0  0
   -4.8425    1.6188    0.8274 H   0  0  0  0  0  0  0  0  0  0  0  0
   -5.4055    3.8316    0.9078 H   0  0  0  0  0  0  0  0  0  0  0  0
   -7.4974    4.4493    2.0128 H   0  0  0  0  0  0  0  0  0  0  0  0
   -8.1861    2.8018    1.7169 H   0  0  0  0  0  0  0  0  0  0  0  0
   -6.7556    3.0032    2.8038 H   0  0  0  0  0  0  0  0  0  0  0  0
   -6.9487    4.9720   -2.2842 H   0  0  0  0  0  0  0  0  0  0  0  0
   -5.2362    5.8029    0.0143 H   0  0  0  0  0  0  0  0  0  0  0  0
   -6.4548    7.3271   -1.6709 H   0  0  0  0  0  0  0  0  0  0  0  0
   -5.1654    6.8889   -2.8523 H   0  0  0  0  0  0  0  0  0  0  0  0
   -4.7683    7.7214   -1.2878 H   0  0  0  0  0  0  0  0  0  0  0  0
   -2.3101    5.2821   -2.7233 H   0  0  0  0  0  0  0  0  0  0  0  0
   -2.5324    7.6378   -1.5247 H   0  0  0  0  0  0  0  0  0  0  0  0
   -3.0084    8.7743    0.5303 H   0  0  0  0  0  0  0  0  0  0  0  0
   -3.1463    7.8633    2.0776 H   0  0  0  0  0  0  0  0  0  0  0  0
   -0.4103    6.7973   -2.3247 H   0  0  0  0  0  0  0  0  0  0  0  0
   -0.2027    7.5465   -0.7029 H   0  0  0  0  0  0  0  0  0  0  0  0
    0.9581    4.6479   -2.7997 H   0  0  0  0  0  0  0  0  0  0  0  0
    1.8876    5.9767   -2.0226 H   0  0  0  0  0  0  0  0  0  0  0  0
  1  2  1  0
  2  3  2  0
  2  4  1  0
  4  5  1  0
  5  6  1  0
  6  7  1  0
  7  8  1  0
  8  9  1  0
  9 10  1  0
 10 11  2  0
 11 12  1  0
 12 13  2  0
 13 14  1  0
 13 15  1  0
 15 16  1  0
 16 17  1  0
 17 18  1  0
 18 19  1  0
 19 20  1  0
 20 21  2  0
 20 22  1  0
 22 23  1  0
 22 24  1  0
 24 25  1  0
 25 26  2  0
 18 27  1  0
 27 28  2  0
 27 29  1  0
 29 30  1  0
 30 31  1  0
 30 32  1  0
 32 33  2  0
 32 34  1  0
 34 35  1  0
 35 36  1  0
 35 37  1  0
 37 38  2  0
 37 39  1  0
 39 40  1  0
 40 41  1  0
 40 42  1  0
 42 43  2  0
 42 44  1  0
 44 45  1  0
 45 46  1  0
 45 47  1  0
 47 48  2  0
 47 49  1  0
 49 50  1  0
 50 51  1  0
 50 52  1  0
 52 53  2  0
 52 54  1  0
 54 55  1  0
 55 56  1  0
 55 57  1  0
 57 58  2  0
 57 59  1  0
 59 60  1  0
 60 61  1  0
 60 62  1  0
 62 63  2  0
 62 64  1  0
 64 65  1  0
 65 66  1  0
 66 67  1  0
 66 68  2  0
 65 69  1  0
 69 70  1  0
 70 71  1  0
 25  5  1  0
 14  9  2  0
 71 11  1  0
  1 72  1  0
  1 73  1  0
  1 74  1  0
  4 75  1  0
  5 76  1  1
  6 77  1  0
  6 78  1  0
  8 79  1  0
  8 80  1  0
 10 81  1  0
 12 82  1  0
 14 83  1  0
 15 84  1  0
 15 85  1  0
 17 86  1  0
 17 87  1  0
 18 88  1  6
 19 89  1  0
 22 90  1  6
 23 91  1  0
 23 92  1  0
 23 93  1  0
 24 94  1  0
 29 95  1  0
 30 96  1  6
 31 97  1  0
 31 98  1  0
 31 99  1  0
 34100  1  0
 35101  1  1
 36102  1  0
 36103  1  0
 36104  1  0
 39105  1  0
 40106  1  1
 41107  1  0
 41108  1  0
 41109  1  0
 44110  1  0
 45111  1  1
 46112  1  0
 46113  1  0
 46114  1  0
 49115  1  0
 50116  1  1
 51117  1  0
 51118  1  0
 51119  1  0
 54120  1  0
 55121  1  1
 56122  1  0
 56123  1  0
 56124  1  0
 59125  1  0
 60126  1  1
 61127  1  0
 61128  1  0
 61129  1  0
 64130  1  0
 65131  1  6
 67132  1  0
 67133  1  0
 69134  1  0
 69135  1  0
 71136  1  0
 71137  1  0
M  END
