
     RDKit          3D

137139  0  0  0  0  0  0  0  0999 V2000
    9.6882    4.7193   -0.9933 C   0  0  0  0  0  0  0  0  0  0  0  0
    8.5965    4.2525   -1.9153 C   0  0  0  0  0  0  0  0  0  0  0  0
    8.7438    4.3955   -3.1595 O   0  0  0  0  0  0  0  0  0  0  0  0
    7.3713    3.6872   -1.4159 N   0  0  0  0  0  0  0  0  0  0  0  0
    7.1576    3.2773   -0.0236 C   0  0  1  0  0  0  0  0  0  0  0  0
    5.7305    3.6524    0.4119 C   0  0  0  0  0  0  0  0  0  0  0  0
    5.5031    3.4175    2.2107 S   0  0  0  0  0  0  0  0  0  0  0  0
    3.7692    3.9987    2.2790 C   0  0  0  0  0  0  0  0  0  0  0  0
    2.7905    3.1266    1.5285 C   0  0  0  0  0  0  0  0  0  0  0  0
    1.6362    3.7134    0.9887 C   0  0  0  0  0  0  0  0  0  0  0  0
    0.6554    2.9261    0.3643 C   0  0  0  0  0  0  0  0  0  0  0  0
    0.8557    1.5432    0.2391 C   0  0  0  0  0  0  0  0  0  0  0  0
    2.0128    0.9413    0.7561 C   0  0  0  0  0  0  0  0  0  0  0  0
    2.9663    1.7361    1.4093 C   0  0  0  0  0  0  0  0  0  0  0  0
    2.2423   -0.5355    0.5910 C   0  0  0  0  0  0  0  0  0  0  0  0
    2.4334   -1.3401    2.2242 S   0  0  0  0  0  0  0  0  0  0  0  0
    0.9015   -2.3461    2.1867 C   0  0  0  0  0  0  0  0  0  0  0  0
    1.1217   -3.6845    1.4507 C   0  0  2  0  0  0  0  0  0  0  0  0
    1.0788   -3.4983   -0.0058 N   0  0  0  0  0  0  0  0  0  0  0  0
    2.1319   -3.8370   -0.9274 C   0  0  0  0  0  0  0  0  0  0  0  0
    2.0762   -3.3651   -2.0971 O   0  0  0  0  0  0  0  0  0  0  0  0
    3.3231   -4.6861   -0.5428 C   0  0  1  0  0  0  0  0  0  0  0  0
    3.6724   -5.6613   -1.6784 C   0  0  0  0  0  0  0  0  0  0  0  0
    4.4308   -3.7949   -0.1412 N   0  0  0  0  0  0  0  0  0  0  0  0
    5.7248   -3.6933   -0.7736 C   0  0  0  0  0  0  0  0  0  0  0  0
    6.2869   -4.7188   -1.2528 O   0  0  0  0  0  0  0  0  0  0  0  0
    6.4557   -2.3717   -0.7975 C   0  0  1  0  0  0  0  0  0  0  0  0
    7.7088   -2.4759    0.0737 C   0  0  0  0  0  0  0  0  0  0  0  0
    6.8126   -2.0254   -2.1826 N   0  0  0  0  0  0  0  0  0  0  0  0
    7.2819   -0.7454   -2.6523 C   0  0  0  0  0  0  0  0  0  0  0  0
    8.0739   -0.7260   -3.6351 O   0  0  0  0  0  0  0  0  0  0  0  0
    6.8785    0.5885   -2.0511 C   0  0  1  0  0  0  0  0  0  0  0  0
    5.3814    0.6532   -1.6895 C   0  0  0  0  0  0  0  0  0  0  0  0
    7.7705    0.9305   -0.9347 N   0  0  0  0  0  0  0  0  0  0  0  0
    7.4494    1.8004    0.1628 C   0  0  0  0  0  0  0  0  0  0  0  0
    7.5335    1.3405    1.3347 O   0  0  0  0  0  0  0  0  0  0  0  0
    0.1660   -4.8013    1.8249 C   0  0  0  0  0  0  0  0  0  0  0  0
    0.5062   -5.9784    1.5162 O   0  0  0  0  0  0  0  0  0  0  0  0
   -1.0744   -4.6242    2.5402 N   0  0  0  0  0  0  0  0  0  0  0  0
   -2.0429   -3.5289    2.3598 C   0  0  2  0  0  0  0  0  0  0  0  0
   -3.3614   -3.8758    3.0585 C   0  0  0  0  0  0  0  0  0  0  0  0
   -2.2842   -3.2456    0.8988 C   0  0  0  0  0  0  0  0  0  0  0  0
   -2.0942   -2.0850    0.4451 O   0  0  0  0  0  0  0  0  0  0  0  0
   -2.7040   -4.2789    0.0082 N   0  0  0  0  0  0  0  0  0  0  0  0
   -4.1236   -4.4528   -0.2925 C   0  0  2  0  0  0  0  0  0  0  0  0
   -4.4033   -5.9051   -0.6807 C   0  0  0  0  0  0  0  0  0  0  0  0
   -4.5282   -3.5092   -1.4035 C   0  0  0  0  0  0  0  0  0  0  0  0
   -4.0886   -3.7167   -2.5663 O   0  0  0  0  0  0  0  0  0  0  0  0
   -5.3987   -2.3820   -1.1908 N   0  0  0  0  0  0  0  0  0  0  0  0
   -5.6622   -1.7572    0.1140 C   0  0  2  0  0  0  0  0  0  0  0  0
   -6.9277   -2.3404    0.7526 C   0  0  0  0  0  0  0  0  0  0  0  0
   -5.7484   -0.2512   -0.0267 C   0  0  0  0  0  0  0  0  0  0  0  0
   -5.0285    0.4689    0.7140 O   0  0  0  0  0  0  0  0  0  0  0  0
   -6.5295    0.3773   -1.0546 N   0  0  0  0  0  0  0  0  0  0  0  0
   -7.9911    0.3170   -1.1092 C   0  0  2  0  0  0  0  0  0  0  0  0
   -8.4259   -0.5771   -2.2818 C   0  0  0  0  0  0  0  0  0  0  0  0
   -8.6019    1.6922   -1.2656 C   0  0  0  0  0  0  0  0  0  0  0  0
   -9.8566    1.7947   -1.3457 O   0  0  0  0  0  0  0  0  0  0  0  0
   -7.8133    2.8916   -1.3276 N   0  0  0  0  0  0  0  0  0  0  0  0
   -7.0369    3.3998   -0.1872 C   0  0  2  0  0  0  0  0  0  0  0  0
   -7.8771    3.3843    1.0988 C   0  0  0  0  0  0  0  0  0  0  0  0
   -6.5723    4.8128   -0.4771 C   0  0  0  0  0  0  0  0  0  0  0  0
   -7.4394    5.6930   -0.7372 O   0  0  0  0  0  0  0  0  0  0  0  0
   -5.1817    5.1872   -0.4790 N   0  0  0  0  0  0  0  0  0  0  0  0
   -4.1280    4.5063    0.2917 C   0  0  2  0  0  0  0  0  0  0  0  0
   -4.4930    4.5056    1.7575 C   0  0  0  0  0  0  0  0  0  0  0  0
   -4.7390    5.7305    2.4533 N   0  0  0  0  0  0  0  0  0  0  0  0
   -4.5848    3.4155    2.3766 O   0  0  0  0  0  0  0  0  0  0  0  0
   -2.7708    5.2039    0.0638 C   0  0  0  0  0  0  0  0  0  0  0  0
   -1.4581    4.4891    1.1251 S   0  0  0  0  0  0  0  0  0  0  0  0
   -0.5843    3.5709   -0.1963 C   0  0  0  0  0  0  0  0  0  0  0  0
   10.5393    5.1358   -1.5761 H   0  0  0  0  0  0  0  0  0  0  0  0
    9.2939    5.5200   -0.3273 H   0  0  0  0  0  0  0  0  0  0  0  0
   10.0622    3.8683   -0.3795 H   0  0  0  0  0  0  0  0  0  0  0  0
    6.6113    3.4985   -2.1104 H   0  0  0  0  0  0  0  0  0  0  0  0
    7.8488    3.8348    0.6383 H   0  0  0  0  0  0  0  0  0  0  0  0
    4.9861    3.0543   -0.1397 H   0  0  0  0  0  0  0  0  0  0  0  0
    5.5548    4.7227    0.1807 H   0  0  0  0  0  0  0  0  0  0  0  0
    3.4638    4.0296    3.3445 H   0  0  0  0  0  0  0  0  0  0  0  0
    3.7371    5.0441    1.8984 H   0  0  0  0  0  0  0  0  0  0  0  0
    1.4890    4.7828    1.0780 H   0  0  0  0  0  0  0  0  0  0  0  0
    0.1127    0.9409   -0.2666 H   0  0  0  0  0  0  0  0  0  0  0  0
    3.8454    1.2588    1.8216 H   0  0  0  0  0  0  0  0  0  0  0  0
    3.1761   -0.6928    0.0159 H   0  0  0  0  0  0  0  0  0  0  0  0
    1.4203   -0.9814   -0.0020 H   0  0  0  0  0  0  0  0  0  0  0  0
    0.6434   -2.5522    3.2477 H   0  0  0  0  0  0  0  0  0  0  0  0
    0.0862   -1.7498    1.7315 H   0  0  0  0  0  0  0  0  0  0  0  0
    2.1238   -4.0273    1.7739 H   0  0  0  0  0  0  0  0  0  0  0  0
    0.2187   -3.0656   -0.4148 H   0  0  0  0  0  0  0  0  0  0  0  0
    3.0626   -5.3240    0.3258 H   0  0  0  0  0  0  0  0  0  0  0  0
    4.0422   -5.1227   -2.5713 H   0  0  0  0  0  0  0  0  0  0  0  0
    2.7728   -6.2398   -1.9661 H   0  0  0  0  0  0  0  0  0  0  0  0
    4.4379   -6.3869   -1.3341 H   0  0  0  0  0  0  0  0  0  0  0  0
    4.1895   -3.0344    0.5310 H   0  0  0  0  0  0  0  0  0  0  0  0
    5.7922   -1.6023   -0.3684 H   0  0  0  0  0  0  0  0  0  0  0  0
    7.4444   -2.8502    1.0841 H   0  0  0  0  0  0  0  0  0  0  0  0
    8.4567   -3.1600   -0.3856 H   0  0  0  0  0  0  0  0  0  0  0  0
    8.1752   -1.4768    0.1996 H   0  0  0  0  0  0  0  0  0  0  0  0
    6.9470   -2.8178   -2.8579 H   0  0  0  0  0  0  0  0  0  0  0  0
    7.0443    1.3466   -2.8488 H   0  0  0  0  0  0  0  0  0  0  0  0
    4.9720    1.6472   -1.9656 H   0  0  0  0  0  0  0  0  0  0  0  0
    5.2095    0.5062   -0.6067 H   0  0  0  0  0  0  0  0  0  0  0  0
    4.7945   -0.1014   -2.2584 H   0  0  0  0  0  0  0  0  0  0  0  0
    8.7045    0.4582   -0.8810 H   0  0  0  0  0  0  0  0  0  0  0  0
   -1.3935   -5.4607    3.0755 H   0  0  0  0  0  0  0  0  0  0  0  0
   -1.6625   -2.6176    2.8621 H   0  0  0  0  0  0  0  0  0  0  0  0
   -3.1932   -3.9633    4.1534 H   0  0  0  0  0  0  0  0  0  0  0  0
   -4.1180   -3.0755    2.8861 H   0  0  0  0  0  0  0  0  0  0  0  0
   -3.7616   -4.8430    2.6866 H   0  0  0  0  0  0  0  0  0  0  0  0
   -2.0089   -4.5992   -0.7030 H   0  0  0  0  0  0  0  0  0  0  0  0
   -4.7155   -4.2532    0.6166 H   0  0  0  0  0  0  0  0  0  0  0  0
   -5.4867   -6.0499   -0.8757 H   0  0  0  0  0  0  0  0  0  0  0  0
   -4.1014   -6.5832    0.1448 H   0  0  0  0  0  0  0  0  0  0  0  0
   -3.8324   -6.1885   -1.5939 H   0  0  0  0  0  0  0  0  0  0  0  0
   -5.7412   -1.8982   -2.0522 H   0  0  0  0  0  0  0  0  0  0  0  0
   -4.8130   -1.9663    0.8001 H   0  0  0  0  0  0  0  0  0  0  0  0
   -6.7501   -3.3943    1.0613 H   0  0  0  0  0  0  0  0  0  0  0  0
   -7.7780   -2.3412    0.0415 H   0  0  0  0  0  0  0  0  0  0  0  0
   -7.2023   -1.7599    1.6600 H   0  0  0  0  0  0  0  0  0  0  0  0
   -6.0159    0.9229   -1.7867 H   0  0  0  0  0  0  0  0  0  0  0  0
   -8.3877   -0.1102   -0.1608 H   0  0  0  0  0  0  0  0  0  0  0  0
   -9.5299   -0.5762   -2.3887 H   0  0  0  0  0  0  0  0  0  0  0  0
   -8.1103   -1.6276   -2.0999 H   0  0  0  0  0  0  0  0  0  0  0  0
   -7.9649   -0.2309   -3.2286 H   0  0  0  0  0  0  0  0  0  0  0  0
   -8.0347    3.5358   -2.1220 H   0  0  0  0  0  0  0  0  0  0  0  0
   -6.1651    2.7428   -0.0334 H   0  0  0  0  0  0  0  0  0  0  0  0
   -7.2994    3.8131    1.9462 H   0  0  0  0  0  0  0  0  0  0  0  0
   -8.8085    3.9731    0.9630 H   0  0  0  0  0  0  0  0  0  0  0  0
   -8.1551    2.3384    1.3648 H   0  0  0  0  0  0  0  0  0  0  0  0
   -4.9459    6.0829   -0.9641 H   0  0  0  0  0  0  0  0  0  0  0  0
   -4.0265    3.4630   -0.0728 H   0  0  0  0  0  0  0  0  0  0  0  0
   -4.7011    6.6438    1.9469 H   0  0  0  0  0  0  0  0  0  0  0  0
   -4.9916    5.7219    3.4659 H   0  0  0  0  0  0  0  0  0  0  0  0
   -2.5057    5.1420   -1.0116 H   0  0  0  0  0  0  0  0  0  0  0  0
   -2.8570    6.2854    0.3137 H   0  0  0  0  0  0  0  0  0  0  0  0
   -0.2859    4.2692   -1.0065 H   0  0  0  0  0  0  0  0  0  0  0  0
   -1.2808    2.8160   -0.6190 H   0  0  0  0  0  0  0  0  0  0  0  0
  1  2  1  0
  2  3  2  0
  2  4  1  0
  4  5  1  0
  5  6  1  0
  6  7  1  0
  7  8  1  0
  8  9  1  0
  9 10  1  0
 10 11  2  0
 11 12  1  0
 12 13  2  0
 13 14  1  0
 13 15  1  0
 15 16  1  0
 16 17  1  0
 17 18  1  0
 18 19  1  0
 19 20  1  0
 20 21  2  0
 20 22  1  0
 22 23  1  0
 22 24  1  0
 24 25  1  0
 25 26  2  0
 25 27  1  0
 27 28  1  0
 27 29  1  0
 29 30  1  0
 30 31  2  0
 30 32  1  0
 32 33  1  0
 32 34  1  0
 34 35  1  0
 35 36  2  0
 18 37  1  0
 37 38  2  0
 37 39  1  0
 39 40  1  0
 40 41  1  0
 40 42  1  0
 42 43  2  0
 42 44  1  0
 44 45  1  0
 45 46  1  0
 45 47  1  0
 47 48  2  0
 47 49  1  0
 49 50  1  0
 50 51  1  0
 50 52  1  0
 52 53  2  0
 52 54  1  0
 54 55  1  0
 55 56  1  0
 55 57  1  0
 57 58  2  0
 57 59  1  0
 59 60  1  0
 60 61  1  0
 60 62  1  0
 62 63  2  0
 62 64  1  0
 64 65  1  0
 65 66  1  0
 66 67  1  0
 66 68  2  0
 65 69  1  0
 69 70  1  0
 70 71  1  0
 35  5  1  0
 14  9  2  0
 71 11  1  0
  1 72  1  0
  1 73  1  0
  1 74  1  0
  4 75  1  0
  5 76  1  1
  6 77  1  0
  6 78  1  0
  8 79  1  0
  8 80  1  0
 10 81  1  0
 12 82  1  0
 14 83  1  0
 15 84  1  0
 15 85  1  0
 17 86  1  0
 17 87  1  0
 18 88  1  6
 19 89  1  0
 22 90  1  1
 23 91  1  0
 23 92  1  0
 23 93  1  0
 24 94  1  0
 27 95  1  1
 28 96  1  0
 28 97  1  0
 28 98  1  0
 29 99  1  0
 32100  1  6
 33101  1  0
 33102  1  0
 33103  1  0
 34104  1  0
 39105  1  0
 40106  1  1
 41107  1  0
 41108  1  0
 41109  1  0
 44110  1  0
 45111  1  1
 46112  1  0
 46113  1  0
 46114  1  0
 49115  1  0
 50116  1  1
 51117  1  0
 51118  1  0
 51119  1  0
 54120  1  0
 55121  1  1
 56122  1  0
 56123  1  0
 56124  1  0
 59125  1  0
 60126  1  1
 61127  1  0
 61128  1  0
 61129  1  0
 64130  1  0
 65131  1  6
 67132  1  0
 67133  1  0
 69134  1  0
 69135  1  0
 71136  1  0
 71137  1  0
M  END
