
     RDKit          3D

147149  0  0  0  0  0  0  0  0999 V2000
   -8.5547    7.4263    0.0249 C   0  0  0  0  0  0  0  0  0  0  0  0
   -7.6393    6.4705    0.7222 C   0  0  0  0  0  0  0  0  0  0  0  0
   -6.7838    6.9315    1.5349 O   0  0  0  0  0  0  0  0  0  0  0  0
   -7.7239    5.0486    0.5213 N   0  0  0  0  0  0  0  0  0  0  0  0
   -8.2731    4.4445   -0.6930 C   0  0  1  0  0  0  0  0  0  0  0  0
   -7.3579    4.6551   -1.9224 C   0  0  0  0  0  0  0  0  0  0  0  0
   -5.7376    3.7764   -2.0612 S   0  0  0  0  0  0  0  0  0  0  0  0
   -4.9396    4.0305   -0.4157 C   0  0  0  0  0  0  0  0  0  0  0  0
   -3.6236    3.2891   -0.3418 C   0  0  0  0  0  0  0  0  0  0  0  0
   -2.5143    3.8753    0.2779 C   0  0  0  0  0  0  0  0  0  0  0  0
   -1.2505    3.2498    0.2674 C   0  0  0  0  0  0  0  0  0  0  0  0
   -1.1102    2.0220   -0.3800 C   0  0  0  0  0  0  0  0  0  0  0  0
   -2.2166    1.3854   -0.9620 C   0  0  0  0  0  0  0  0  0  0  0  0
   -3.4847    1.9962   -0.8868 C   0  0  0  0  0  0  0  0  0  0  0  0
   -2.0374    0.1146   -1.7532 C   0  0  0  0  0  0  0  0  0  0  0  0
   -2.8345   -1.3085   -0.9221 S   0  0  0  0  0  0  0  0  0  0  0  0
   -1.3106   -1.9515   -0.1330 C   0  0  0  0  0  0  0  0  0  0  0  0
   -1.5845   -3.2825    0.5843 C   0  0  2  0  0  0  0  0  0  0  0  0
   -2.5583   -3.0998    1.6660 N   0  0  0  0  0  0  0  0  0  0  0  0
   -3.6807   -3.9715    1.9048 C   0  0  0  0  0  0  0  0  0  0  0  0
   -4.0066   -4.2114    3.0964 O   0  0  0  0  0  0  0  0  0  0  0  0
   -4.4826   -4.5889    0.7757 C   0  0  1  0  0  0  0  0  0  0  0  0
   -3.9806   -6.0088    0.4607 C   0  0  0  0  0  0  0  0  0  0  0  0
   -5.8929   -4.6528    1.1530 N   0  0  0  0  0  0  0  0  0  0  0  0
   -6.7641   -3.5268    1.0482 C   0  0  0  0  0  0  0  0  0  0  0  0
   -7.3518   -3.1189    2.0801 O   0  0  0  0  0  0  0  0  0  0  0  0
   -7.0710   -2.9075   -0.2919 C   0  0  1  0  0  0  0  0  0  0  0  0
   -7.8378   -3.9158   -1.1655 C   0  0  0  0  0  0  0  0  0  0  0  0
   -7.8964   -1.7105   -0.1229 N   0  0  0  0  0  0  0  0  0  0  0  0
   -7.3272   -0.4171    0.1174 C   0  0  0  0  0  0  0  0  0  0  0  0
   -6.0725   -0.2560    0.0622 O   0  0  0  0  0  0  0  0  0  0  0  0
   -8.2175    0.7350    0.5144 C   0  0  1  0  0  0  0  0  0  0  0  0
   -8.0919    1.0145    2.0108 C   0  0  0  0  0  0  0  0  0  0  0  0
   -7.8451    1.9357   -0.2474 N   0  0  0  0  0  0  0  0  0  0  0  0
   -8.7541    3.0324   -0.4434 C   0  0  0  0  0  0  0  0  0  0  0  0
   -9.9991    2.8268   -0.3089 O   0  0  0  0  0  0  0  0  0  0  0  0
   -0.2988   -3.8266    1.1800 C   0  0  0  0  0  0  0  0  0  0  0  0
    0.2585   -3.1713    2.1013 O   0  0  0  0  0  0  0  0  0  0  0  0
    0.2945   -5.0655    0.7642 N   0  0  0  0  0  0  0  0  0  0  0  0
    0.3136   -5.5605   -0.6192 C   0  0  2  0  0  0  0  0  0  0  0  0
    0.2392   -7.0948   -0.6139 C   0  0  0  0  0  0  0  0  0  0  0  0
    1.5268   -5.0142   -1.3350 C   0  0  0  0  0  0  0  0  0  0  0  0
    1.4576   -3.8443   -1.8123 O   0  0  0  0  0  0  0  0  0  0  0  0
    2.6996   -5.8159   -1.6012 N   0  0  0  0  0  0  0  0  0  0  0  0
    3.9809   -5.7281   -0.8727 C   0  0  2  0  0  0  0  0  0  0  0  0
    3.8909   -6.5272    0.4326 C   0  0  0  0  0  0  0  0  0  0  0  0
    4.4831   -4.3225   -0.6040 C   0  0  0  0  0  0  0  0  0  0  0  0
    3.8636   -3.3056   -1.0334 O   0  0  0  0  0  0  0  0  0  0  0  0
    5.6202   -4.1092    0.2382 N   0  0  0  0  0  0  0  0  0  0  0  0
    6.9908   -4.1386   -0.2778 C   0  0  2  0  0  0  0  0  0  0  0  0
    7.5141   -5.5853   -0.2989 C   0  0  0  0  0  0  0  0  0  0  0  0
    7.8705   -3.2499    0.5813 C   0  0  0  0  0  0  0  0  0  0  0  0
    8.6306   -3.7670    1.4423 O   0  0  0  0  0  0  0  0  0  0  0  0
    7.7766   -1.8179    0.5191 N   0  0  0  0  0  0  0  0  0  0  0  0
    7.6548   -1.0622   -0.7311 C   0  0  2  0  0  0  0  0  0  0  0  0
    9.0198   -0.9645   -1.4122 C   0  0  0  0  0  0  0  0  0  0  0  0
    7.0679    0.3060   -0.4655 C   0  0  0  0  0  0  0  0  0  0  0  0
    6.0894    0.7127   -1.1506 O   0  0  0  0  0  0  0  0  0  0  0  0
    7.5704    1.1323    0.5895 N   0  0  0  0  0  0  0  0  0  0  0  0
    8.7628    1.9655    0.4234 C   0  0  2  0  0  0  0  0  0  0  0  0
    9.8064    1.5569    1.4748 C   0  0  0  0  0  0  0  0  0  0  0  0
    8.4354    3.4285    0.5634 C   0  0  0  0  0  0  0  0  0  0  0  0
    9.3345    4.2837    0.3386 O   0  0  0  0  0  0  0  0  0  0  0  0
    7.1524    3.8599    1.0310 N   0  0  0  0  0  0  0  0  0  0  0  0
    6.0938    4.2537    0.0946 C   0  0  2  0  0  0  0  0  0  0  0  0
    6.3306    5.6992   -0.3516 C   0  0  0  0  0  0  0  0  0  0  0  0
    4.7330    4.0909    0.7570 C   0  0  0  0  0  0  0  0  0  0  0  0
    4.6281    3.3452    1.7728 O   0  0  0  0  0  0  0  0  0  0  0  0
    3.5488    4.7695    0.2860 N   0  0  0  0  0  0  0  0  0  0  0  0
    3.1695    4.8647   -1.1269 C   0  0  2  0  0  0  0  0  0  0  0  0
    3.1926    6.3038   -1.6196 C   0  0  0  0  0  0  0  0  0  0  0  0
    3.3423    7.4191   -0.7250 N   0  0  0  0  0  0  0  0  0  0  0  0
    3.0872    6.5202   -2.8541 O   0  0  0  0  0  0  0  0  0  0  0  0
    1.7770    4.2303   -1.3518 C   0  0  0  0  0  0  0  0  0  0  0  0
    0.4505    5.2088   -0.5429 S   0  0  0  0  0  0  0  0  0  0  0  0
   -0.0375    4.0063    0.7442 C   0  0  0  0  0  0  0  0  0  0  0  0
   -8.4385    7.3566   -1.0767 H   0  0  0  0  0  0  0  0  0  0  0  0
   -8.3528    8.4799    0.3280 H   0  0  0  0  0  0  0  0  0  0  0  0
   -9.6074    7.1776    0.2852 H   0  0  0  0  0  0  0  0  0  0  0  0
   -7.4319    4.4370    1.3201 H   0  0  0  0  0  0  0  0  0  0  0  0
   -9.1969    5.0201   -0.9337 H   0  0  0  0  0  0  0  0  0  0  0  0
   -7.1291    5.7439   -2.0315 H   0  0  0  0  0  0  0  0  0  0  0  0
   -7.9398    4.3654   -2.8277 H   0  0  0  0  0  0  0  0  0  0  0  0
   -5.5643    3.6506    0.4029 H   0  0  0  0  0  0  0  0  0  0  0  0
   -4.7709    5.1268   -0.2912 H   0  0  0  0  0  0  0  0  0  0  0  0
   -2.6042    4.8819    0.6929 H   0  0  0  0  0  0  0  0  0  0  0  0
   -0.1323    1.5603   -0.4505 H   0  0  0  0  0  0  0  0  0  0  0  0
   -4.3041    1.5464   -1.4246 H   0  0  0  0  0  0  0  0  0  0  0  0
   -2.5035    0.2478   -2.7486 H   0  0  0  0  0  0  0  0  0  0  0  0
   -0.9626   -0.0886   -1.9266 H   0  0  0  0  0  0  0  0  0  0  0  0
   -0.5491   -2.1294   -0.9220 H   0  0  0  0  0  0  0  0  0  0  0  0
   -0.9205   -1.1954    0.5834 H   0  0  0  0  0  0  0  0  0  0  0  0
   -1.9872   -3.9926   -0.1548 H   0  0  0  0  0  0  0  0  0  0  0  0
   -2.3345   -2.4018    2.4135 H   0  0  0  0  0  0  0  0  0  0  0  0
   -4.3634   -3.9821   -0.1427 H   0  0  0  0  0  0  0  0  0  0  0  0
   -4.4466   -6.3699   -0.4761 H   0  0  0  0  0  0  0  0  0  0  0  0
   -2.8826   -6.0299    0.3361 H   0  0  0  0  0  0  0  0  0  0  0  0
   -4.2503   -6.7104    1.2819 H   0  0  0  0  0  0  0  0  0  0  0  0
   -6.1846   -5.4126    1.8106 H   0  0  0  0  0  0  0  0  0  0  0  0
   -6.1277   -2.6443   -0.8140 H   0  0  0  0  0  0  0  0  0  0  0  0
   -7.2317   -4.8401   -1.2985 H   0  0  0  0  0  0  0  0  0  0  0  0
   -8.0273   -3.4783   -2.1675 H   0  0  0  0  0  0  0  0  0  0  0  0
   -8.8089   -4.1931   -0.7000 H   0  0  0  0  0  0  0  0  0  0  0  0
   -8.9374   -1.7981   -0.1402 H   0  0  0  0  0  0  0  0  0  0  0  0
   -9.2748    0.4595    0.2971 H   0  0  0  0  0  0  0  0  0  0  0  0
   -7.0952    1.4624    2.2401 H   0  0  0  0  0  0  0  0  0  0  0  0
   -8.2385    0.0856    2.6005 H   0  0  0  0  0  0  0  0  0  0  0  0
   -8.8818    1.7406    2.3056 H   0  0  0  0  0  0  0  0  0  0  0  0
   -6.8297    2.1178   -0.3148 H   0  0  0  0  0  0  0  0  0  0  0  0
    1.0245   -5.4530    1.4004 H   0  0  0  0  0  0  0  0  0  0  0  0
   -0.5695   -5.2185   -1.1791 H   0  0  0  0  0  0  0  0  0  0  0  0
    0.2100   -7.4855   -1.6502 H   0  0  0  0  0  0  0  0  0  0  0  0
    1.0970   -7.5430   -0.0834 H   0  0  0  0  0  0  0  0  0  0  0  0
   -0.6900   -7.4127   -0.1059 H   0  0  0  0  0  0  0  0  0  0  0  0
    2.5127   -6.7498   -2.0317 H   0  0  0  0  0  0  0  0  0  0  0  0
    4.7449   -6.2222   -1.5065 H   0  0  0  0  0  0  0  0  0  0  0  0
    4.8946   -6.6462    0.8795 H   0  0  0  0  0  0  0  0  0  0  0  0
    3.4879   -7.5436    0.2377 H   0  0  0  0  0  0  0  0  0  0  0  0
    3.2380   -6.0149    1.1673 H   0  0  0  0  0  0  0  0  0  0  0  0
    5.4353   -3.6431    1.1567 H   0  0  0  0  0  0  0  0  0  0  0  0
    7.0081   -3.7736   -1.3249 H   0  0  0  0  0  0  0  0  0  0  0  0
    6.9349   -6.1937   -1.0123 H   0  0  0  0  0  0  0  0  0  0  0  0
    8.5746   -5.5940   -0.6259 H   0  0  0  0  0  0  0  0  0  0  0  0
    7.4447   -6.0382    0.7104 H   0  0  0  0  0  0  0  0  0  0  0  0
    8.1538   -1.3026    1.3481 H   0  0  0  0  0  0  0  0  0  0  0  0
    6.9658   -1.5868   -1.4349 H   0  0  0  0  0  0  0  0  0  0  0  0
    9.7724   -0.5487   -0.7156 H   0  0  0  0  0  0  0  0  0  0  0  0
    9.3567   -1.9777   -1.7139 H   0  0  0  0  0  0  0  0  0  0  0  0
    8.9662   -0.3238   -2.3170 H   0  0  0  0  0  0  0  0  0  0  0  0
    7.0103    1.1955    1.4706 H   0  0  0  0  0  0  0  0  0  0  0  0
    9.1967    1.8006   -0.5886 H   0  0  0  0  0  0  0  0  0  0  0  0
   10.7676    2.0753    1.2700 H   0  0  0  0  0  0  0  0  0  0  0  0
    9.9821    0.4614    1.4440 H   0  0  0  0  0  0  0  0  0  0  0  0
    9.4624    1.8368    2.4961 H   0  0  0  0  0  0  0  0  0  0  0  0
    7.1373    4.2941    1.9789 H   0  0  0  0  0  0  0  0  0  0  0  0
    6.1275    3.5908   -0.8012 H   0  0  0  0  0  0  0  0  0  0  0  0
    5.7546    5.9308   -1.2722 H   0  0  0  0  0  0  0  0  0  0  0  0
    7.4017    5.8481   -0.6097 H   0  0  0  0  0  0  0  0  0  0  0  0
    6.0619    6.4167    0.4519 H   0  0  0  0  0  0  0  0  0  0  0  0
    2.8497    5.0411    1.0164 H   0  0  0  0  0  0  0  0  0  0  0  0
    3.9054    4.2925   -1.7294 H   0  0  0  0  0  0  0  0  0  0  0  0
    3.2894    8.3952   -1.0929 H   0  0  0  0  0  0  0  0  0  0  0  0
    3.4304    7.2907    0.3056 H   0  0  0  0  0  0  0  0  0  0  0  0
    1.5720    4.2249   -2.4366 H   0  0  0  0  0  0  0  0  0  0  0  0
    1.7871    3.1704   -1.0225 H   0  0  0  0  0  0  0  0  0  0  0  0
   -0.3015    4.5667    1.6658 H   0  0  0  0  0  0  0  0  0  0  0  0
    0.7983    3.3286    1.0204 H   0  0  0  0  0  0  0  0  0  0  0  0
  1  2  1  0
  2  3  2  0
  2  4  1  0
  4  5  1  0
  5  6  1  0
  6  7  1  0
  7  8  1  0
  8  9  1  0
  9 10  1  0
 10 11  2  0
 11 12  1  0
 12 13  2  0
 13 14  1  0
 13 15  1  0
 15 16  1  0
 16 17  1  0
 17 18  1  0
 18 19  1  0
 19 20  1  0
 20 21  2  0
 20 22  1  0
 22 23  1  0
 22 24  1  0
 24 25  1  0
 25 26  2  0
 25 27  1  0
 27 28  1  0
 27 29  1  0
 29 30  1  0
 30 31  2  0
 30 32  1  0
 32 33  1  0
 32 34  1  0
 34 35  1  0
 35 36  2  0
 18 37  1  0
 37 38  2  0
 37 39  1  0
 39 40  1  0
 40 41  1  0
 40 42  1  0
 42 43  2  0
 42 44  1  0
 44 45  1  0
 45 46  1  0
 45 47  1  0
 47 48  2  0
 47 49  1  0
 49 50  1  0
 50 51  1  0
 50 52  1  0
 52 53  2  0
 52 54  1  0
 54 55  1  0
 55 56  1  0
 55 57  1  0
 57 58  2  0
 57 59  1  0
 59 60  1  0
 60 61  1  0
 60 62  1  0
 62 63  2  0
 62 64  1  0
 64 65  1  0
 65 66  1  0
 65 67  1  0
 67 68  2  0
 67 69  1  0
 69 70  1  0
 70 71  1  0
 71 72  1  0
 71 73  2  0
 70 74  1  0
 74 75  1  0
 75 76  1  0
 35  5  1  0
 14  9  2  0
 76 11  1  0
  1 77  1  0
  1 78  1  0
  1 79  1  0
  4 80  1  0
  5 81  1  6
  6 82  1  0
  6 83  1  0
  8 84  1  0
  8 85  1  0
 10 86  1  0
 12 87  1  0
 14 88  1  0
 15 89  1  0
 15 90  1  0
 17 91  1  0
 17 92  1  0
 18 93  1  6
 19 94  1  0
 22 95  1  6
 23 96  1  0
 23 97  1  0
 23 98  1  0
 24 99  1  0
 27100  1  6
 28101  1  0
 28102  1  0
 28103  1  0
 29104  1  0
 32105  1  1
 33106  1  0
 33107  1  0
 33108  1  0
 34109  1  0
 39110  1  0
 40111  1  6
 41112  1  0
 41113  1  0
 41114  1  0
 44115  1  0
 45116  1  6
 46117  1  0
 46118  1  0
 46119  1  0
 49120  1  0
 50121  1  6
 51122  1  0
 51123  1  0
 51124  1  0
 54125  1  0
 55126  1  6
 56127  1  0
 56128  1  0
 56129  1  0
 59130  1  0
 60131  1  6
 61132  1  0
 61133  1  0
 61134  1  0
 64135  1  0
 65136  1  6
 66137  1  0
 66138  1  0
 66139  1  0
 69140  1  0
 70141  1  6
 72142  1  0
 72143  1  0
 74144  1  0
 74145  1  0
 76146  1  0
 76147  1  0
M  END
