
     RDKit          3D

177179  0  0  0  0  0  0  0  0999 V2000
   10.7412    5.9454   -0.5637 C   0  0  0  0  0  0  0  0  0  0  0  0
   10.2951    4.6093   -0.0793 C   0  0  0  0  0  0  0  0  0  0  0  0
   11.1692    3.7042    0.0243 O   0  0  0  0  0  0  0  0  0  0  0  0
    8.9307    4.2981    0.2259 N   0  0  0  0  0  0  0  0  0  0  0  0
    8.0137    3.5023   -0.6027 C   0  0  2  0  0  0  0  0  0  0  0  0
    6.7288    3.0531    0.2308 C   0  0  0  0  0  0  0  0  0  0  0  0
    5.2977    3.8228   -0.5897 S   0  0  0  0  0  0  0  0  0  0  0  0
    4.5571    2.3299   -1.4934 C   0  0  0  0  0  0  0  0  0  0  0  0
    3.1469    2.0743   -0.9135 C   0  0  0  0  0  0  0  0  0  0  0  0
    2.6484    3.0440   -0.1052 C   0  0  0  0  0  0  0  0  0  0  0  0
    1.8778    2.7983    0.9948 C   0  0  0  0  0  0  0  0  0  0  0  0
    1.8028    1.3435    1.4586 C   0  0  0  0  0  0  0  0  0  0  0  0
    2.5225    0.4056    0.7034 C   0  0  0  0  0  0  0  0  0  0  0  0
    2.7452    0.7627   -0.6344 C   0  0  0  0  0  0  0  0  0  0  0  0
    3.9122    0.0395    1.2745 C   0  0  0  0  0  0  0  0  0  0  0  0
    3.8383   -1.4626    2.2226 S   0  0  0  0  0  0  0  0  0  0  0  0
    2.5532   -2.4230    1.2314 C   0  0  0  0  0  0  0  0  0  0  0  0
    2.9388   -3.9565    1.0739 C   0  0  2  0  0  0  0  0  0  0  0  0
    4.4211   -4.1565    1.0128 N   0  0  0  0  0  0  0  0  0  0  0  0
    5.1167   -5.2027    0.4019 C   0  0  0  0  0  0  0  0  0  0  0  0
    5.3134   -6.2691    1.0996 O   0  0  0  0  0  0  0  0  0  0  0  0
    5.7706   -4.9831   -0.9170 C   0  0  1  0  0  0  0  0  0  0  0  0
    5.4574   -3.5561   -1.5362 C   0  0  0  0  0  0  0  0  0  0  0  0
    7.2359   -5.1711   -0.5876 N   0  0  0  0  0  0  0  0  0  0  0  0
    8.2844   -4.3352   -1.1015 C   0  0  0  0  0  0  0  0  0  0  0  0
    8.9116   -4.6443   -2.1702 O   0  0  0  0  0  0  0  0  0  0  0  0
    8.6173   -3.0749   -0.3076 C   0  0  1  0  0  0  0  0  0  0  0  0
    9.3737   -3.5897    0.8618 C   0  0  0  0  0  0  0  0  0  0  0  0
    9.4591   -2.1528   -1.0730 N   0  0  0  0  0  0  0  0  0  0  0  0
    9.7639   -0.8372   -0.6608 C   0  0  0  0  0  0  0  0  0  0  0  0
   10.8795   -0.3856   -1.0262 O   0  0  0  0  0  0  0  0  0  0  0  0
    8.7525    0.0319   -0.0169 C   0  0  1  0  0  0  0  0  0  0  0  0
    9.4577    0.7262    1.1802 C   0  0  0  0  0  0  0  0  0  0  0  0
    8.3022    0.9533   -1.0933 N   0  0  0  0  0  0  0  0  0  0  0  0
    8.6679    2.3547   -1.3095 C   0  0  0  0  0  0  0  0  0  0  0  0
    9.5553    2.6263   -2.1797 O   0  0  0  0  0  0  0  0  0  0  0  0
    2.1779   -4.4595   -0.1674 C   0  0  0  0  0  0  0  0  0  0  0  0
    1.9941   -3.7332   -1.2020 O   0  0  0  0  0  0  0  0  0  0  0  0
    1.7196   -5.7846   -0.2635 N   0  0  0  0  0  0  0  0  0  0  0  0
    1.4959   -6.6697    0.8877 C   0  0  2  0  0  0  0  0  0  0  0  0
    1.7496   -8.0593    0.4999 C   0  0  0  0  0  0  0  0  0  0  0  0
    0.0776   -6.4795    1.4391 C   0  0  0  0  0  0  0  0  0  0  0  0
   -0.1123   -5.8548    2.5325 O   0  0  0  0  0  0  0  0  0  0  0  0
   -1.0927   -7.0146    0.7943 N   0  0  0  0  0  0  0  0  0  0  0  0
   -1.3245   -7.1627   -0.6566 C   0  0  2  0  0  0  0  0  0  0  0  0
   -1.6629   -5.7676   -1.3099 C   0  0  0  0  0  0  0  0  0  0  0  0
   -2.4243   -8.2055   -0.8084 C   0  0  0  0  0  0  0  0  0  0  0  0
   -2.3065   -9.1365   -1.6470 O   0  0  0  0  0  0  0  0  0  0  0  0
   -3.6319   -8.1452   -0.0314 N   0  0  0  0  0  0  0  0  0  0  0  0
   -4.3595   -6.9569    0.4050 C   0  0  2  0  0  0  0  0  0  0  0  0
   -4.8433   -7.1379    1.8654 C   0  0  0  0  0  0  0  0  0  0  0  0
   -5.6051   -6.8466   -0.4333 C   0  0  0  0  0  0  0  0  0  0  0  0
   -5.9543   -7.8590   -1.1338 O   0  0  0  0  0  0  0  0  0  0  0  0
   -6.5330   -5.7749   -0.2483 N   0  0  0  0  0  0  0  0  0  0  0  0
   -6.1690   -4.3758   -0.3237 C   0  0  2  0  0  0  0  0  0  0  0  0
   -6.1463   -3.7431    1.0778 C   0  0  0  0  0  0  0  0  0  0  0  0
   -7.0113   -3.6246   -1.3343 C   0  0  0  0  0  0  0  0  0  0  0  0
   -6.9761   -4.0001   -2.5475 O   0  0  0  0  0  0  0  0  0  0  0  0
   -7.7940   -2.4366   -0.9613 N   0  0  0  0  0  0  0  0  0  0  0  0
   -9.0038   -2.3533   -0.0891 C   0  0  2  0  0  0  0  0  0  0  0  0
   -9.5749   -3.7923    0.2588 C   0  0  0  0  0  0  0  0  0  0  0  0
   -9.9654   -1.5836   -0.9669 C   0  0  0  0  0  0  0  0  0  0  0  0
  -10.9431   -2.1535   -1.5583 O   0  0  0  0  0  0  0  0  0  0  0  0
   -9.9395   -0.1686   -1.0084 N   0  0  0  0  0  0  0  0  0  0  0  0
   -9.1283    0.7536   -0.2593 C   0  0  2  0  0  0  0  0  0  0  0  0
  -10.1056    1.4654    0.6682 C   0  0  0  0  0  0  0  0  0  0  0  0
   -8.5025    1.6687   -1.2913 C   0  0  0  0  0  0  0  0  0  0  0  0
   -7.8881    1.1774   -2.2800 O   0  0  0  0  0  0  0  0  0  0  0  0
   -8.7868    3.0759   -1.3154 N   0  0  0  0  0  0  0  0  0  0  0  0
   -8.3468    4.1090   -0.3768 C   0  0  2  0  0  0  0  0  0  0  0  0
   -9.5643    4.8885    0.1071 C   0  0  0  0  0  0  0  0  0  0  0  0
   -7.3860    4.9170   -1.1898 C   0  0  0  0  0  0  0  0  0  0  0  0
   -7.8085    5.5326   -2.1969 O   0  0  0  0  0  0  0  0  0  0  0  0
   -5.9746    4.9122   -0.9349 N   0  0  0  0  0  0  0  0  0  0  0  0
   -5.2565    5.5318    0.1920 C   0  0  2  0  0  0  0  0  0  0  0  0
   -5.8680    5.2168    1.5442 C   0  0  0  0  0  0  0  0  0  0  0  0
   -5.2445    7.0463   -0.0735 C   0  0  0  0  0  0  0  0  0  0  0  0
   -6.3137    7.7351    0.0885 O   0  0  0  0  0  0  0  0  0  0  0  0
   -4.0919    7.6987   -0.6437 N   0  0  0  0  0  0  0  0  0  0  0  0
   -2.7498    7.6572   -0.0799 C   0  0  2  0  0  0  0  0  0  0  0  0
   -2.5754    8.8414    0.8990 C   0  0  0  0  0  0  0  0  0  0  0  0
   -1.8080    7.9297   -1.3342 C   0  0  0  0  0  0  0  0  0  0  0  0
   -2.3015    7.7531   -2.5248 O   0  0  0  0  0  0  0  0  0  0  0  0
   -0.3520    7.9828   -1.2915 N   0  0  0  0  0  0  0  0  0  0  0  0
    0.5260    7.6991   -0.1230 C   0  0  2  0  0  0  0  0  0  0  0  0
    1.9710    7.8989   -0.7411 C   0  0  0  0  0  0  0  0  0  0  0  0
    2.2623    9.2151   -1.1343 N   0  0  0  0  0  0  0  0  0  0  0  0
    2.7199    6.9074   -1.0173 O   0  0  0  0  0  0  0  0  0  0  0  0
    0.2048    6.2256    0.3893 C   0  0  0  0  0  0  0  0  0  0  0  0
    1.5368    5.6297    1.4022 S   0  0  0  0  0  0  0  0  0  0  0  0
    0.8083    3.9409    1.4217 C   0  0  0  0  0  0  0  0  0  0  0  0
   11.3839    5.8682   -1.4502 H   0  0  0  0  0  0  0  0  0  0  0  0
    9.9249    6.6967   -0.7814 H   0  0  0  0  0  0  0  0  0  0  0  0
   11.3475    6.3461    0.3089 H   0  0  0  0  0  0  0  0  0  0  0  0
    8.8305    4.3582    1.2662 H   0  0  0  0  0  0  0  0  0  0  0  0
    7.6939    4.1573   -1.3986 H   0  0  0  0  0  0  0  0  0  0  0  0
    6.6840    1.9716    0.3641 H   0  0  0  0  0  0  0  0  0  0  0  0
    6.8479    3.5179    1.2176 H   0  0  0  0  0  0  0  0  0  0  0  0
    4.4046    2.6358   -2.5198 H   0  0  0  0  0  0  0  0  0  0  0  0
    5.1304    1.3989   -1.3730 H   0  0  0  0  0  0  0  0  0  0  0  0
    2.6799    3.9375   -0.6275 H   0  0  0  0  0  0  0  0  0  0  0  0
    1.1612    1.0253    2.2622 H   0  0  0  0  0  0  0  0  0  0  0  0
    2.0708    0.2664   -1.3900 H   0  0  0  0  0  0  0  0  0  0  0  0
    4.3955    0.8349    1.8628 H   0  0  0  0  0  0  0  0  0  0  0  0
    4.6868   -0.0480    0.4119 H   0  0  0  0  0  0  0  0  0  0  0  0
    2.3633   -1.9300    0.3094 H   0  0  0  0  0  0  0  0  0  0  0  0
    1.6030   -2.4490    1.7963 H   0  0  0  0  0  0  0  0  0  0  0  0
    2.5865   -4.4295    1.9731 H   0  0  0  0  0  0  0  0  0  0  0  0
    4.9547   -3.7607    1.8081 H   0  0  0  0  0  0  0  0  0  0  0  0
    5.4789   -5.7275   -1.6984 H   0  0  0  0  0  0  0  0  0  0  0  0
    6.3585   -3.1544   -2.0181 H   0  0  0  0  0  0  0  0  0  0  0  0
    5.1767   -2.8478   -0.7389 H   0  0  0  0  0  0  0  0  0  0  0  0
    4.7277   -3.6673   -2.3150 H   0  0  0  0  0  0  0  0  0  0  0  0
    7.5473   -6.0570    0.0470 H   0  0  0  0  0  0  0  0  0  0  0  0
    7.6521   -2.5878    0.0859 H   0  0  0  0  0  0  0  0  0  0  0  0
    8.9164   -4.5670    1.2366 H   0  0  0  0  0  0  0  0  0  0  0  0
    9.3412   -2.8482    1.6132 H   0  0  0  0  0  0  0  0  0  0  0  0
   10.4154   -3.8693    0.5481 H   0  0  0  0  0  0  0  0  0  0  0  0
   10.1146   -2.5857   -1.7719 H   0  0  0  0  0  0  0  0  0  0  0  0
    7.8581   -0.4458    0.3982 H   0  0  0  0  0  0  0  0  0  0  0  0
   10.2334    1.4476    0.7630 H   0  0  0  0  0  0  0  0  0  0  0  0
   10.0141   -0.0427    1.7509 H   0  0  0  0  0  0  0  0  0  0  0  0
    8.7378    1.2590    1.8158 H   0  0  0  0  0  0  0  0  0  0  0  0
    8.0086    0.4669   -1.9694 H   0  0  0  0  0  0  0  0  0  0  0  0
    1.2375   -6.0356   -1.1471 H   0  0  0  0  0  0  0  0  0  0  0  0
    2.1988   -6.4589    1.7597 H   0  0  0  0  0  0  0  0  0  0  0  0
    2.3731   -8.1081   -0.4522 H   0  0  0  0  0  0  0  0  0  0  0  0
    2.2840   -8.6211    1.3141 H   0  0  0  0  0  0  0  0  0  0  0  0
    0.8148   -8.5875    0.2449 H   0  0  0  0  0  0  0  0  0  0  0  0
   -1.8524   -7.2588    1.4449 H   0  0  0  0  0  0  0  0  0  0  0  0
   -0.4261   -7.5635   -1.1988 H   0  0  0  0  0  0  0  0  0  0  0  0
   -0.9516   -5.5974   -2.1322 H   0  0  0  0  0  0  0  0  0  0  0  0
   -1.5519   -4.9615   -0.5498 H   0  0  0  0  0  0  0  0  0  0  0  0
   -2.6811   -5.7770   -1.7299 H   0  0  0  0  0  0  0  0  0  0  0  0
   -4.1223   -9.0225    0.0920 H   0  0  0  0  0  0  0  0  0  0  0  0
   -3.7323   -6.0365    0.3701 H   0  0  0  0  0  0  0  0  0  0  0  0
   -4.2473   -7.9048    2.3673 H   0  0  0  0  0  0  0  0  0  0  0  0
   -5.8993   -7.5252    1.8549 H   0  0  0  0  0  0  0  0  0  0  0  0
   -4.8185   -6.1770    2.4365 H   0  0  0  0  0  0  0  0  0  0  0  0
   -7.5011   -6.0854    0.0236 H   0  0  0  0  0  0  0  0  0  0  0  0
   -5.1783   -4.3123   -0.7010 H   0  0  0  0  0  0  0  0  0  0  0  0
   -6.9403   -4.2011    1.7517 H   0  0  0  0  0  0  0  0  0  0  0  0
   -5.1714   -3.8973    1.4872 H   0  0  0  0  0  0  0  0  0  0  0  0
   -6.3257   -2.6397    0.9566 H   0  0  0  0  0  0  0  0  0  0  0  0
   -7.5852   -1.6145   -1.5732 H   0  0  0  0  0  0  0  0  0  0  0  0
   -8.7480   -1.9175    0.8718 H   0  0  0  0  0  0  0  0  0  0  0  0
   -9.3633   -4.5527   -0.5526 H   0  0  0  0  0  0  0  0  0  0  0  0
   -9.2679   -4.0821    1.2498 H   0  0  0  0  0  0  0  0  0  0  0  0
  -10.6658   -3.7117    0.2943 H   0  0  0  0  0  0  0  0  0  0  0  0
  -10.6549    0.1938   -1.6627 H   0  0  0  0  0  0  0  0  0  0  0  0
   -8.3402    0.2564    0.3625 H   0  0  0  0  0  0  0  0  0  0  0  0
   -9.5742    2.0513    1.4584 H   0  0  0  0  0  0  0  0  0  0  0  0
  -10.7555    2.0929    0.0506 H   0  0  0  0  0  0  0  0  0  0  0  0
  -10.6915    0.6807    1.1474 H   0  0  0  0  0  0  0  0  0  0  0  0
   -9.0963    3.4381   -2.2490 H   0  0  0  0  0  0  0  0  0  0  0  0
   -7.8253    3.6054    0.5308 H   0  0  0  0  0  0  0  0  0  0  0  0
   -9.3435    5.9660    0.1561 H   0  0  0  0  0  0  0  0  0  0  0  0
   -9.9565    4.4951    1.0373 H   0  0  0  0  0  0  0  0  0  0  0  0
  -10.3800    4.7732   -0.6751 H   0  0  0  0  0  0  0  0  0  0  0  0
   -5.4189    4.8981   -1.8256 H   0  0  0  0  0  0  0  0  0  0  0  0
   -4.2574    5.0659    0.1914 H   0  0  0  0  0  0  0  0  0  0  0  0
   -5.8330    4.1261    1.6960 H   0  0  0  0  0  0  0  0  0  0  0  0
   -5.3028    5.7037    2.3374 H   0  0  0  0  0  0  0  0  0  0  0  0
   -6.9482    5.5827    1.5988 H   0  0  0  0  0  0  0  0  0  0  0  0
   -4.3462    8.5084   -1.2744 H   0  0  0  0  0  0  0  0  0  0  0  0
   -2.5600    6.7384    0.4804 H   0  0  0  0  0  0  0  0  0  0  0  0
   -2.2672    9.7439    0.3137 H   0  0  0  0  0  0  0  0  0  0  0  0
   -1.8383    8.6045    1.6661 H   0  0  0  0  0  0  0  0  0  0  0  0
   -3.5501    8.9923    1.3640 H   0  0  0  0  0  0  0  0  0  0  0  0
    0.0691    8.1852   -2.2534 H   0  0  0  0  0  0  0  0  0  0  0  0
    0.2704    8.4432    0.6557 H   0  0  0  0  0  0  0  0  0  0  0  0
    3.1446    9.5760   -1.5608 H   0  0  0  0  0  0  0  0  0  0  0  0
    1.3807    9.7870   -1.2972 H   0  0  0  0  0  0  0  0  0  0  0  0
   -0.6008    6.3951    1.1457 H   0  0  0  0  0  0  0  0  0  0  0  0
    0.0367    5.6835   -0.5319 H   0  0  0  0  0  0  0  0  0  0  0  0
   -0.0022    3.7491    0.6858 H   0  0  0  0  0  0  0  0  0  0  0  0
    0.5558    3.7878    2.4830 H   0  0  0  0  0  0  0  0  0  0  0  0
  1  2  1  0
  2  3  2  0
  2  4  1  0
  4  5  1  0
  5  6  1  0
  6  7  1  0
  7  8  1  0
  8  9  1  0
  9 10  1  0
 10 11  2  0
 11 12  1  0
 12 13  2  0
 13 14  1  0
 13 15  1  0
 15 16  1  0
 16 17  1  0
 17 18  1  0
 18 19  1  0
 19 20  1  0
 20 21  2  0
 20 22  1  0
 22 23  1  0
 22 24  1  0
 24 25  1  0
 25 26  2  0
 25 27  1  0
 27 28  1  0
 27 29  1  0
 29 30  1  0
 30 31  2  0
 30 32  1  0
 32 33  1  0
 32 34  1  0
 34 35  1  0
 35 36  2  0
 18 37  1  0
 37 38  2  0
 37 39  1  0
 39 40  1  0
 40 41  1  0
 40 42  1  0
 42 43  2  0
 42 44  1  0
 44 45  1  0
 45 46  1  0
 45 47  1  0
 47 48  2  0
 47 49  1  0
 49 50  1  0
 50 51  1  0
 50 52  1  0
 52 53  2  0
 52 54  1  0
 54 55  1  0
 55 56  1  0
 55 57  1  0
 57 58  2  0
 57 59  1  0
 59 60  1  0
 60 61  1  0
 60 62  1  0
 62 63  2  0
 62 64  1  0
 64 65  1  0
 65 66  1  0
 65 67  1  0
 67 68  2  0
 67 69  1  0
 69 70  1  0
 70 71  1  0
 70 72  1  0
 72 73  2  0
 72 74  1  0
 74 75  1  0
 75 76  1  0
 75 77  1  0
 77 78  2  0
 77 79  1  0
 79 80  1  0
 80 81  1  0
 80 82  1  0
 82 83  2  0
 82 84  1  0
 84 85  1  0
 85 86  1  0
 86 87  1  0
 86 88  2  0
 85 89  1  0
 89 90  1  0
 90 91  1  0
 35  5  1  0
 14  9  2  0
 91 11  1  0
  1 92  1  0
  1 93  1  0
  1 94  1  0
  4 95  1  0
  5 96  1  6
  6 97  1  0
  6 98  1  0
  8 99  1  0
  8100  1  0
 10101  1  0
 12102  1  0
 14103  1  0
 15104  1  0
 15105  1  0
 17106  1  0
 17107  1  0
 18108  1  1
 19109  1  0
 22110  1  6
 23111  1  0
 23112  1  0
 23113  1  0
 24114  1  0
 27115  1  1
 28116  1  0
 28117  1  0
 28118  1  0
 29119  1  0
 32120  1  1
 33121  1  0
 33122  1  0
 33123  1  0
 34124  1  0
 39125  1  0
 40126  1  1
 41127  1  0
 41128  1  0
 41129  1  0
 44130  1  0
 45131  1  6
 46132  1  0
 46133  1  0
 46134  1  0
 49135  1  0
 50136  1  1
 51137  1  0
 51138  1  0
 51139  1  0
 54140  1  0
 55141  1  6
 56142  1  0
 56143  1  0
 56144  1  0
 59145  1  0
 60146  1  1
 61147  1  0
 61148  1  0
 61149  1  0
 64150  1  0
 65151  1  1
 66152  1  0
 66153  1  0
 66154  1  0
 69155  1  0
 70156  1  1
 71157  1  0
 71158  1  0
 71159  1  0
 74160  1  0
 75161  1  1
 76162  1  0
 76163  1  0
 76164  1  0
 79165  1  0
 80166  1  1
 81167  1  0
 81168  1  0
 81169  1  0
 84170  1  0
 85171  1  1
 87172  1  0
 87173  1  0
 89174  1  0
 89175  1  0
 91176  1  0
 91177  1  0
M  END
