
     RDKit          3D

167169  0  0  0  0  0  0  0  0999 V2000
   -8.9073    5.9864    1.0376 C   0  0  0  0  0  0  0  0  0  0  0  0
   -8.4073    4.7115    1.6515 C   0  0  0  0  0  0  0  0  0  0  0  0
   -7.9500    4.7421    2.8257 O   0  0  0  0  0  0  0  0  0  0  0  0
   -8.4278    3.4579    0.9426 N   0  0  0  0  0  0  0  0  0  0  0  0
   -8.7568    3.3079   -0.4806 C   0  0  1  0  0  0  0  0  0  0  0  0
   -7.4695    3.0653   -1.2963 C   0  0  0  0  0  0  0  0  0  0  0  0
   -6.2048    4.3510   -0.9959 S   0  0  0  0  0  0  0  0  0  0  0  0
   -5.2656    3.4696    0.3130 C   0  0  0  0  0  0  0  0  0  0  0  0
   -3.8949    3.1032   -0.1931 C   0  0  0  0  0  0  0  0  0  0  0  0
   -3.0209    4.1037   -0.6294 C   0  0  0  0  0  0  0  0  0  0  0  0
   -1.7265    3.7852   -1.0557 C   0  0  0  0  0  0  0  0  0  0  0  0
   -1.3049    2.4450   -1.0499 C   0  0  0  0  0  0  0  0  0  0  0  0
   -2.1809    1.4210   -0.6570 C   0  0  0  0  0  0  0  0  0  0  0  0
   -3.4679    1.7654   -0.1930 C   0  0  0  0  0  0  0  0  0  0  0  0
   -1.6683   -0.0036   -0.6157 C   0  0  0  0  0  0  0  0  0  0  0  0
   -2.9988   -1.2560   -0.8059 S   0  0  0  0  0  0  0  0  0  0  0  0
   -2.4351   -2.3461    0.5487 C   0  0  0  0  0  0  0  0  0  0  0  0
   -3.3612   -3.5664    0.6780 C   0  0  2  0  0  0  0  0  0  0  0  0
   -4.6830   -3.1579    1.1781 N   0  0  0  0  0  0  0  0  0  0  0  0
   -5.7962   -4.0555    1.3175 C   0  0  0  0  0  0  0  0  0  0  0  0
   -6.6125   -3.8630    2.2597 O   0  0  0  0  0  0  0  0  0  0  0  0
   -6.0533   -5.1817    0.3450 C   0  0  1  0  0  0  0  0  0  0  0  0
   -5.9350   -6.5342    1.0488 C   0  0  0  0  0  0  0  0  0  0  0  0
   -7.3875   -5.0170   -0.2351 N   0  0  0  0  0  0  0  0  0  0  0  0
   -7.6924   -3.9110   -1.0944 C   0  0  0  0  0  0  0  0  0  0  0  0
   -6.7962   -3.4421   -1.8506 O   0  0  0  0  0  0  0  0  0  0  0  0
   -9.0170   -3.1910   -1.0209 C   0  0  1  0  0  0  0  0  0  0  0  0
  -10.1703   -4.0920   -0.5743 C   0  0  0  0  0  0  0  0  0  0  0  0
   -8.8921   -2.0626   -0.0926 N   0  0  0  0  0  0  0  0  0  0  0  0
   -9.7123   -0.8847   -0.1253 C   0  0  0  0  0  0  0  0  0  0  0  0
  -10.0273   -0.3487    0.9729 O   0  0  0  0  0  0  0  0  0  0  0  0
  -10.1691   -0.2380   -1.4145 C   0  0  1  0  0  0  0  0  0  0  0  0
  -11.6984   -0.2090   -1.5282 C   0  0  0  0  0  0  0  0  0  0  0  0
   -9.5904    1.1069   -1.5630 N   0  0  0  0  0  0  0  0  0  0  0  0
   -9.7754    2.1940   -0.6320 C   0  0  0  0  0  0  0  0  0  0  0  0
  -10.8174    2.2413    0.0740 O   0  0  0  0  0  0  0  0  0  0  0  0
   -2.7428   -4.5688    1.6257 C   0  0  0  0  0  0  0  0  0  0  0  0
   -2.8461   -4.3772    2.8690 O   0  0  0  0  0  0  0  0  0  0  0  0
   -2.0760   -5.7577    1.1695 N   0  0  0  0  0  0  0  0  0  0  0  0
   -1.3735   -5.8710   -0.1150 C   0  0  2  0  0  0  0  0  0  0  0  0
   -1.6717   -7.2338   -0.7452 C   0  0  0  0  0  0  0  0  0  0  0  0
    0.1093   -5.6698    0.0829 C   0  0  0  0  0  0  0  0  0  0  0  0
    0.6294   -4.5454   -0.1720 O   0  0  0  0  0  0  0  0  0  0  0  0
    0.9330   -6.7346    0.5649 N   0  0  0  0  0  0  0  0  0  0  0  0
    2.1711   -7.0898   -0.1291 C   0  0  2  0  0  0  0  0  0  0  0  0
    2.2299   -8.6049   -0.3507 C   0  0  0  0  0  0  0  0  0  0  0  0
    3.3717   -6.6202    0.6457 C   0  0  0  0  0  0  0  0  0  0  0  0
    3.5922   -7.0724    1.8023 O   0  0  0  0  0  0  0  0  0  0  0  0
    4.2637   -5.6559    0.0671 N   0  0  0  0  0  0  0  0  0  0  0  0
    5.6765   -5.9335   -0.2284 C   0  0  2  0  0  0  0  0  0  0  0  0
    5.8405   -7.2725   -0.9600 C   0  0  0  0  0  0  0  0  0  0  0  0
    6.5235   -5.9072    1.0285 C   0  0  0  0  0  0  0  0  0  0  0  0
    6.3069   -6.7740    1.9201 O   0  0  0  0  0  0  0  0  0  0  0  0
    7.5944   -4.9651    1.2413 N   0  0  0  0  0  0  0  0  0  0  0  0
    8.0194   -3.9179    0.3036 C   0  0  2  0  0  0  0  0  0  0  0  0
    8.8411   -4.5257   -0.8422 C   0  0  0  0  0  0  0  0  0  0  0  0
    8.8403   -2.8840    1.0376 C   0  0  0  0  0  0  0  0  0  0  0  0
    9.9663   -3.2005    1.5139 O   0  0  0  0  0  0  0  0  0  0  0  0
    8.2872   -1.5996    1.3355 N   0  0  0  0  0  0  0  0  0  0  0  0
    8.4566   -0.4158    0.4830 C   0  0  2  0  0  0  0  0  0  0  0  0
    8.0100   -0.6863   -0.9562 C   0  0  0  0  0  0  0  0  0  0  0  0
    9.8854    0.0818    0.5146 C   0  0  0  0  0  0  0  0  0  0  0  0
   10.8284   -0.7334    0.3296 O   0  0  0  0  0  0  0  0  0  0  0  0
   10.1946    1.4625    0.7705 N   0  0  0  0  0  0  0  0  0  0  0  0
    9.4771    2.5647    0.1193 C   0  0  2  0  0  0  0  0  0  0  0  0
   10.1614    2.8882   -1.2128 C   0  0  0  0  0  0  0  0  0  0  0  0
    9.4468    3.7899    1.0108 C   0  0  0  0  0  0  0  0  0  0  0  0
   10.1022    3.7863    2.0889 O   0  0  0  0  0  0  0  0  0  0  0  0
    8.7295    4.9834    0.6478 N   0  0  0  0  0  0  0  0  0  0  0  0
    7.5461    5.0207   -0.2168 C   0  0  2  0  0  0  0  0  0  0  0  0
    7.7180    6.1286   -1.2615 C   0  0  0  0  0  0  0  0  0  0  0  0
    6.3203    5.2191    0.6417 C   0  0  0  0  0  0  0  0  0  0  0  0
    5.9972    4.3230    1.4677 O   0  0  0  0  0  0  0  0  0  0  0  0
    5.5569    6.4252    0.5915 N   0  0  0  0  0  0  0  0  0  0  0  0
    4.3892    6.5402   -0.2757 C   0  0  2  0  0  0  0  0  0  0  0  0
    4.3805    7.9177   -0.9378 C   0  0  0  0  0  0  0  0  0  0  0  0
    3.1476    6.2434    0.5221 C   0  0  0  0  0  0  0  0  0  0  0  0
    2.8777    5.0413    0.7862 O   0  0  0  0  0  0  0  0  0  0  0  0
    2.3748    7.2816    1.1504 N   0  0  0  0  0  0  0  0  0  0  0  0
    1.2303    7.9683    0.5258 C   0  0  1  0  0  0  0  0  0  0  0  0
    1.6470    9.3320    0.0363 C   0  0  0  0  0  0  0  0  0  0  0  0
    2.3003   10.2321    0.9305 N   0  0  0  0  0  0  0  0  0  0  0  0
    1.4075    9.6967   -1.1445 O   0  0  0  0  0  0  0  0  0  0  0  0
    0.5426    7.1125   -0.5583 C   0  0  0  0  0  0  0  0  0  0  0  0
   -0.1935    5.6235    0.1974 S   0  0  0  0  0  0  0  0  0  0  0  0
   -0.7647    4.8916   -1.3713 C   0  0  0  0  0  0  0  0  0  0  0  0
   -8.3456    6.2181    0.1103 H   0  0  0  0  0  0  0  0  0  0  0  0
   -8.7731    6.8312    1.7439 H   0  0  0  0  0  0  0  0  0  0  0  0
   -9.9893    5.8912    0.8042 H   0  0  0  0  0  0  0  0  0  0  0  0
   -8.0920    2.6133    1.4584 H   0  0  0  0  0  0  0  0  0  0  0  0
   -9.2353    4.2290   -0.8665 H   0  0  0  0  0  0  0  0  0  0  0  0
   -7.0593    2.0508   -1.1079 H   0  0  0  0  0  0  0  0  0  0  0  0
   -7.7146    3.1321   -2.3734 H   0  0  0  0  0  0  0  0  0  0  0  0
   -5.7982    2.5642    0.6691 H   0  0  0  0  0  0  0  0  0  0  0  0
   -5.1586    4.1464    1.1862 H   0  0  0  0  0  0  0  0  0  0  0  0
   -3.3354    5.1412   -0.6022 H   0  0  0  0  0  0  0  0  0  0  0  0
   -0.2848    2.2008   -1.3245 H   0  0  0  0  0  0  0  0  0  0  0  0
   -4.1293    1.0004    0.1930 H   0  0  0  0  0  0  0  0  0  0  0  0
   -0.9619   -0.1626   -1.4595 H   0  0  0  0  0  0  0  0  0  0  0  0
   -1.0936   -0.1409    0.3263 H   0  0  0  0  0  0  0  0  0  0  0  0
   -1.4003   -2.6790    0.3246 H   0  0  0  0  0  0  0  0  0  0  0  0
   -2.4200   -1.7791    1.5057 H   0  0  0  0  0  0  0  0  0  0  0  0
   -3.4830   -3.9982   -0.3315 H   0  0  0  0  0  0  0  0  0  0  0  0
   -4.7955   -2.2024    1.5871 H   0  0  0  0  0  0  0  0  0  0  0  0
   -5.3141   -5.1764   -0.4848 H   0  0  0  0  0  0  0  0  0  0  0  0
   -4.9217   -6.6622    1.4818 H   0  0  0  0  0  0  0  0  0  0  0  0
   -6.6933   -6.6226    1.8585 H   0  0  0  0  0  0  0  0  0  0  0  0
   -6.1060   -7.3526    0.3148 H   0  0  0  0  0  0  0  0  0  0  0  0
   -8.1126   -5.7685   -0.1066 H   0  0  0  0  0  0  0  0  0  0  0  0
   -9.2557   -2.8503   -2.0472 H   0  0  0  0  0  0  0  0  0  0  0  0
  -11.1288   -3.5313   -0.6273 H   0  0  0  0  0  0  0  0  0  0  0  0
  -10.0212   -4.4288    0.4746 H   0  0  0  0  0  0  0  0  0  0  0  0
  -10.2480   -4.9770   -1.2423 H   0  0  0  0  0  0  0  0  0  0  0  0
   -8.3940   -2.2506    0.8077 H   0  0  0  0  0  0  0  0  0  0  0  0
   -9.8101   -0.8281   -2.2805 H   0  0  0  0  0  0  0  0  0  0  0  0
  -11.9960    0.3783   -2.4174 H   0  0  0  0  0  0  0  0  0  0  0  0
  -12.1671    0.2357   -0.6263 H   0  0  0  0  0  0  0  0  0  0  0  0
  -12.0862   -1.2440   -1.6456 H   0  0  0  0  0  0  0  0  0  0  0  0
   -8.9436    1.2348   -2.3710 H   0  0  0  0  0  0  0  0  0  0  0  0
   -1.8659   -6.4889    1.8889 H   0  0  0  0  0  0  0  0  0  0  0  0
   -1.7159   -5.1029   -0.8303 H   0  0  0  0  0  0  0  0  0  0  0  0
   -2.7624   -7.3143   -0.9513 H   0  0  0  0  0  0  0  0  0  0  0  0
   -1.1149   -7.3487   -1.7019 H   0  0  0  0  0  0  0  0  0  0  0  0
   -1.3849   -8.0614   -0.0634 H   0  0  0  0  0  0  0  0  0  0  0  0
    0.5517   -7.3739    1.3024 H   0  0  0  0  0  0  0  0  0  0  0  0
    2.1846   -6.6174   -1.1337 H   0  0  0  0  0  0  0  0  0  0  0  0
    3.1746   -8.8811   -0.8669 H   0  0  0  0  0  0  0  0  0  0  0  0
    1.3760   -8.9244   -0.9874 H   0  0  0  0  0  0  0  0  0  0  0  0
    2.1748   -9.1474    0.6172 H   0  0  0  0  0  0  0  0  0  0  0  0
    3.8179   -4.8702   -0.4553 H   0  0  0  0  0  0  0  0  0  0  0  0
    6.0178   -5.1536   -0.9352 H   0  0  0  0  0  0  0  0  0  0  0  0
    5.2177   -7.2744   -1.8824 H   0  0  0  0  0  0  0  0  0  0  0  0
    6.9031   -7.4217   -1.2471 H   0  0  0  0  0  0  0  0  0  0  0  0
    5.5225   -8.1206   -0.3161 H   0  0  0  0  0  0  0  0  0  0  0  0
    8.0953   -5.0428    2.1547 H   0  0  0  0  0  0  0  0  0  0  0  0
    7.1231   -3.4084   -0.1074 H   0  0  0  0  0  0  0  0  0  0  0  0
    9.7727   -4.9896   -0.4557 H   0  0  0  0  0  0  0  0  0  0  0  0
    9.1123   -3.7469   -1.5845 H   0  0  0  0  0  0  0  0  0  0  0  0
    8.2647   -5.3077   -1.3719 H   0  0  0  0  0  0  0  0  0  0  0  0
    7.9699   -1.4391    2.3189 H   0  0  0  0  0  0  0  0  0  0  0  0
    7.7936    0.3764    0.8931 H   0  0  0  0  0  0  0  0  0  0  0  0
    6.9675   -1.0709   -0.9728 H   0  0  0  0  0  0  0  0  0  0  0  0
    8.0416    0.2519   -1.5533 H   0  0  0  0  0  0  0  0  0  0  0  0
    8.6826   -1.4221   -1.4436 H   0  0  0  0  0  0  0  0  0  0  0  0
   11.1641    1.6586    1.1122 H   0  0  0  0  0  0  0  0  0  0  0  0
    8.4368    2.2557   -0.0844 H   0  0  0  0  0  0  0  0  0  0  0  0
   10.2361    1.9688   -1.8327 H   0  0  0  0  0  0  0  0  0  0  0  0
   11.1868    3.2808   -1.0351 H   0  0  0  0  0  0  0  0  0  0  0  0
    9.5845    3.6423   -1.7865 H   0  0  0  0  0  0  0  0  0  0  0  0
    8.9560    5.8538    1.1835 H   0  0  0  0  0  0  0  0  0  0  0  0
    7.4202    4.0706   -0.7721 H   0  0  0  0  0  0  0  0  0  0  0  0
    8.6552    5.9656   -1.8310 H   0  0  0  0  0  0  0  0  0  0  0  0
    7.7718    7.1240   -0.7766 H   0  0  0  0  0  0  0  0  0  0  0  0
    6.8740    6.1093   -1.9826 H   0  0  0  0  0  0  0  0  0  0  0  0
    5.6379    7.0823    1.4002 H   0  0  0  0  0  0  0  0  0  0  0  0
    4.4552    5.7893   -1.0982 H   0  0  0  0  0  0  0  0  0  0  0  0
    4.3587    8.7211   -0.1737 H   0  0  0  0  0  0  0  0  0  0  0  0
    3.5067    8.0107   -1.6203 H   0  0  0  0  0  0  0  0  0  0  0  0
    5.2983    8.0467   -1.5487 H   0  0  0  0  0  0  0  0  0  0  0  0
    2.4046    7.2976    2.1981 H   0  0  0  0  0  0  0  0  0  0  0  0
    0.4633    8.1518    1.3169 H   0  0  0  0  0  0  0  0  0  0  0  0
    2.6142   11.1708    0.5987 H   0  0  0  0  0  0  0  0  0  0  0  0
    2.5195    9.9491    1.9107 H   0  0  0  0  0  0  0  0  0  0  0  0
    1.2685    6.8243   -1.3505 H   0  0  0  0  0  0  0  0  0  0  0  0
   -0.2740    7.7038   -1.0257 H   0  0  0  0  0  0  0  0  0  0  0  0
   -1.2818    5.6580   -1.9887 H   0  0  0  0  0  0  0  0  0  0  0  0
    0.1097    4.5177   -1.9455 H   0  0  0  0  0  0  0  0  0  0  0  0
  1  2  1  0
  2  3  2  0
  2  4  1  0
  4  5  1  0
  5  6  1  0
  6  7  1  0
  7  8  1  0
  8  9  1  0
  9 10  1  0
 10 11  2  0
 11 12  1  0
 12 13  2  0
 13 14  1  0
 13 15  1  0
 15 16  1  0
 16 17  1  0
 17 18  1  0
 18 19  1  0
 19 20  1  0
 20 21  2  0
 20 22  1  0
 22 23  1  0
 22 24  1  0
 24 25  1  0
 25 26  2  0
 25 27  1  0
 27 28  1  0
 27 29  1  0
 29 30  1  0
 30 31  2  0
 30 32  1  0
 32 33  1  0
 32 34  1  0
 34 35  1  0
 35 36  2  0
 18 37  1  0
 37 38  2  0
 37 39  1  0
 39 40  1  0
 40 41  1  0
 40 42  1  0
 42 43  2  0
 42 44  1  0
 44 45  1  0
 45 46  1  0
 45 47  1  0
 47 48  2  0
 47 49  1  0
 49 50  1  0
 50 51  1  0
 50 52  1  0
 52 53  2  0
 52 54  1  0
 54 55  1  0
 55 56  1  0
 55 57  1  0
 57 58  2  0
 57 59  1  0
 59 60  1  0
 60 61  1  0
 60 62  1  0
 62 63  2  0
 62 64  1  0
 64 65  1  0
 65 66  1  0
 65 67  1  0
 67 68  2  0
 67 69  1  0
 69 70  1  0
 70 71  1  0
 70 72  1  0
 72 73  2  0
 72 74  1  0
 74 75  1  0
 75 76  1  0
 75 77  1  0
 77 78  2  0
 77 79  1  0
 79 80  1  0
 80 81  1  0
 81 82  1  0
 81 83  2  0
 80 84  1  0
 84 85  1  0
 85 86  1  0
 35  5  1  0
 14  9  2  0
 86 11  1  0
  1 87  1  0
  1 88  1  0
  1 89  1  0
  4 90  1  0
  5 91  1  6
  6 92  1  0
  6 93  1  0
  8 94  1  0
  8 95  1  0
 10 96  1  0
 12 97  1  0
 14 98  1  0
 15 99  1  0
 15100  1  0
 17101  1  0
 17102  1  0
 18103  1  6
 19104  1  0
 22105  1  6
 23106  1  0
 23107  1  0
 23108  1  0
 24109  1  0
 27110  1  6
 28111  1  0
 28112  1  0
 28113  1  0
 29114  1  0
 32115  1  6
 33116  1  0
 33117  1  0
 33118  1  0
 34119  1  0
 39120  1  0
 40121  1  6
 41122  1  0
 41123  1  0
 41124  1  0
 44125  1  0
 45126  1  6
 46127  1  0
 46128  1  0
 46129  1  0
 49130  1  0
 50131  1  6
 51132  1  0
 51133  1  0
 51134  1  0
 54135  1  0
 55136  1  6
 56137  1  0
 56138  1  0
 56139  1  0
 59140  1  0
 60141  1  1
 61142  1  0
 61143  1  0
 61144  1  0
 64145  1  0
 65146  1  6
 66147  1  0
 66148  1  0
 66149  1  0
 69150  1  0
 70151  1  6
 71152  1  0
 71153  1  0
 71154  1  0
 74155  1  0
 75156  1  6
 76157  1  0
 76158  1  0
 76159  1  0
 79160  1  0
 80161  1  1
 82162  1  0
 82163  1  0
 84164  1  0
 84165  1  0
 86166  1  0
 86167  1  0
M  END
