
     RDKit          3D

167169  0  0  0  0  0  0  0  0999 V2000
   10.2436   -3.8779    1.7550 C   0  0  0  0  0  0  0  0  0  0  0  0
    9.5546   -2.5905    2.0977 C   0  0  0  0  0  0  0  0  0  0  0  0
   10.1248   -1.7747    2.8695 O   0  0  0  0  0  0  0  0  0  0  0  0
    8.2558   -2.2674    1.5763 N   0  0  0  0  0  0  0  0  0  0  0  0
    7.5970   -3.0375    0.5131 C   0  0  1  0  0  0  0  0  0  0  0  0
    6.0887   -2.7329    0.4648 C   0  0  0  0  0  0  0  0  0  0  0  0
    5.2310   -3.6420    1.7960 S   0  0  0  0  0  0  0  0  0  0  0  0
    3.6713   -2.6881    1.7711 C   0  0  0  0  0  0  0  0  0  0  0  0
    2.9752   -2.7441    0.4383 C   0  0  0  0  0  0  0  0  0  0  0  0
    2.6053   -3.9698   -0.1300 C   0  0  0  0  0  0  0  0  0  0  0  0
    1.8758   -4.0077   -1.3353 C   0  0  0  0  0  0  0  0  0  0  0  0
    1.5873   -2.8034   -2.0020 C   0  0  0  0  0  0  0  0  0  0  0  0
    1.9687   -1.5688   -1.4581 C   0  0  0  0  0  0  0  0  0  0  0  0
    2.6426   -1.5544   -0.2244 C   0  0  0  0  0  0  0  0  0  0  0  0
    1.7021   -0.2916   -2.2239 C   0  0  0  0  0  0  0  0  0  0  0  0
    0.4607    0.7707   -1.3994 S   0  0  0  0  0  0  0  0  0  0  0  0
    1.6027    1.9042   -0.5209 C   0  0  0  0  0  0  0  0  0  0  0  0
    1.9171    3.1823   -1.3321 C   0  0  2  0  0  0  0  0  0  0  0  0
    2.9277    2.9422   -2.3713 N   0  0  0  0  0  0  0  0  0  0  0  0
    4.3596    2.9350   -2.2028 C   0  0  0  0  0  0  0  0  0  0  0  0
    5.0718    3.2289   -3.1991 O   0  0  0  0  0  0  0  0  0  0  0  0
    5.0361    2.4607   -0.9318 C   0  0  1  0  0  0  0  0  0  0  0  0
    5.3550    0.9679   -1.0201 C   0  0  0  0  0  0  0  0  0  0  0  0
    6.2565    3.2288   -0.6302 N   0  0  0  0  0  0  0  0  0  0  0  0
    7.5340    2.9538   -1.2298 C   0  0  0  0  0  0  0  0  0  0  0  0
    7.6384    2.9421   -2.4836 O   0  0  0  0  0  0  0  0  0  0  0  0
    8.7808    2.8242   -0.3896 C   0  0  1  0  0  0  0  0  0  0  0  0
    8.5133    2.3064    1.0328 C   0  0  0  0  0  0  0  0  0  0  0  0
    9.8012    2.0059   -1.0687 N   0  0  0  0  0  0  0  0  0  0  0  0
    9.9622    0.5833   -0.9169 C   0  0  0  0  0  0  0  0  0  0  0  0
   11.0756    0.1438   -0.5110 O   0  0  0  0  0  0  0  0  0  0  0  0
    8.8782   -0.3901   -1.3263 C   0  0  1  0  0  0  0  0  0  0  0  0
    8.6299   -0.3109   -2.8365 C   0  0  0  0  0  0  0  0  0  0  0  0
    9.2503   -1.7665   -0.9855 N   0  0  0  0  0  0  0  0  0  0  0  0
    8.2448   -2.7748   -0.8233 C   0  0  0  0  0  0  0  0  0  0  0  0
    7.9499   -3.5095   -1.8033 O   0  0  0  0  0  0  0  0  0  0  0  0
    2.2839    4.3807   -0.4882 C   0  0  0  0  0  0  0  0  0  0  0  0
    2.6658    5.4417   -1.0523 O   0  0  0  0  0  0  0  0  0  0  0  0
    2.0864    4.3749    0.9290 N   0  0  0  0  0  0  0  0  0  0  0  0
    1.0992    5.2453    1.5709 C   0  0  2  0  0  0  0  0  0  0  0  0
    0.9543    4.8773    3.0520 C   0  0  0  0  0  0  0  0  0  0  0  0
   -0.2356    5.1122    0.8852 C   0  0  0  0  0  0  0  0  0  0  0  0
   -0.7749    3.9753    0.7658 O   0  0  0  0  0  0  0  0  0  0  0  0
   -0.8551    6.2492    0.2690 N   0  0  0  0  0  0  0  0  0  0  0  0
   -1.8566    7.0847    0.9328 C   0  0  2  0  0  0  0  0  0  0  0  0
   -1.1796    8.0551    1.9087 C   0  0  0  0  0  0  0  0  0  0  0  0
   -2.9276    6.2388    1.5911 C   0  0  0  0  0  0  0  0  0  0  0  0
   -3.2538    6.4280    2.7912 O   0  0  0  0  0  0  0  0  0  0  0  0
   -3.5688    5.1933    0.8465 N   0  0  0  0  0  0  0  0  0  0  0  0
   -4.7907    5.3718    0.0460 C   0  0  2  0  0  0  0  0  0  0  0  0
   -4.9601    6.8074   -0.4729 C   0  0  0  0  0  0  0  0  0  0  0  0
   -5.9913    4.9371    0.8465 C   0  0  0  0  0  0  0  0  0  0  0  0
   -6.3380    5.5959    1.8636 O   0  0  0  0  0  0  0  0  0  0  0  0
   -6.6609    3.6984    0.5587 N   0  0  0  0  0  0  0  0  0  0  0  0
   -7.5451    3.4465   -0.5907 C   0  0  2  0  0  0  0  0  0  0  0  0
   -7.5697    4.6063   -1.6024 C   0  0  0  0  0  0  0  0  0  0  0  0
   -8.9494    3.2000   -0.0862 C   0  0  0  0  0  0  0  0  0  0  0  0
   -9.4917    4.0973    0.6153 O   0  0  0  0  0  0  0  0  0  0  0  0
   -9.6888    1.9904   -0.3470 N   0  0  0  0  0  0  0  0  0  0  0  0
   -9.3122    0.9163   -1.2876 C   0  0  2  0  0  0  0  0  0  0  0  0
   -9.3480    1.4306   -2.7358 C   0  0  0  0  0  0  0  0  0  0  0  0
  -10.2784   -0.2422   -1.1247 C   0  0  0  0  0  0  0  0  0  0  0  0
  -11.3733   -0.1955   -1.7503 O   0  0  0  0  0  0  0  0  0  0  0  0
  -10.0556   -1.3601   -0.2428 N   0  0  0  0  0  0  0  0  0  0  0  0
   -8.8952   -1.6599    0.6117 C   0  0  2  0  0  0  0  0  0  0  0  0
   -8.5384   -0.5288    1.5821 C   0  0  0  0  0  0  0  0  0  0  0  0
   -7.7269   -2.1637   -0.1941 C   0  0  0  0  0  0  0  0  0  0  0  0
   -6.8500   -1.3718   -0.6384 O   0  0  0  0  0  0  0  0  0  0  0  0
   -7.5884   -3.5724   -0.4146 N   0  0  0  0  0  0  0  0  0  0  0  0
   -6.4961   -4.3732    0.1539 C   0  0  2  0  0  0  0  0  0  0  0  0
   -6.1839   -3.9094    1.5807 C   0  0  0  0  0  0  0  0  0  0  0  0
   -5.2637   -4.3243   -0.7269 C   0  0  0  0  0  0  0  0  0  0  0  0
   -5.2916   -3.6536   -1.7931 O   0  0  0  0  0  0  0  0  0  0  0  0
   -4.0128   -4.9214   -0.3317 N   0  0  0  0  0  0  0  0  0  0  0  0
   -3.7514   -6.3411   -0.0297 C   0  0  2  0  0  0  0  0  0  0  0  0
   -4.9044   -7.2914   -0.3920 C   0  0  0  0  0  0  0  0  0  0  0  0
   -3.3190   -6.4871    1.4098 C   0  0  0  0  0  0  0  0  0  0  0  0
   -4.1748   -6.7111    2.3059 O   0  0  0  0  0  0  0  0  0  0  0  0
   -1.9594   -6.2570    1.7996 N   0  0  0  0  0  0  0  0  0  0  0  0
   -0.8150   -6.8614    1.1093 C   0  0  2  0  0  0  0  0  0  0  0  0
    0.2246   -7.2882    2.1232 C   0  0  0  0  0  0  0  0  0  0  0  0
    0.8916   -6.3257    2.9483 N   0  0  0  0  0  0  0  0  0  0  0  0
    0.5178   -8.5082    2.2380 O   0  0  0  0  0  0  0  0  0  0  0  0
   -0.2156   -5.8815    0.0907 C   0  0  0  0  0  0  0  0  0  0  0  0
    1.1688   -6.6817   -0.8077 S   0  0  0  0  0  0  0  0  0  0  0  0
    1.4728   -5.3108   -1.9843 C   0  0  0  0  0  0  0  0  0  0  0  0
    9.6360   -4.7335    2.1133 H   0  0  0  0  0  0  0  0  0  0  0  0
   11.2401   -3.9266    2.2453 H   0  0  0  0  0  0  0  0  0  0  0  0
   10.3908   -3.9542    0.6567 H   0  0  0  0  0  0  0  0  0  0  0  0
    7.7874   -1.4120    1.9580 H   0  0  0  0  0  0  0  0  0  0  0  0
    7.7142   -4.1231    0.7299 H   0  0  0  0  0  0  0  0  0  0  0  0
    5.6581   -3.0638   -0.5050 H   0  0  0  0  0  0  0  0  0  0  0  0
    5.9113   -1.6399    0.5580 H   0  0  0  0  0  0  0  0  0  0  0  0
    2.9932   -3.1135    2.5387 H   0  0  0  0  0  0  0  0  0  0  0  0
    3.8953   -1.6400    2.0771 H   0  0  0  0  0  0  0  0  0  0  0  0
    2.8686   -4.8813    0.3834 H   0  0  0  0  0  0  0  0  0  0  0  0
    1.0935   -2.8399   -2.9624 H   0  0  0  0  0  0  0  0  0  0  0  0
    2.9273   -0.6265    0.2345 H   0  0  0  0  0  0  0  0  0  0  0  0
    2.6437    0.2545   -2.4164 H   0  0  0  0  0  0  0  0  0  0  0  0
    1.2920   -0.5326   -3.2297 H   0  0  0  0  0  0  0  0  0  0  0  0
    2.5323    1.3952   -0.2265 H   0  0  0  0  0  0  0  0  0  0  0  0
    1.0786    2.1645    0.4204 H   0  0  0  0  0  0  0  0  0  0  0  0
    0.9730    3.4746   -1.8400 H   0  0  0  0  0  0  0  0  0  0  0  0
    2.5779    2.9141   -3.3547 H   0  0  0  0  0  0  0  0  0  0  0  0
    4.3449    2.6104   -0.0774 H   0  0  0  0  0  0  0  0  0  0  0  0
    5.8302    0.6300   -0.0790 H   0  0  0  0  0  0  0  0  0  0  0  0
    6.0271    0.7535   -1.8820 H   0  0  0  0  0  0  0  0  0  0  0  0
    4.4370    0.3793   -1.1695 H   0  0  0  0  0  0  0  0  0  0  0  0
    6.2383    3.8303    0.2199 H   0  0  0  0  0  0  0  0  0  0  0  0
    9.1976    3.8489   -0.2821 H   0  0  0  0  0  0  0  0  0  0  0  0
    9.4730    2.0897    1.5457 H   0  0  0  0  0  0  0  0  0  0  0  0
    7.9036    1.3817    1.0188 H   0  0  0  0  0  0  0  0  0  0  0  0
    7.9812    3.0766    1.6276 H   0  0  0  0  0  0  0  0  0  0  0  0
   10.6291    2.5169   -1.4512 H   0  0  0  0  0  0  0  0  0  0  0  0
    7.9445   -0.1255   -0.7896 H   0  0  0  0  0  0  0  0  0  0  0  0
    7.8471   -1.0386   -3.1333 H   0  0  0  0  0  0  0  0  0  0  0  0
    9.5703   -0.5370   -3.3953 H   0  0  0  0  0  0  0  0  0  0  0  0
    8.2912    0.6968   -3.1327 H   0  0  0  0  0  0  0  0  0  0  0  0
   10.1807   -2.1096   -1.3118 H   0  0  0  0  0  0  0  0  0  0  0  0
    2.8097    3.8912    1.5170 H   0  0  0  0  0  0  0  0  0  0  0  0
    1.4381    6.2983    1.4951 H   0  0  0  0  0  0  0  0  0  0  0  0
    0.1002    5.4204    3.5046 H   0  0  0  0  0  0  0  0  0  0  0  0
    0.7833    3.7837    3.1609 H   0  0  0  0  0  0  0  0  0  0  0  0
    1.8839    5.1462    3.5961 H   0  0  0  0  0  0  0  0  0  0  0  0
   -0.6755    6.3978   -0.7491 H   0  0  0  0  0  0  0  0  0  0  0  0
   -2.3471    7.7108    0.1586 H   0  0  0  0  0  0  0  0  0  0  0  0
   -0.4414    8.6784    1.3635 H   0  0  0  0  0  0  0  0  0  0  0  0
   -0.6545    7.5011    2.7135 H   0  0  0  0  0  0  0  0  0  0  0  0
   -1.9325    8.7268    2.3672 H   0  0  0  0  0  0  0  0  0  0  0  0
   -3.3729    4.2163    1.1557 H   0  0  0  0  0  0  0  0  0  0  0  0
   -4.6995    4.7032   -0.8315 H   0  0  0  0  0  0  0  0  0  0  0  0
   -4.9793    7.5360    0.3636 H   0  0  0  0  0  0  0  0  0  0  0  0
   -5.9075    6.9111   -1.0366 H   0  0  0  0  0  0  0  0  0  0  0  0
   -4.1304    7.0552   -1.1648 H   0  0  0  0  0  0  0  0  0  0  0  0
   -6.6756    2.9909    1.3293 H   0  0  0  0  0  0  0  0  0  0  0  0
   -7.1549    2.5514   -1.1121 H   0  0  0  0  0  0  0  0  0  0  0  0
   -6.5884    4.7048   -2.1034 H   0  0  0  0  0  0  0  0  0  0  0  0
   -8.3261    4.4087   -2.3925 H   0  0  0  0  0  0  0  0  0  0  0  0
   -7.8448    5.5576   -1.1022 H   0  0  0  0  0  0  0  0  0  0  0  0
  -10.5593    1.8648    0.2142 H   0  0  0  0  0  0  0  0  0  0  0  0
   -8.2854    0.5735   -1.0836 H   0  0  0  0  0  0  0  0  0  0  0  0
  -10.3115    1.9455   -2.9437 H   0  0  0  0  0  0  0  0  0  0  0  0
   -9.2339    0.5863   -3.4477 H   0  0  0  0  0  0  0  0  0  0  0  0
   -8.5221    2.1372   -2.9325 H   0  0  0  0  0  0  0  0  0  0  0  0
  -10.8423   -2.0435   -0.1827 H   0  0  0  0  0  0  0  0  0  0  0  0
   -9.1968   -2.5105    1.2631 H   0  0  0  0  0  0  0  0  0  0  0  0
   -8.0392    0.3221    1.0863 H   0  0  0  0  0  0  0  0  0  0  0  0
   -7.8411   -0.9140    2.3552 H   0  0  0  0  0  0  0  0  0  0  0  0
   -9.4576   -0.1630    2.0897 H   0  0  0  0  0  0  0  0  0  0  0  0
   -8.3645   -4.0702   -0.9224 H   0  0  0  0  0  0  0  0  0  0  0  0
   -6.8505   -5.4169    0.2056 H   0  0  0  0  0  0  0  0  0  0  0  0
   -7.1162   -3.8954    2.1902 H   0  0  0  0  0  0  0  0  0  0  0  0
   -5.7388   -2.8912    1.5810 H   0  0  0  0  0  0  0  0  0  0  0  0
   -5.4710   -4.6016    2.0712 H   0  0  0  0  0  0  0  0  0  0  0  0
   -3.1610   -4.3352   -0.4911 H   0  0  0  0  0  0  0  0  0  0  0  0
   -2.9170   -6.6688   -0.6841 H   0  0  0  0  0  0  0  0  0  0  0  0
   -5.3108   -7.0476   -1.3981 H   0  0  0  0  0  0  0  0  0  0  0  0
   -5.7178   -7.2587    0.3596 H   0  0  0  0  0  0  0  0  0  0  0  0
   -4.5265   -8.3346   -0.4197 H   0  0  0  0  0  0  0  0  0  0  0  0
   -1.8005   -5.7463    2.7028 H   0  0  0  0  0  0  0  0  0  0  0  0
   -1.1602   -7.7682    0.5644 H   0  0  0  0  0  0  0  0  0  0  0  0
    0.6245   -5.3185    2.9218 H   0  0  0  0  0  0  0  0  0  0  0  0
    1.6536   -6.6251    3.5962 H   0  0  0  0  0  0  0  0  0  0  0  0
    0.1370   -4.9676    0.6037 H   0  0  0  0  0  0  0  0  0  0  0  0
   -0.9828   -5.5779   -0.6489 H   0  0  0  0  0  0  0  0  0  0  0  0
    0.5601   -5.1719   -2.5999 H   0  0  0  0  0  0  0  0  0  0  0  0
    2.2946   -5.6222   -2.6636 H   0  0  0  0  0  0  0  0  0  0  0  0
  1  2  1  0
  2  3  2  0
  2  4  1  0
  4  5  1  0
  5  6  1  0
  6  7  1  0
  7  8  1  0
  8  9  1  0
  9 10  1  0
 10 11  2  0
 11 12  1  0
 12 13  2  0
 13 14  1  0
 13 15  1  0
 15 16  1  0
 16 17  1  0
 17 18  1  0
 18 19  1  0
 19 20  1  0
 20 21  2  0
 20 22  1  0
 22 23  1  0
 22 24  1  0
 24 25  1  0
 25 26  2  0
 25 27  1  0
 27 28  1  0
 27 29  1  0
 29 30  1  0
 30 31  2  0
 30 32  1  0
 32 33  1  0
 32 34  1  0
 34 35  1  0
 35 36  2  0
 18 37  1  0
 37 38  2  0
 37 39  1  0
 39 40  1  0
 40 41  1  0
 40 42  1  0
 42 43  2  0
 42 44  1  0
 44 45  1  0
 45 46  1  0
 45 47  1  0
 47 48  2  0
 47 49  1  0
 49 50  1  0
 50 51  1  0
 50 52  1  0
 52 53  2  0
 52 54  1  0
 54 55  1  0
 55 56  1  0
 55 57  1  0
 57 58  2  0
 57 59  1  0
 59 60  1  0
 60 61  1  0
 60 62  1  0
 62 63  2  0
 62 64  1  0
 64 65  1  0
 65 66  1  0
 65 67  1  0
 67 68  2  0
 67 69  1  0
 69 70  1  0
 70 71  1  0
 70 72  1  0
 72 73  2  0
 72 74  1  0
 74 75  1  0
 75 76  1  0
 75 77  1  0
 77 78  2  0
 77 79  1  0
 79 80  1  0
 80 81  1  0
 81 82  1  0
 81 83  2  0
 80 84  1  0
 84 85  1  0
 85 86  1  0
 35  5  1  0
 14  9  2  0
 86 11  1  0
  1 87  1  0
  1 88  1  0
  1 89  1  0
  4 90  1  0
  5 91  1  1
  6 92  1  0
  6 93  1  0
  8 94  1  0
  8 95  1  0
 10 96  1  0
 12 97  1  0
 14 98  1  0
 15 99  1  0
 15100  1  0
 17101  1  0
 17102  1  0
 18103  1  6
 19104  1  0
 22105  1  1
 23106  1  0
 23107  1  0
 23108  1  0
 24109  1  0
 27110  1  1
 28111  1  0
 28112  1  0
 28113  1  0
 29114  1  0
 32115  1  1
 33116  1  0
 33117  1  0
 33118  1  0
 34119  1  0
 39120  1  0
 40121  1  1
 41122  1  0
 41123  1  0
 41124  1  0
 44125  1  0
 45126  1  6
 46127  1  0
 46128  1  0
 46129  1  0
 49130  1  0
 50131  1  6
 51132  1  0
 51133  1  0
 51134  1  0
 54135  1  0
 55136  1  6
 56137  1  0
 56138  1  0
 56139  1  0
 59140  1  0
 60141  1  1
 61142  1  0
 61143  1  0
 61144  1  0
 64145  1  0
 65146  1  1
 66147  1  0
 66148  1  0
 66149  1  0
 69150  1  0
 70151  1  1
 71152  1  0
 71153  1  0
 71154  1  0
 74155  1  0
 75156  1  6
 76157  1  0
 76158  1  0
 76159  1  0
 79160  1  0
 80161  1  6
 82162  1  0
 82163  1  0
 84164  1  0
 84165  1  0
 86166  1  0
 86167  1  0
M  END
