
     RDKit          3D

167169  0  0  0  0  0  0  0  0999 V2000
  -10.7125    4.7191    0.2217 C   0  0  0  0  0  0  0  0  0  0  0  0
   -9.9849    3.6417   -0.5233 C   0  0  0  0  0  0  0  0  0  0  0  0
  -10.2317    3.4795   -1.7460 O   0  0  0  0  0  0  0  0  0  0  0  0
   -9.0135    2.8246    0.1480 N   0  0  0  0  0  0  0  0  0  0  0  0
   -8.1301    1.8600   -0.5175 C   0  0  2  0  0  0  0  0  0  0  0  0
   -7.2425    2.5199   -1.5922 C   0  0  0  0  0  0  0  0  0  0  0  0
   -6.4114    4.0129   -0.9370 S   0  0  0  0  0  0  0  0  0  0  0  0
   -5.1378    4.1110   -2.2512 C   0  0  0  0  0  0  0  0  0  0  0  0
   -3.8374    3.5638   -1.7370 C   0  0  0  0  0  0  0  0  0  0  0  0
   -2.9334    4.4115   -1.0831 C   0  0  0  0  0  0  0  0  0  0  0  0
   -1.7249    3.9083   -0.5787 C   0  0  0  0  0  0  0  0  0  0  0  0
   -1.4534    2.5313   -0.6696 C   0  0  0  0  0  0  0  0  0  0  0  0
   -2.3804    1.6642   -1.2801 C   0  0  0  0  0  0  0  0  0  0  0  0
   -3.5416    2.2022   -1.8587 C   0  0  0  0  0  0  0  0  0  0  0  0
   -2.0998    0.1877   -1.3643 C   0  0  0  0  0  0  0  0  0  0  0  0
   -3.6034   -0.8020   -1.0081 S   0  0  0  0  0  0  0  0  0  0  0  0
   -3.2087   -1.2583    0.7200 C   0  0  0  0  0  0  0  0  0  0  0  0
   -2.5211   -2.6347    0.7762 C   0  0  2  0  0  0  0  0  0  0  0  0
   -3.3565   -3.6389    0.1051 N   0  0  0  0  0  0  0  0  0  0  0  0
   -4.6384   -4.0560    0.6016 C   0  0  0  0  0  0  0  0  0  0  0  0
   -4.7576   -4.3880    1.8176 O   0  0  0  0  0  0  0  0  0  0  0  0
   -5.8752   -4.0817   -0.2810 C   0  0  1  0  0  0  0  0  0  0  0  0
   -5.5507   -4.3606   -1.7502 C   0  0  0  0  0  0  0  0  0  0  0  0
   -6.8188   -5.0949    0.2031 N   0  0  0  0  0  0  0  0  0  0  0  0
   -8.0912   -4.8285    0.8179 C   0  0  0  0  0  0  0  0  0  0  0  0
   -8.5223   -5.6399    1.6867 O   0  0  0  0  0  0  0  0  0  0  0  0
   -9.0056   -3.7118    0.3551 C   0  0  1  0  0  0  0  0  0  0  0  0
  -10.0741   -4.2918   -0.5797 C   0  0  0  0  0  0  0  0  0  0  0  0
   -9.6657   -3.0946    1.5133 N   0  0  0  0  0  0  0  0  0  0  0  0
   -9.7535   -1.6806    1.7953 C   0  0  0  0  0  0  0  0  0  0  0  0
  -10.6065   -1.2891    2.6406 O   0  0  0  0  0  0  0  0  0  0  0  0
   -8.8756   -0.6405    1.1390 C   0  0  1  0  0  0  0  0  0  0  0  0
   -7.3763   -0.9599    1.3193 C   0  0  0  0  0  0  0  0  0  0  0  0
   -9.2307   -0.4690   -0.2792 N   0  0  0  0  0  0  0  0  0  0  0  0
   -8.9298    0.6988   -1.0655 C   0  0  0  0  0  0  0  0  0  0  0  0
   -9.3937    0.7699   -2.2387 O   0  0  0  0  0  0  0  0  0  0  0  0
   -2.1972   -3.0597    2.1974 C   0  0  0  0  0  0  0  0  0  0  0  0
   -2.6442   -2.3842    3.1635 O   0  0  0  0  0  0  0  0  0  0  0  0
   -1.4425   -4.2537    2.4969 N   0  0  0  0  0  0  0  0  0  0  0  0
   -0.8235   -5.1446    1.5068 C   0  0  2  0  0  0  0  0  0  0  0  0
   -1.6636   -6.4206    1.4072 C   0  0  0  0  0  0  0  0  0  0  0  0
    0.5940   -5.4824    1.9179 C   0  0  0  0  0  0  0  0  0  0  0  0
    1.0912   -4.9656    2.9572 O   0  0  0  0  0  0  0  0  0  0  0  0
    1.3722   -6.4435    1.1932 N   0  0  0  0  0  0  0  0  0  0  0  0
    1.8913   -6.1945   -0.1560 C   0  0  2  0  0  0  0  0  0  0  0  0
    0.8623   -6.5795   -1.2242 C   0  0  0  0  0  0  0  0  0  0  0  0
    3.1540   -7.0139   -0.3695 C   0  0  0  0  0  0  0  0  0  0  0  0
    3.0622   -8.2699   -0.3312 O   0  0  0  0  0  0  0  0  0  0  0  0
    4.4503   -6.4302   -0.5890 N   0  0  0  0  0  0  0  0  0  0  0  0
    4.7252   -5.0026   -0.8084 C   0  0  2  0  0  0  0  0  0  0  0  0
    4.2355   -4.5768   -2.2023 C   0  0  0  0  0  0  0  0  0  0  0  0
    6.2068   -4.7401   -0.6926 C   0  0  0  0  0  0  0  0  0  0  0  0
    7.0079   -5.2947   -1.4929 O   0  0  0  0  0  0  0  0  0  0  0  0
    6.7300   -3.9425    0.3705 N   0  0  0  0  0  0  0  0  0  0  0  0
    6.8421   -2.4823    0.3183 C   0  0  2  0  0  0  0  0  0  0  0  0
    5.4849   -1.8248    0.5688 C   0  0  0  0  0  0  0  0  0  0  0  0
    7.4359   -2.0206   -1.0027 C   0  0  0  0  0  0  0  0  0  0  0  0
    6.7154   -2.0933   -2.0389 O   0  0  0  0  0  0  0  0  0  0  0  0
    8.7724   -1.5043   -1.1470 N   0  0  0  0  0  0  0  0  0  0  0  0
    9.8817   -1.5864   -0.1856 C   0  0  2  0  0  0  0  0  0  0  0  0
   10.2647   -3.0555    0.0515 C   0  0  0  0  0  0  0  0  0  0  0  0
    9.6160   -0.8158    1.1009 C   0  0  0  0  0  0  0  0  0  0  0  0
    9.7568   -1.4121    2.2069 O   0  0  0  0  0  0  0  0  0  0  0  0
    9.2315    0.5781    1.1296 N   0  0  0  0  0  0  0  0  0  0  0  0
    8.9495    1.4240   -0.0392 C   0  0  2  0  0  0  0  0  0  0  0  0
   10.2514    1.8857   -0.6986 C   0  0  0  0  0  0  0  0  0  0  0  0
    8.0927    2.6021    0.3652 C   0  0  0  0  0  0  0  0  0  0  0  0
    6.8442    2.5465    0.1712 O   0  0  0  0  0  0  0  0  0  0  0  0
    8.6681    3.7581    1.0024 N   0  0  0  0  0  0  0  0  0  0  0  0
    8.1227    5.0993    0.7580 C   0  0  2  0  0  0  0  0  0  0  0  0
    9.1082    6.1781    1.2238 C   0  0  0  0  0  0  0  0  0  0  0  0
    6.7807    5.2920    1.4234 C   0  0  0  0  0  0  0  0  0  0  0  0
    6.4902    4.6475    2.4711 O   0  0  0  0  0  0  0  0  0  0  0  0
    5.8623    6.2505    0.8829 N   0  0  0  0  0  0  0  0  0  0  0  0
    4.4055    6.0624    0.7696 C   0  0  2  0  0  0  0  0  0  0  0  0
    4.0340    4.5856    0.5572 C   0  0  0  0  0  0  0  0  0  0  0  0
    3.8871    6.8636   -0.4093 C   0  0  0  0  0  0  0  0  0  0  0  0
    4.6327    7.0169   -1.4188 O   0  0  0  0  0  0  0  0  0  0  0  0
    2.5597    7.4123   -0.4589 N   0  0  0  0  0  0  0  0  0  0  0  0
    1.5578    7.2863    0.6061 C   0  0  1  0  0  0  0  0  0  0  0  0
    1.8071    8.3214    1.6679 C   0  0  0  0  0  0  0  0  0  0  0  0
    1.9676    9.7004    1.3290 N   0  0  0  0  0  0  0  0  0  0  0  0
    1.8432    7.9697    2.8779 O   0  0  0  0  0  0  0  0  0  0  0  0
    0.1450    7.4590    0.0261 C   0  0  0  0  0  0  0  0  0  0  0  0
   -0.2422    6.1251   -1.1739 S   0  0  0  0  0  0  0  0  0  0  0  0
   -0.7378    4.8515    0.0524 C   0  0  0  0  0  0  0  0  0  0  0  0
  -10.4335    4.7138    1.2972 H   0  0  0  0  0  0  0  0  0  0  0  0
  -10.4675    5.7110   -0.2112 H   0  0  0  0  0  0  0  0  0  0  0  0
  -11.8103    4.5455    0.1486 H   0  0  0  0  0  0  0  0  0  0  0  0
   -8.8679    2.9784    1.1714 H   0  0  0  0  0  0  0  0  0  0  0  0
   -7.4261    1.4717    0.2482 H   0  0  0  0  0  0  0  0  0  0  0  0
   -7.8337    2.8056   -2.4846 H   0  0  0  0  0  0  0  0  0  0  0  0
   -6.4823    1.7756   -1.9110 H   0  0  0  0  0  0  0  0  0  0  0  0
   -5.0177    5.1811   -2.5306 H   0  0  0  0  0  0  0  0  0  0  0  0
   -5.4548    3.5868   -3.1791 H   0  0  0  0  0  0  0  0  0  0  0  0
   -3.1567    5.4714   -0.9883 H   0  0  0  0  0  0  0  0  0  0  0  0
   -0.5380    2.1350   -0.2575 H   0  0  0  0  0  0  0  0  0  0  0  0
   -4.2273    1.5546   -2.3906 H   0  0  0  0  0  0  0  0  0  0  0  0
   -1.7705   -0.0502   -2.3966 H   0  0  0  0  0  0  0  0  0  0  0  0
   -1.2678   -0.1044   -0.6829 H   0  0  0  0  0  0  0  0  0  0  0  0
   -2.5726   -0.4803    1.1957 H   0  0  0  0  0  0  0  0  0  0  0  0
   -4.1651   -1.2918    1.2802 H   0  0  0  0  0  0  0  0  0  0  0  0
   -1.5613   -2.5369    0.2298 H   0  0  0  0  0  0  0  0  0  0  0  0
   -3.0728   -3.9265   -0.8547 H   0  0  0  0  0  0  0  0  0  0  0  0
   -6.3099   -3.0685   -0.2291 H   0  0  0  0  0  0  0  0  0  0  0  0
   -4.9533   -5.2918   -1.8470 H   0  0  0  0  0  0  0  0  0  0  0  0
   -6.4917   -4.4748   -2.3318 H   0  0  0  0  0  0  0  0  0  0  0  0
   -4.9862   -3.5067   -2.1879 H   0  0  0  0  0  0  0  0  0  0  0  0
   -6.4635   -6.0771    0.2568 H   0  0  0  0  0  0  0  0  0  0  0  0
   -8.4502   -2.9629   -0.2262 H   0  0  0  0  0  0  0  0  0  0  0  0
  -10.7641   -3.4882   -0.9165 H   0  0  0  0  0  0  0  0  0  0  0  0
  -10.6697   -5.0777   -0.0665 H   0  0  0  0  0  0  0  0  0  0  0  0
   -9.5941   -4.7394   -1.4777 H   0  0  0  0  0  0  0  0  0  0  0  0
  -10.2304   -3.7192    2.1311 H   0  0  0  0  0  0  0  0  0  0  0  0
   -9.0770    0.3236    1.6563 H   0  0  0  0  0  0  0  0  0  0  0  0
   -6.9356   -0.2811    2.0843 H   0  0  0  0  0  0  0  0  0  0  0  0
   -7.2034   -1.9982    1.6756 H   0  0  0  0  0  0  0  0  0  0  0  0
   -6.8032   -0.8039    0.3820 H   0  0  0  0  0  0  0  0  0  0  0  0
   -9.8513   -1.1800   -0.7272 H   0  0  0  0  0  0  0  0  0  0  0  0
   -1.4216   -4.5587    3.4981 H   0  0  0  0  0  0  0  0  0  0  0  0
   -0.7800   -4.6469    0.5134 H   0  0  0  0  0  0  0  0  0  0  0  0
   -1.2455   -7.1120    0.6465 H   0  0  0  0  0  0  0  0  0  0  0  0
   -2.7045   -6.1727    1.1147 H   0  0  0  0  0  0  0  0  0  0  0  0
   -1.6807   -6.9482    2.3865 H   0  0  0  0  0  0  0  0  0  0  0  0
    1.8436   -7.1651    1.7859 H   0  0  0  0  0  0  0  0  0  0  0  0
    2.1061   -5.1125   -0.2577 H   0  0  0  0  0  0  0  0  0  0  0  0
   -0.0054   -5.8966   -1.1984 H   0  0  0  0  0  0  0  0  0  0  0  0
    1.3136   -6.5078   -2.2364 H   0  0  0  0  0  0  0  0  0  0  0  0
    0.5100   -7.6200   -1.0680 H   0  0  0  0  0  0  0  0  0  0  0  0
    5.2568   -7.0990   -0.6121 H   0  0  0  0  0  0  0  0  0  0  0  0
    4.2050   -4.3989   -0.0335 H   0  0  0  0  0  0  0  0  0  0  0  0
    3.1375   -4.7046   -2.2982 H   0  0  0  0  0  0  0  0  0  0  0  0
    4.4669   -3.5040   -2.3781 H   0  0  0  0  0  0  0  0  0  0  0  0
    4.7307   -5.1847   -2.9883 H   0  0  0  0  0  0  0  0  0  0  0  0
    7.2307   -4.4422    1.1376 H   0  0  0  0  0  0  0  0  0  0  0  0
    7.4905   -2.1693    1.1533 H   0  0  0  0  0  0  0  0  0  0  0  0
    4.7672   -2.0498   -0.2536 H   0  0  0  0  0  0  0  0  0  0  0  0
    5.0541   -2.2008    1.5238 H   0  0  0  0  0  0  0  0  0  0  0  0
    5.6044   -0.7214    0.6466 H   0  0  0  0  0  0  0  0  0  0  0  0
    9.0152   -1.1041   -2.0784 H   0  0  0  0  0  0  0  0  0  0  0  0
   10.7739   -1.1196   -0.6543 H   0  0  0  0  0  0  0  0  0  0  0  0
   10.4184   -3.5714   -0.9232 H   0  0  0  0  0  0  0  0  0  0  0  0
    9.4702   -3.5938    0.6078 H   0  0  0  0  0  0  0  0  0  0  0  0
   11.2092   -3.1174    0.6320 H   0  0  0  0  0  0  0  0  0  0  0  0
    9.0276    0.9741    2.0731 H   0  0  0  0  0  0  0  0  0  0  0  0
    8.3596    0.8528   -0.7811 H   0  0  0  0  0  0  0  0  0  0  0  0
   10.9721    2.2508    0.0621 H   0  0  0  0  0  0  0  0  0  0  0  0
   10.7248    1.0531   -1.2626 H   0  0  0  0  0  0  0  0  0  0  0  0
   10.0490    2.6983   -1.4262 H   0  0  0  0  0  0  0  0  0  0  0  0
    9.6157    3.6526    1.4224 H   0  0  0  0  0  0  0  0  0  0  0  0
    7.9801    5.2308   -0.3393 H   0  0  0  0  0  0  0  0  0  0  0  0
    8.7361    7.1878    0.9427 H   0  0  0  0  0  0  0  0  0  0  0  0
    9.2496    6.1346    2.3271 H   0  0  0  0  0  0  0  0  0  0  0  0
   10.0917    6.0345    0.7288 H   0  0  0  0  0  0  0  0  0  0  0  0
    6.2819    7.1296    0.4929 H   0  0  0  0  0  0  0  0  0  0  0  0
    3.9402    6.4175    1.7092 H   0  0  0  0  0  0  0  0  0  0  0  0
    4.2517    3.9898    1.4692 H   0  0  0  0  0  0  0  0  0  0  0  0
    4.5903    4.1616   -0.3038 H   0  0  0  0  0  0  0  0  0  0  0  0
    2.9489    4.4824    0.3542 H   0  0  0  0  0  0  0  0  0  0  0  0
    2.2890    7.9071   -1.3372 H   0  0  0  0  0  0  0  0  0  0  0  0
    1.6061    6.2761    1.0621 H   0  0  0  0  0  0  0  0  0  0  0  0
    1.9439   10.0197    0.3344 H   0  0  0  0  0  0  0  0  0  0  0  0
    2.0984   10.4135    2.0832 H   0  0  0  0  0  0  0  0  0  0  0  0
   -0.6152    7.4939    0.8330 H   0  0  0  0  0  0  0  0  0  0  0  0
    0.0789    8.4247   -0.5217 H   0  0  0  0  0  0  0  0  0  0  0  0
   -1.2092    5.3138    0.9426 H   0  0  0  0  0  0  0  0  0  0  0  0
    0.1800    4.3204    0.3790 H   0  0  0  0  0  0  0  0  0  0  0  0
  1  2  1  0
  2  3  2  0
  2  4  1  0
  4  5  1  0
  5  6  1  0
  6  7  1  0
  7  8  1  0
  8  9  1  0
  9 10  1  0
 10 11  2  0
 11 12  1  0
 12 13  2  0
 13 14  1  0
 13 15  1  0
 15 16  1  0
 16 17  1  0
 17 18  1  0
 18 19  1  0
 19 20  1  0
 20 21  2  0
 20 22  1  0
 22 23  1  0
 22 24  1  0
 24 25  1  0
 25 26  2  0
 25 27  1  0
 27 28  1  0
 27 29  1  0
 29 30  1  0
 30 31  2  0
 30 32  1  0
 32 33  1  0
 32 34  1  0
 34 35  1  0
 35 36  2  0
 18 37  1  0
 37 38  2  0
 37 39  1  0
 39 40  1  0
 40 41  1  0
 40 42  1  0
 42 43  2  0
 42 44  1  0
 44 45  1  0
 45 46  1  0
 45 47  1  0
 47 48  2  0
 47 49  1  0
 49 50  1  0
 50 51  1  0
 50 52  1  0
 52 53  2  0
 52 54  1  0
 54 55  1  0
 55 56  1  0
 55 57  1  0
 57 58  2  0
 57 59  1  0
 59 60  1  0
 60 61  1  0
 60 62  1  0
 62 63  2  0
 62 64  1  0
 64 65  1  0
 65 66  1  0
 65 67  1  0
 67 68  2  0
 67 69  1  0
 69 70  1  0
 70 71  1  0
 70 72  1  0
 72 73  2  0
 72 74  1  0
 74 75  1  0
 75 76  1  0
 75 77  1  0
 77 78  2  0
 77 79  1  0
 79 80  1  0
 80 81  1  0
 81 82  1  0
 81 83  2  0
 80 84  1  0
 84 85  1  0
 85 86  1  0
 35  5  1  0
 14  9  2  0
 86 11  1  0
  1 87  1  0
  1 88  1  0
  1 89  1  0
  4 90  1  0
  5 91  1  1
  6 92  1  0
  6 93  1  0
  8 94  1  0
  8 95  1  0
 10 96  1  0
 12 97  1  0
 14 98  1  0
 15 99  1  0
 15100  1  0
 17101  1  0
 17102  1  0
 18103  1  6
 19104  1  0
 22105  1  6
 23106  1  0
 23107  1  0
 23108  1  0
 24109  1  0
 27110  1  6
 28111  1  0
 28112  1  0
 28113  1  0
 29114  1  0
 32115  1  1
 33116  1  0
 33117  1  0
 33118  1  0
 34119  1  0
 39120  1  0
 40121  1  6
 41122  1  0
 41123  1  0
 41124  1  0
 44125  1  0
 45126  1  1
 46127  1  0
 46128  1  0
 46129  1  0
 49130  1  0
 50131  1  1
 51132  1  0
 51133  1  0
 51134  1  0
 54135  1  0
 55136  1  1
 56137  1  0
 56138  1  0
 56139  1  0
 59140  1  0
 60141  1  6
 61142  1  0
 61143  1  0
 61144  1  0
 64145  1  0
 65146  1  6
 66147  1  0
 66148  1  0
 66149  1  0
 69150  1  0
 70151  1  6
 71152  1  0
 71153  1  0
 71154  1  0
 74155  1  0
 75156  1  1
 76157  1  0
 76158  1  0
 76159  1  0
 79160  1  0
 80161  1  1
 82162  1  0
 82163  1  0
 84164  1  0
 84165  1  0
 86166  1  0
 86167  1  0
M  END
