
     RDKit          3D

187189  0  0  0  0  0  0  0  0999 V2000
  -11.4377   -5.2256   -0.8666 C   0  0  0  0  0  0  0  0  0  0  0  0
  -11.6730   -4.2473    0.2375 C   0  0  0  0  0  0  0  0  0  0  0  0
  -12.8585   -4.0248    0.6134 O   0  0  0  0  0  0  0  0  0  0  0  0
  -10.5918   -3.6089    0.9315 N   0  0  0  0  0  0  0  0  0  0  0  0
   -9.5764   -2.7543    0.2945 C   0  0  1  0  0  0  0  0  0  0  0  0
   -8.5197   -3.5587   -0.4748 C   0  0  0  0  0  0  0  0  0  0  0  0
   -7.8528   -4.9433    0.5270 S   0  0  0  0  0  0  0  0  0  0  0  0
   -6.4862   -4.0276    1.3307 C   0  0  0  0  0  0  0  0  0  0  0  0
   -5.3930   -3.7144    0.3467 C   0  0  0  0  0  0  0  0  0  0  0  0
   -4.7815   -4.7410   -0.3837 C   0  0  0  0  0  0  0  0  0  0  0  0
   -3.7782   -4.4514   -1.3150 C   0  0  0  0  0  0  0  0  0  0  0  0
   -3.3979   -3.1233   -1.5288 C   0  0  0  0  0  0  0  0  0  0  0  0
   -3.9873   -2.0852   -0.7934 C   0  0  0  0  0  0  0  0  0  0  0  0
   -4.9624   -2.3921    0.1666 C   0  0  0  0  0  0  0  0  0  0  0  0
   -3.4128   -0.6984   -0.8982 C   0  0  0  0  0  0  0  0  0  0  0  0
   -4.7022    0.6012   -0.8411 S   0  0  0  0  0  0  0  0  0  0  0  0
   -3.8644    1.6383    0.4178 C   0  0  0  0  0  0  0  0  0  0  0  0
   -4.4033    3.0744    0.3806 C   0  0  2  0  0  0  0  0  0  0  0  0
   -4.0964    3.7026   -0.9038 N   0  0  0  0  0  0  0  0  0  0  0  0
   -4.7584    4.8657   -1.4395 C   0  0  0  0  0  0  0  0  0  0  0  0
   -4.2887    5.3858   -2.4885 O   0  0  0  0  0  0  0  0  0  0  0  0
   -6.0095    5.4623   -0.8358 C   0  0  1  0  0  0  0  0  0  0  0  0
   -5.7853    6.9347   -0.5028 C   0  0  0  0  0  0  0  0  0  0  0  0
   -7.1069    5.3394   -1.8018 N   0  0  0  0  0  0  0  0  0  0  0  0
   -8.3085    4.5713   -1.6052 C   0  0  0  0  0  0  0  0  0  0  0  0
   -8.9272    4.1649   -2.6228 O   0  0  0  0  0  0  0  0  0  0  0  0
   -8.8487    4.2454   -0.2269 C   0  0  1  0  0  0  0  0  0  0  0  0
  -10.3673    4.4357   -0.1578 C   0  0  0  0  0  0  0  0  0  0  0  0
   -8.4815    2.8874    0.1888 N   0  0  0  0  0  0  0  0  0  0  0  0
   -8.9883    1.6909   -0.4286 C   0  0  0  0  0  0  0  0  0  0  0  0
   -9.2953    1.6986   -1.6481 O   0  0  0  0  0  0  0  0  0  0  0  0
   -9.1716    0.4044    0.3573 C   0  0  1  0  0  0  0  0  0  0  0  0
   -9.4285    0.6678    1.8445 C   0  0  0  0  0  0  0  0  0  0  0  0
  -10.3157   -0.3391   -0.1872 N   0  0  0  0  0  0  0  0  0  0  0  0
  -10.2412   -1.7153   -0.5840 C   0  0  0  0  0  0  0  0  0  0  0  0
  -10.7858   -2.0674   -1.6625 O   0  0  0  0  0  0  0  0  0  0  0  0
   -3.8008    3.8748    1.5091 C   0  0  0  0  0  0  0  0  0  0  0  0
   -4.5516    4.3986    2.3727 O   0  0  0  0  0  0  0  0  0  0  0  0
   -2.3773    3.9521    1.6766 N   0  0  0  0  0  0  0  0  0  0  0  0
   -1.5191    4.7696    0.8082 C   0  0  2  0  0  0  0  0  0  0  0  0
   -0.5419    3.8586    0.0593 C   0  0  0  0  0  0  0  0  0  0  0  0
   -0.7614    5.7769    1.6427 C   0  0  0  0  0  0  0  0  0  0  0  0
   -0.3163    5.4190    2.7708 O   0  0  0  0  0  0  0  0  0  0  0  0
   -0.6001    7.1486    1.2527 N   0  0  0  0  0  0  0  0  0  0  0  0
   -0.1655    7.6310   -0.0696 C   0  0  2  0  0  0  0  0  0  0  0  0
   -1.2827    7.5313   -1.1121 C   0  0  0  0  0  0  0  0  0  0  0  0
    1.1171    6.9723   -0.5264 C   0  0  0  0  0  0  0  0  0  0  0  0
    1.4290    6.9942   -1.7507 O   0  0  0  0  0  0  0  0  0  0  0  0
    2.0156    6.3770    0.4186 N   0  0  0  0  0  0  0  0  0  0  0  0
    3.2603    7.0144    0.8627 C   0  0  2  0  0  0  0  0  0  0  0  0
    3.0473    8.5067    1.1364 C   0  0  0  0  0  0  0  0  0  0  0  0
    4.3805    6.7721   -0.1195 C   0  0  0  0  0  0  0  0  0  0  0  0
    4.1727    6.1403   -1.1906 O   0  0  0  0  0  0  0  0  0  0  0  0
    5.6988    7.2387    0.1736 N   0  0  0  0  0  0  0  0  0  0  0  0
    6.7802    6.3048    0.4933 C   0  0  2  0  0  0  0  0  0  0  0  0
    7.1526    6.4632    1.9698 C   0  0  0  0  0  0  0  0  0  0  0  0
    7.9771    6.5743   -0.3871 C   0  0  0  0  0  0  0  0  0  0  0  0
    8.2555    7.7643   -0.7052 O   0  0  0  0  0  0  0  0  0  0  0  0
    8.8005    5.5111   -0.8916 N   0  0  0  0  0  0  0  0  0  0  0  0
    9.1930    4.3471   -0.0820 C   0  0  2  0  0  0  0  0  0  0  0  0
   10.4298    4.7079    0.7415 C   0  0  0  0  0  0  0  0  0  0  0  0
    9.4955    3.1494   -0.9636 C   0  0  0  0  0  0  0  0  0  0  0  0
    9.4702    3.2715   -2.2198 O   0  0  0  0  0  0  0  0  0  0  0  0
    9.8991    1.8910   -0.4041 N   0  0  0  0  0  0  0  0  0  0  0  0
    9.1027    1.1680    0.5975 C   0  0  2  0  0  0  0  0  0  0  0  0
    9.9921    0.8499    1.8073 C   0  0  0  0  0  0  0  0  0  0  0  0
    8.5231   -0.0721   -0.0553 C   0  0  0  0  0  0  0  0  0  0  0  0
    7.7236    0.0723   -1.0164 O   0  0  0  0  0  0  0  0  0  0  0  0
    8.9439   -1.3997    0.3247 N   0  0  0  0  0  0  0  0  0  0  0  0
    9.4186   -2.4033   -0.6410 C   0  0  2  0  0  0  0  0  0  0  0  0
   10.2767   -1.7710   -1.7426 C   0  0  0  0  0  0  0  0  0  0  0  0
    8.2728   -3.1878   -1.2352 C   0  0  0  0  0  0  0  0  0  0  0  0
    7.3335   -2.5770   -1.8098 O   0  0  0  0  0  0  0  0  0  0  0  0
    8.2991   -4.6227   -1.2846 N   0  0  0  0  0  0  0  0  0  0  0  0
    8.5142   -5.4579   -0.0976 C   0  0  2  0  0  0  0  0  0  0  0  0
    9.0402   -6.8495   -0.4788 C   0  0  0  0  0  0  0  0  0  0  0  0
    7.2637   -5.5229    0.7598 C   0  0  0  0  0  0  0  0  0  0  0  0
    7.2643   -4.8792    1.8417 O   0  0  0  0  0  0  0  0  0  0  0  0
    6.1204   -6.3418    0.4490 N   0  0  0  0  0  0  0  0  0  0  0  0
    5.6190   -6.6252   -0.8973 C   0  0  2  0  0  0  0  0  0  0  0  0
    4.4967   -5.6444   -1.2577 C   0  0  0  0  0  0  0  0  0  0  0  0
    5.2080   -8.0787   -0.9912 C   0  0  0  0  0  0  0  0  0  0  0  0
    6.1061   -8.9445   -1.1689 O   0  0  0  0  0  0  0  0  0  0  0  0
    3.8412   -8.5052   -0.9230 N   0  0  0  0  0  0  0  0  0  0  0  0
    3.0428   -8.3509    0.2932 C   0  0  2  0  0  0  0  0  0  0  0  0
    3.3779   -9.4715    1.2811 C   0  0  0  0  0  0  0  0  0  0  0  0
    1.5742   -8.3856   -0.0517 C   0  0  0  0  0  0  0  0  0  0  0  0
    1.0950   -9.4046   -0.6170 O   0  0  0  0  0  0  0  0  0  0  0  0
    0.7150   -7.2843    0.2915 N   0  0  0  0  0  0  0  0  0  0  0  0
   -0.7403   -7.4482    0.3583 C   0  0  1  0  0  0  0  0  0  0  0  0
   -1.1112   -8.0098    1.7063 C   0  0  0  0  0  0  0  0  0  0  0  0
   -0.7929   -7.3038    2.9058 N   0  0  0  0  0  0  0  0  0  0  0  0
   -1.6940   -9.1234    1.7783 O   0  0  0  0  0  0  0  0  0  0  0  0
   -1.4549   -6.1110    0.1199 C   0  0  0  0  0  0  0  0  0  0  0  0
   -1.2840   -5.5934   -1.6338 S   0  0  0  0  0  0  0  0  0  0  0  0
   -3.0709   -5.5658   -2.0445 C   0  0  0  0  0  0  0  0  0  0  0  0
  -12.1226   -6.0936   -0.7430 H   0  0  0  0  0  0  0  0  0  0  0  0
  -11.6421   -4.7509   -1.8501 H   0  0  0  0  0  0  0  0  0  0  0  0
  -10.4079   -5.6226   -0.8416 H   0  0  0  0  0  0  0  0  0  0  0  0
  -10.7079   -3.4996    1.9658 H   0  0  0  0  0  0  0  0  0  0  0  0
   -9.0373   -2.2291    1.1123 H   0  0  0  0  0  0  0  0  0  0  0  0
   -7.7044   -2.8737   -0.8028 H   0  0  0  0  0  0  0  0  0  0  0  0
   -8.9621   -3.9771   -1.4036 H   0  0  0  0  0  0  0  0  0  0  0  0
   -6.0648   -4.6690    2.1338 H   0  0  0  0  0  0  0  0  0  0  0  0
   -6.8869   -3.1058    1.8061 H   0  0  0  0  0  0  0  0  0  0  0  0
   -5.0867   -5.7691   -0.2200 H   0  0  0  0  0  0  0  0  0  0  0  0
   -2.6036   -2.9031   -2.2361 H   0  0  0  0  0  0  0  0  0  0  0  0
   -5.3930   -1.6044    0.7731 H   0  0  0  0  0  0  0  0  0  0  0  0
   -2.8803   -0.5802   -1.8644 H   0  0  0  0  0  0  0  0  0  0  0  0
   -2.6658   -0.5916   -0.0852 H   0  0  0  0  0  0  0  0  0  0  0  0
   -4.0551    1.1899    1.4185 H   0  0  0  0  0  0  0  0  0  0  0  0
   -2.7666    1.6492    0.2446 H   0  0  0  0  0  0  0  0  0  0  0  0
   -5.4986    2.9891    0.5146 H   0  0  0  0  0  0  0  0  0  0  0  0
   -3.2845    3.3350   -1.4575 H   0  0  0  0  0  0  0  0  0  0  0  0
   -6.2621    4.9585    0.1125 H   0  0  0  0  0  0  0  0  0  0  0  0
   -4.9638    7.0393    0.2411 H   0  0  0  0  0  0  0  0  0  0  0  0
   -6.7102    7.3675   -0.0689 H   0  0  0  0  0  0  0  0  0  0  0  0
   -5.5233    7.5112   -1.4134 H   0  0  0  0  0  0  0  0  0  0  0  0
   -6.9485    5.7392   -2.7559 H   0  0  0  0  0  0  0  0  0  0  0  0
   -8.4290    4.9682    0.5034 H   0  0  0  0  0  0  0  0  0  0  0  0
  -10.6354    5.4841   -0.4229 H   0  0  0  0  0  0  0  0  0  0  0  0
  -10.8947    3.7482   -0.8549 H   0  0  0  0  0  0  0  0  0  0  0  0
  -10.7225    4.2349    0.8768 H   0  0  0  0  0  0  0  0  0  0  0  0
   -7.8656    2.7874    1.0300 H   0  0  0  0  0  0  0  0  0  0  0  0
   -8.2405   -0.1952    0.2496 H   0  0  0  0  0  0  0  0  0  0  0  0
  -10.2015    1.4540    1.9782 H   0  0  0  0  0  0  0  0  0  0  0  0
   -9.7846   -0.2608    2.3425 H   0  0  0  0  0  0  0  0  0  0  0  0
   -8.4886    0.9760    2.3500 H   0  0  0  0  0  0  0  0  0  0  0  0
  -11.1897    0.1851   -0.4206 H   0  0  0  0  0  0  0  0  0  0  0  0
   -1.9540    3.4488    2.4933 H   0  0  0  0  0  0  0  0  0  0  0  0
   -2.1577    5.2957    0.0744 H   0  0  0  0  0  0  0  0  0  0  0  0
   -1.0858    3.0517   -0.4727 H   0  0  0  0  0  0  0  0  0  0  0  0
    0.1818    3.3875    0.7640 H   0  0  0  0  0  0  0  0  0  0  0  0
    0.0167    4.4359   -0.7049 H   0  0  0  0  0  0  0  0  0  0  0  0
   -0.5068    7.8358    2.0359 H   0  0  0  0  0  0  0  0  0  0  0  0
    0.0650    8.7151    0.0354 H   0  0  0  0  0  0  0  0  0  0  0  0
   -1.0914    8.2562   -1.9320 H   0  0  0  0  0  0  0  0  0  0  0  0
   -2.2634    7.7824   -0.6556 H   0  0  0  0  0  0  0  0  0  0  0  0
   -1.3290    6.5214   -1.5671 H   0  0  0  0  0  0  0  0  0  0  0  0
    1.8664    5.3742    0.6770 H   0  0  0  0  0  0  0  0  0  0  0  0
    3.5598    6.5423    1.8241 H   0  0  0  0  0  0  0  0  0  0  0  0
    2.8571    9.0586    0.1894 H   0  0  0  0  0  0  0  0  0  0  0  0
    2.1788    8.6464    1.8163 H   0  0  0  0  0  0  0  0  0  0  0  0
    3.9423    8.9404    1.6358 H   0  0  0  0  0  0  0  0  0  0  0  0
    5.8374    8.2571    0.3683 H   0  0  0  0  0  0  0  0  0  0  0  0
    6.4360    5.2643    0.3200 H   0  0  0  0  0  0  0  0  0  0  0  0
    6.2700    6.2324    2.6032 H   0  0  0  0  0  0  0  0  0  0  0  0
    7.4806    7.5043    2.1782 H   0  0  0  0  0  0  0  0  0  0  0  0
    7.9745    5.7728    2.2474 H   0  0  0  0  0  0  0  0  0  0  0  0
    9.4299    5.7623   -1.6900 H   0  0  0  0  0  0  0  0  0  0  0  0
    8.3714    4.0675    0.6031 H   0  0  0  0  0  0  0  0  0  0  0  0
   11.3112    4.8672    0.0798 H   0  0  0  0  0  0  0  0  0  0  0  0
   10.2506    5.6403    1.3177 H   0  0  0  0  0  0  0  0  0  0  0  0
   10.6691    3.9050    1.4645 H   0  0  0  0  0  0  0  0  0  0  0  0
   10.6479    1.3616   -0.9004 H   0  0  0  0  0  0  0  0  0  0  0  0
    8.2601    1.7972    0.9580 H   0  0  0  0  0  0  0  0  0  0  0  0
   10.8484    0.2073    1.5086 H   0  0  0  0  0  0  0  0  0  0  0  0
    9.3968    0.3488    2.6004 H   0  0  0  0  0  0  0  0  0  0  0  0
   10.3983    1.7855    2.2448 H   0  0  0  0  0  0  0  0  0  0  0  0
    9.1708   -1.5822    1.3214 H   0  0  0  0  0  0  0  0  0  0  0  0
   10.0971   -3.0953   -0.0992 H   0  0  0  0  0  0  0  0  0  0  0  0
   11.1157   -1.1925   -1.2893 H   0  0  0  0  0  0  0  0  0  0  0  0
   10.7134   -2.5670   -2.3828 H   0  0  0  0  0  0  0  0  0  0  0  0
    9.6763   -1.0937   -2.3881 H   0  0  0  0  0  0  0  0  0  0  0  0
    8.0074   -5.0689   -2.1816 H   0  0  0  0  0  0  0  0  0  0  0  0
    9.3159   -5.0097    0.5203 H   0  0  0  0  0  0  0  0  0  0  0  0
   10.0394   -6.7495   -0.9538 H   0  0  0  0  0  0  0  0  0  0  0  0
    8.3738   -7.3752   -1.1859 H   0  0  0  0  0  0  0  0  0  0  0  0
    9.1577   -7.4718    0.4367 H   0  0  0  0  0  0  0  0  0  0  0  0
    5.4758   -6.5535    1.2447 H   0  0  0  0  0  0  0  0  0  0  0  0
    6.4060   -6.4703   -1.6563 H   0  0  0  0  0  0  0  0  0  0  0  0
    3.7217   -5.5990   -0.4666 H   0  0  0  0  0  0  0  0  0  0  0  0
    4.9253   -4.6239   -1.3746 H   0  0  0  0  0  0  0  0  0  0  0  0
    4.0225   -5.9345   -2.2206 H   0  0  0  0  0  0  0  0  0  0  0  0
    3.5899   -9.3000   -1.5568 H   0  0  0  0  0  0  0  0  0  0  0  0
    3.2860   -7.3895    0.7914 H   0  0  0  0  0  0  0  0  0  0  0  0
    3.1645  -10.4634    0.8392 H   0  0  0  0  0  0  0  0  0  0  0  0
    4.4551   -9.4294    1.5517 H   0  0  0  0  0  0  0  0  0  0  0  0
    2.7783   -9.3493    2.2085 H   0  0  0  0  0  0  0  0  0  0  0  0
    1.1413   -6.4611    0.7759 H   0  0  0  0  0  0  0  0  0  0  0  0
   -1.0761   -8.1562   -0.4304 H   0  0  0  0  0  0  0  0  0  0  0  0
   -0.3395   -6.3634    2.8780 H   0  0  0  0  0  0  0  0  0  0  0  0
   -0.9901   -7.7346    3.8373 H   0  0  0  0  0  0  0  0  0  0  0  0
   -2.5255   -6.2168    0.4069 H   0  0  0  0  0  0  0  0  0  0  0  0
   -1.0285   -5.3169    0.7685 H   0  0  0  0  0  0  0  0  0  0  0  0
   -3.1807   -5.3993   -3.1359 H   0  0  0  0  0  0  0  0  0  0  0  0
   -3.5163   -6.5588   -1.8082 H   0  0  0  0  0  0  0  0  0  0  0  0
  1  2  1  0
  2  3  2  0
  2  4  1  0
  4  5  1  0
  5  6  1  0
  6  7  1  0
  7  8  1  0
  8  9  1  0
  9 10  1  0
 10 11  2  0
 11 12  1  0
 12 13  2  0
 13 14  1  0
 13 15  1  0
 15 16  1  0
 16 17  1  0
 17 18  1  0
 18 19  1  0
 19 20  1  0
 20 21  2  0
 20 22  1  0
 22 23  1  0
 22 24  1  0
 24 25  1  0
 25 26  2  0
 25 27  1  0
 27 28  1  0
 27 29  1  0
 29 30  1  0
 30 31  2  0
 30 32  1  0
 32 33  1  0
 32 34  1  0
 34 35  1  0
 35 36  2  0
 18 37  1  0
 37 38  2  0
 37 39  1  0
 39 40  1  0
 40 41  1  0
 40 42  1  0
 42 43  2  0
 42 44  1  0
 44 45  1  0
 45 46  1  0
 45 47  1  0
 47 48  2  0
 47 49  1  0
 49 50  1  0
 50 51  1  0
 50 52  1  0
 52 53  2  0
 52 54  1  0
 54 55  1  0
 55 56  1  0
 55 57  1  0
 57 58  2  0
 57 59  1  0
 59 60  1  0
 60 61  1  0
 60 62  1  0
 62 63  2  0
 62 64  1  0
 64 65  1  0
 65 66  1  0
 65 67  1  0
 67 68  2  0
 67 69  1  0
 69 70  1  0
 70 71  1  0
 70 72  1  0
 72 73  2  0
 72 74  1  0
 74 75  1  0
 75 76  1  0
 75 77  1  0
 77 78  2  0
 77 79  1  0
 79 80  1  0
 80 81  1  0
 80 82  1  0
 82 83  2  0
 82 84  1  0
 84 85  1  0
 85 86  1  0
 85 87  1  0
 87 88  2  0
 87 89  1  0
 89 90  1  0
 90 91  1  0
 91 92  1  0
 91 93  2  0
 90 94  1  0
 94 95  1  0
 95 96  1  0
 35  5  1  0
 14  9  2  0
 96 11  1  0
  1 97  1  0
  1 98  1  0
  1 99  1  0
  4100  1  0
  5101  1  1
  6102  1  0
  6103  1  0
  8104  1  0
  8105  1  0
 10106  1  0
 12107  1  0
 14108  1  0
 15109  1  0
 15110  1  0
 17111  1  0
 17112  1  0
 18113  1  1
 19114  1  0
 22115  1  1
 23116  1  0
 23117  1  0
 23118  1  0
 24119  1  0
 27120  1  1
 28121  1  0
 28122  1  0
 28123  1  0
 29124  1  0
 32125  1  1
 33126  1  0
 33127  1  0
 33128  1  0
 34129  1  0
 39130  1  0
 40131  1  6
 41132  1  0
 41133  1  0
 41134  1  0
 44135  1  0
 45136  1  1
 46137  1  0
 46138  1  0
 46139  1  0
 49140  1  0
 50141  1  1
 51142  1  0
 51143  1  0
 51144  1  0
 54145  1  0
 55146  1  1
 56147  1  0
 56148  1  0
 56149  1  0
 59150  1  0
 60151  1  1
 61152  1  0
 61153  1  0
 61154  1  0
 64155  1  0
 65156  1  1
 66157  1  0
 66158  1  0
 66159  1  0
 69160  1  0
 70161  1  1
 71162  1  0
 71163  1  0
 71164  1  0
 74165  1  0
 75166  1  1
 76167  1  0
 76168  1  0
 76169  1  0
 79170  1  0
 80171  1  6
 81172  1  0
 81173  1  0
 81174  1  0
 84175  1  0
 85176  1  1
 86177  1  0
 86178  1  0
 86179  1  0
 89180  1  0
 90181  1  6
 92182  1  0
 92183  1  0
 94184  1  0
 94185  1  0
 96186  1  0
 96187  1  0
M  END
