
     RDKit          3D

177179  0  0  0  0  0  0  0  0999 V2000
  -11.3936    4.2736    0.9663 C   0  0  0  0  0  0  0  0  0  0  0  0
  -10.1372    3.8333    1.6531 C   0  0  0  0  0  0  0  0  0  0  0  0
  -10.1271    3.7425    2.9099 O   0  0  0  0  0  0  0  0  0  0  0  0
   -8.9386    3.5072    0.9242 N   0  0  0  0  0  0  0  0  0  0  0  0
   -8.8688    3.3813   -0.5392 C   0  0  1  0  0  0  0  0  0  0  0  0
   -7.5904    4.0538   -1.0904 C   0  0  0  0  0  0  0  0  0  0  0  0
   -6.1401    2.9434   -1.2443 S   0  0  0  0  0  0  0  0  0  0  0  0
   -5.4722    3.1645    0.4399 C   0  0  0  0  0  0  0  0  0  0  0  0
   -4.0312    2.7438    0.4661 C   0  0  0  0  0  0  0  0  0  0  0  0
   -3.0116    3.6844    0.6767 C   0  0  0  0  0  0  0  0  0  0  0  0
   -1.6659    3.2885    0.6693 C   0  0  0  0  0  0  0  0  0  0  0  0
   -1.3460    1.9278    0.5050 C   0  0  0  0  0  0  0  0  0  0  0  0
   -2.3602    0.9773    0.2986 C   0  0  0  0  0  0  0  0  0  0  0  0
   -3.6939    1.3984    0.2563 C   0  0  0  0  0  0  0  0  0  0  0  0
   -2.0278   -0.4806    0.1101 C   0  0  0  0  0  0  0  0  0  0  0  0
   -2.0869   -1.3730    1.7106 S   0  0  0  0  0  0  0  0  0  0  0  0
   -3.8355   -1.9315    1.6317 C   0  0  0  0  0  0  0  0  0  0  0  0
   -3.9950   -3.1939    0.7695 C   0  0  2  0  0  0  0  0  0  0  0  0
   -5.4150   -3.4665    0.5570 N   0  0  0  0  0  0  0  0  0  0  0  0
   -6.0055   -3.3437   -0.7430 C   0  0  0  0  0  0  0  0  0  0  0  0
   -5.7466   -2.3326   -1.4493 O   0  0  0  0  0  0  0  0  0  0  0  0
   -6.8062   -4.4752   -1.3358 C   0  0  1  0  0  0  0  0  0  0  0  0
   -5.8640   -5.4175   -2.0829 C   0  0  0  0  0  0  0  0  0  0  0  0
   -7.5264   -5.2118   -0.2947 N   0  0  0  0  0  0  0  0  0  0  0  0
   -8.6569   -4.7122    0.4429 C   0  0  0  0  0  0  0  0  0  0  0  0
   -9.0159   -5.3358    1.4783 O   0  0  0  0  0  0  0  0  0  0  0  0
   -9.4879   -3.5322   -0.0138 C   0  0  1  0  0  0  0  0  0  0  0  0
  -10.8821   -4.0304   -0.3907 C   0  0  0  0  0  0  0  0  0  0  0  0
   -9.5788   -2.5328    1.0619 N   0  0  0  0  0  0  0  0  0  0  0  0
  -10.0785   -1.1938    0.9145 C   0  0  0  0  0  0  0  0  0  0  0  0
  -10.6479   -0.6570    1.9042 O   0  0  0  0  0  0  0  0  0  0  0  0
   -9.9170   -0.3772   -0.3493 C   0  0  1  0  0  0  0  0  0  0  0  0
  -11.3070   -0.0730   -0.9356 C   0  0  0  0  0  0  0  0  0  0  0  0
   -9.2038    0.8706   -0.0359 N   0  0  0  0  0  0  0  0  0  0  0  0
   -9.0382    1.9409   -0.9885 C   0  0  0  0  0  0  0  0  0  0  0  0
   -9.0890    1.6946   -2.2236 O   0  0  0  0  0  0  0  0  0  0  0  0
   -3.3616   -4.4115    1.4029 C   0  0  0  0  0  0  0  0  0  0  0  0
   -3.4572   -4.5764    2.6485 O   0  0  0  0  0  0  0  0  0  0  0  0
   -2.7799   -5.4569    0.6076 N   0  0  0  0  0  0  0  0  0  0  0  0
   -2.1488   -5.2395   -0.6956 C   0  0  2  0  0  0  0  0  0  0  0  0
   -1.8117   -6.5796   -1.3598 C   0  0  0  0  0  0  0  0  0  0  0  0
   -0.9302   -4.3542   -0.5445 C   0  0  0  0  0  0  0  0  0  0  0  0
   -0.7971   -3.3656   -1.3173 O   0  0  0  0  0  0  0  0  0  0  0  0
    0.0102   -4.5269    0.5241 N   0  0  0  0  0  0  0  0  0  0  0  0
    0.7871   -5.7506    0.7084 C   0  0  2  0  0  0  0  0  0  0  0  0
    0.3288   -6.4771    1.9796 C   0  0  0  0  0  0  0  0  0  0  0  0
    2.2550   -5.4243    0.7734 C   0  0  0  0  0  0  0  0  0  0  0  0
    2.7664   -5.0003    1.8385 O   0  0  0  0  0  0  0  0  0  0  0  0
    3.0748   -5.5947   -0.3886 N   0  0  0  0  0  0  0  0  0  0  0  0
    3.9467   -6.7603   -0.5879 C   0  0  2  0  0  0  0  0  0  0  0  0
    4.3929   -7.4112    0.7333 C   0  0  0  0  0  0  0  0  0  0  0  0
    5.1515   -6.3799   -1.4122 C   0  0  0  0  0  0  0  0  0  0  0  0
    5.3312   -6.9292   -2.5321 O   0  0  0  0  0  0  0  0  0  0  0  0
    6.1631   -5.5038   -0.8884 N   0  0  0  0  0  0  0  0  0  0  0  0
    5.8851   -4.1291   -0.4616 C   0  0  2  0  0  0  0  0  0  0  0  0
    5.5271   -3.2751   -1.6844 C   0  0  0  0  0  0  0  0  0  0  0  0
    7.0679   -3.6012    0.3191 C   0  0  0  0  0  0  0  0  0  0  0  0
    7.2678   -4.0601    1.4734 O   0  0  0  0  0  0  0  0  0  0  0  0
    8.0012   -2.6646   -0.2433 N   0  0  0  0  0  0  0  0  0  0  0  0
    9.4421   -2.6686    0.0310 C   0  0  2  0  0  0  0  0  0  0  0  0
   10.0496   -4.0588   -0.2096 C   0  0  0  0  0  0  0  0  0  0  0  0
    9.7510   -2.1587    1.4191 C   0  0  0  0  0  0  0  0  0  0  0  0
    9.5074   -2.8853    2.4183 O   0  0  0  0  0  0  0  0  0  0  0  0
   10.3535   -0.8722    1.6394 N   0  0  0  0  0  0  0  0  0  0  0  0
   10.1734    0.2876    0.7574 C   0  0  2  0  0  0  0  0  0  0  0  0
   11.4197    0.4726   -0.1147 C   0  0  0  0  0  0  0  0  0  0  0  0
    9.9242    1.5466    1.5566 C   0  0  0  0  0  0  0  0  0  0  0  0
   10.1110    1.5569    2.8033 O   0  0  0  0  0  0  0  0  0  0  0  0
    9.5938    2.7741    0.8975 N   0  0  0  0  0  0  0  0  0  0  0  0
    8.2954    2.9638    0.2493 C   0  0  2  0  0  0  0  0  0  0  0  0
    8.4691    3.7944   -1.0246 C   0  0  0  0  0  0  0  0  0  0  0  0
    7.3048    3.5379    1.2492 C   0  0  0  0  0  0  0  0  0  0  0  0
    7.0718    2.8643    2.2905 O   0  0  0  0  0  0  0  0  0  0  0  0
    6.5436    4.7395    1.0302 N   0  0  0  0  0  0  0  0  0  0  0  0
    7.1209    6.0913    0.9156 C   0  0  2  0  0  0  0  0  0  0  0  0
    8.3058    6.2795    1.8779 C   0  0  0  0  0  0  0  0  0  0  0  0
    6.0443    7.1320    1.1635 C   0  0  0  0  0  0  0  0  0  0  0  0
    6.0389    7.7860    2.2418 O   0  0  0  0  0  0  0  0  0  0  0  0
    4.9927    7.3861    0.2116 N   0  0  0  0  0  0  0  0  0  0  0  0
    4.9801    6.8825   -1.1656 C   0  0  2  0  0  0  0  0  0  0  0  0
    5.5853    7.9258   -2.1017 C   0  0  0  0  0  0  0  0  0  0  0  0
    3.5716    6.5551   -1.5768 C   0  0  0  0  0  0  0  0  0  0  0  0
    3.3027    5.3810   -1.9619 O   0  0  0  0  0  0  0  0  0  0  0  0
    2.5374    7.5530   -1.5358 N   0  0  0  0  0  0  0  0  0  0  0  0
    1.1304    7.2031   -1.7667 C   0  0  2  0  0  0  0  0  0  0  0  0
    0.2953    8.4271   -2.1007 C   0  0  0  0  0  0  0  0  0  0  0  0
   -1.0854    8.2900   -2.4458 N   0  0  0  0  0  0  0  0  0  0  0  0
    0.8220    9.5769   -2.1304 O   0  0  0  0  0  0  0  0  0  0  0  0
    0.5708    6.4814   -0.5159 C   0  0  0  0  0  0  0  0  0  0  0  0
   -0.4925    5.0751   -1.0002 S   0  0  0  0  0  0  0  0  0  0  0  0
   -0.5870    4.3366    0.6693 C   0  0  0  0  0  0  0  0  0  0  0  0
  -12.1961    4.4602    1.7075 H   0  0  0  0  0  0  0  0  0  0  0  0
  -11.2029    5.2084    0.4022 H   0  0  0  0  0  0  0  0  0  0  0  0
  -11.7327    3.4774    0.2741 H   0  0  0  0  0  0  0  0  0  0  0  0
   -8.1118    3.2187    1.4890 H   0  0  0  0  0  0  0  0  0  0  0  0
   -9.7131    3.9449   -0.9873 H   0  0  0  0  0  0  0  0  0  0  0  0
   -7.8096    4.4258   -2.1187 H   0  0  0  0  0  0  0  0  0  0  0  0
   -7.3513    4.9596   -0.4810 H   0  0  0  0  0  0  0  0  0  0  0  0
   -6.0414    2.5215    1.1450 H   0  0  0  0  0  0  0  0  0  0  0  0
   -5.5651    4.2259    0.7665 H   0  0  0  0  0  0  0  0  0  0  0  0
   -3.2593    4.7298    0.7888 H   0  0  0  0  0  0  0  0  0  0  0  0
   -0.3111    1.6122    0.5277 H   0  0  0  0  0  0  0  0  0  0  0  0
   -4.4822    0.6930    0.0145 H   0  0  0  0  0  0  0  0  0  0  0  0
   -1.0000   -0.5844   -0.3043 H   0  0  0  0  0  0  0  0  0  0  0  0
   -2.7090   -0.9278   -0.6427 H   0  0  0  0  0  0  0  0  0  0  0  0
   -4.2038   -2.1190    2.6578 H   0  0  0  0  0  0  0  0  0  0  0  0
   -4.4694   -1.1287    1.2196 H   0  0  0  0  0  0  0  0  0  0  0  0
   -3.5105   -2.9873   -0.2045 H   0  0  0  0  0  0  0  0  0  0  0  0
   -5.9447   -3.9539    1.3092 H   0  0  0  0  0  0  0  0  0  0  0  0
   -7.5258   -4.0835   -2.0864 H   0  0  0  0  0  0  0  0  0  0  0  0
   -5.1226   -5.8587   -1.3826 H   0  0  0  0  0  0  0  0  0  0  0  0
   -5.3215   -4.8711   -2.8859 H   0  0  0  0  0  0  0  0  0  0  0  0
   -6.4428   -6.2446   -2.5490 H   0  0  0  0  0  0  0  0  0  0  0  0
   -7.1186   -6.1133    0.0392 H   0  0  0  0  0  0  0  0  0  0  0  0
   -9.0275   -3.0651   -0.9043 H   0  0  0  0  0  0  0  0  0  0  0  0
  -11.4984   -3.2100   -0.8030 H   0  0  0  0  0  0  0  0  0  0  0  0
  -11.3947   -4.4409    0.5048 H   0  0  0  0  0  0  0  0  0  0  0  0
  -10.8112   -4.8253   -1.1618 H   0  0  0  0  0  0  0  0  0  0  0  0
   -9.5038   -2.8795    2.0465 H   0  0  0  0  0  0  0  0  0  0  0  0
   -9.3223   -0.9220   -1.1069 H   0  0  0  0  0  0  0  0  0  0  0  0
  -11.9256   -0.9908   -0.9976 H   0  0  0  0  0  0  0  0  0  0  0  0
  -11.2183    0.3366   -1.9629 H   0  0  0  0  0  0  0  0  0  0  0  0
  -11.8423    0.6632   -0.3009 H   0  0  0  0  0  0  0  0  0  0  0  0
   -8.8172    1.0003    0.9250 H   0  0  0  0  0  0  0  0  0  0  0  0
   -2.7981   -6.4155    1.0142 H   0  0  0  0  0  0  0  0  0  0  0  0
   -2.8730   -4.7406   -1.3739 H   0  0  0  0  0  0  0  0  0  0  0  0
   -2.7478   -7.0654   -1.7086 H   0  0  0  0  0  0  0  0  0  0  0  0
   -1.1541   -6.4249   -2.2409 H   0  0  0  0  0  0  0  0  0  0  0  0
   -1.3255   -7.2784   -0.6505 H   0  0  0  0  0  0  0  0  0  0  0  0
    0.2445   -3.6902    1.1097 H   0  0  0  0  0  0  0  0  0  0  0  0
    0.6443   -6.4256   -0.1537 H   0  0  0  0  0  0  0  0  0  0  0  0
   -0.7001   -6.8644    1.8532 H   0  0  0  0  0  0  0  0  0  0  0  0
    0.9896   -7.3519    2.1823 H   0  0  0  0  0  0  0  0  0  0  0  0
    0.3489   -5.7935    2.8566 H   0  0  0  0  0  0  0  0  0  0  0  0
    2.7568   -5.0978   -1.2544 H   0  0  0  0  0  0  0  0  0  0  0  0
    3.3645   -7.5224   -1.1557 H   0  0  0  0  0  0  0  0  0  0  0  0
    5.0512   -8.2786    0.5258 H   0  0  0  0  0  0  0  0  0  0  0  0
    4.9513   -6.6757    1.3518 H   0  0  0  0  0  0  0  0  0  0  0  0
    3.5150   -7.7763    1.3047 H   0  0  0  0  0  0  0  0  0  0  0  0
    7.1628   -5.8125   -0.9880 H   0  0  0  0  0  0  0  0  0  0  0  0
    5.0229   -4.1255    0.2327 H   0  0  0  0  0  0  0  0  0  0  0  0
    4.5939   -3.6523   -2.1551 H   0  0  0  0  0  0  0  0  0  0  0  0
    6.3414   -3.3285   -2.4418 H   0  0  0  0  0  0  0  0  0  0  0  0
    5.3588   -2.2111   -1.3963 H   0  0  0  0  0  0  0  0  0  0  0  0
    7.6770   -2.0021   -0.9819 H   0  0  0  0  0  0  0  0  0  0  0  0
    9.9303   -2.0026   -0.7118 H   0  0  0  0  0  0  0  0  0  0  0  0
   11.1556   -4.0067   -0.1159 H   0  0  0  0  0  0  0  0  0  0  0  0
    9.6677   -4.8039    0.5255 H   0  0  0  0  0  0  0  0  0  0  0  0
    9.7981   -4.4092   -1.2322 H   0  0  0  0  0  0  0  0  0  0  0  0
   10.9215   -0.7508    2.5168 H   0  0  0  0  0  0  0  0  0  0  0  0
    9.2951    0.1220    0.1002 H   0  0  0  0  0  0  0  0  0  0  0  0
   11.2403    1.2648   -0.8761 H   0  0  0  0  0  0  0  0  0  0  0  0
   12.2873    0.7697    0.5118 H   0  0  0  0  0  0  0  0  0  0  0  0
   11.6724   -0.4661   -0.6422 H   0  0  0  0  0  0  0  0  0  0  0  0
   10.1190    3.6259    1.1920 H   0  0  0  0  0  0  0  0  0  0  0  0
    7.8917    1.9744   -0.0708 H   0  0  0  0  0  0  0  0  0  0  0  0
    7.4823    4.0293   -1.4795 H   0  0  0  0  0  0  0  0  0  0  0  0
    9.0285    4.7284   -0.8133 H   0  0  0  0  0  0  0  0  0  0  0  0
    9.0592    3.2106   -1.7635 H   0  0  0  0  0  0  0  0  0  0  0  0
    5.5263    4.6684    1.2641 H   0  0  0  0  0  0  0  0  0  0  0  0
    7.5109    6.2513   -0.1088 H   0  0  0  0  0  0  0  0  0  0  0  0
    9.1613    5.6578    1.5522 H   0  0  0  0  0  0  0  0  0  0  0  0
    8.0263    5.9968    2.9149 H   0  0  0  0  0  0  0  0  0  0  0  0
    8.6479    7.3396    1.8664 H   0  0  0  0  0  0  0  0  0  0  0  0
    4.3590    8.1721    0.4488 H   0  0  0  0  0  0  0  0  0  0  0  0
    5.5833    5.9526   -1.2499 H   0  0  0  0  0  0  0  0  0  0  0  0
    6.6195    8.1771   -1.7816 H   0  0  0  0  0  0  0  0  0  0  0  0
    4.9802    8.8512   -2.0986 H   0  0  0  0  0  0  0  0  0  0  0  0
    5.6295    7.5256   -3.1331 H   0  0  0  0  0  0  0  0  0  0  0  0
    2.7879    8.5194   -1.2243 H   0  0  0  0  0  0  0  0  0  0  0  0
    1.0723    6.5417   -2.6590 H   0  0  0  0  0  0  0  0  0  0  0  0
   -1.6383    9.1376   -2.6986 H   0  0  0  0  0  0  0  0  0  0  0  0
   -1.4986    7.3542   -2.6359 H   0  0  0  0  0  0  0  0  0  0  0  0
    1.3977    6.1007    0.1133 H   0  0  0  0  0  0  0  0  0  0  0  0
   -0.0252    7.1810    0.1114 H   0  0  0  0  0  0  0  0  0  0  0  0
   -0.8307    5.1208    1.4222 H   0  0  0  0  0  0  0  0  0  0  0  0
    0.3989    3.8882    0.9281 H   0  0  0  0  0  0  0  0  0  0  0  0
  1  2  1  0
  2  3  2  0
  2  4  1  0
  4  5  1  0
  5  6  1  0
  6  7  1  0
  7  8  1  0
  8  9  1  0
  9 10  1  0
 10 11  2  0
 11 12  1  0
 12 13  2  0
 13 14  1  0
 13 15  1  0
 15 16  1  0
 16 17  1  0
 17 18  1  0
 18 19  1  0
 19 20  1  0
 20 21  2  0
 20 22  1  0
 22 23  1  0
 22 24  1  0
 24 25  1  0
 25 26  2  0
 25 27  1  0
 27 28  1  0
 27 29  1  0
 29 30  1  0
 30 31  2  0
 30 32  1  0
 32 33  1  0
 32 34  1  0
 34 35  1  0
 35 36  2  0
 18 37  1  0
 37 38  2  0
 37 39  1  0
 39 40  1  0
 40 41  1  0
 40 42  1  0
 42 43  2  0
 42 44  1  0
 44 45  1  0
 45 46  1  0
 45 47  1  0
 47 48  2  0
 47 49  1  0
 49 50  1  0
 50 51  1  0
 50 52  1  0
 52 53  2  0
 52 54  1  0
 54 55  1  0
 55 56  1  0
 55 57  1  0
 57 58  2  0
 57 59  1  0
 59 60  1  0
 60 61  1  0
 60 62  1  0
 62 63  2  0
 62 64  1  0
 64 65  1  0
 65 66  1  0
 65 67  1  0
 67 68  2  0
 67 69  1  0
 69 70  1  0
 70 71  1  0
 70 72  1  0
 72 73  2  0
 72 74  1  0
 74 75  1  0
 75 76  1  0
 75 77  1  0
 77 78  2  0
 77 79  1  0
 79 80  1  0
 80 81  1  0
 80 82  1  0
 82 83  2  0
 82 84  1  0
 84 85  1  0
 85 86  1  0
 86 87  1  0
 86 88  2  0
 85 89  1  0
 89 90  1  0
 90 91  1  0
 35  5  1  0
 14  9  2  0
 91 11  1  0
  1 92  1  0
  1 93  1  0
  1 94  1  0
  4 95  1  0
  5 96  1  6
  6 97  1  0
  6 98  1  0
  8 99  1  0
  8100  1  0
 10101  1  0
 12102  1  0
 14103  1  0
 15104  1  0
 15105  1  0
 17106  1  0
 17107  1  0
 18108  1  6
 19109  1  0
 22110  1  6
 23111  1  0
 23112  1  0
 23113  1  0
 24114  1  0
 27115  1  6
 28116  1  0
 28117  1  0
 28118  1  0
 29119  1  0
 32120  1  6
 33121  1  0
 33122  1  0
 33123  1  0
 34124  1  0
 39125  1  0
 40126  1  6
 41127  1  0
 41128  1  0
 41129  1  0
 44130  1  0
 45131  1  6
 46132  1  0
 46133  1  0
 46134  1  0
 49135  1  0
 50136  1  6
 51137  1  0
 51138  1  0
 51139  1  0
 54140  1  0
 55141  1  1
 56142  1  0
 56143  1  0
 56144  1  0
 59145  1  0
 60146  1  6
 61147  1  0
 61148  1  0
 61149  1  0
 64150  1  0
 65151  1  6
 66152  1  0
 66153  1  0
 66154  1  0
 69155  1  0
 70156  1  6
 71157  1  0
 71158  1  0
 71159  1  0
 74160  1  0
 75161  1  6
 76162  1  0
 76163  1  0
 76164  1  0
 79165  1  0
 80166  1  1
 81167  1  0
 81168  1  0
 81169  1  0
 84170  1  0
 85171  1  6
 87172  1  0
 87173  1  0
 89174  1  0
 89175  1  0
 91176  1  0
 91177  1  0
M  END
