
     RDKit          3D

187189  0  0  0  0  0  0  0  0999 V2000
   10.5112   -4.6817    0.9728 C   0  0  0  0  0  0  0  0  0  0  0  0
    9.6924   -3.5548    1.5282 C   0  0  0  0  0  0  0  0  0  0  0  0
   10.0467   -3.0226    2.6164 O   0  0  0  0  0  0  0  0  0  0  0  0
    8.5322   -3.0459    0.8469 N   0  0  0  0  0  0  0  0  0  0  0  0
    8.0659   -3.5485   -0.4491 C   0  0  1  0  0  0  0  0  0  0  0  0
    6.5684   -3.2475   -0.6345 C   0  0  0  0  0  0  0  0  0  0  0  0
    5.9253   -4.0555   -2.1530 S   0  0  0  0  0  0  0  0  0  0  0  0
    4.9473   -2.6324   -2.7678 C   0  0  0  0  0  0  0  0  0  0  0  0
    3.8004   -2.2979   -1.8446 C   0  0  0  0  0  0  0  0  0  0  0  0
    2.8601   -3.2824   -1.5099 C   0  0  0  0  0  0  0  0  0  0  0  0
    1.7664   -2.9794   -0.6861 C   0  0  0  0  0  0  0  0  0  0  0  0
    1.5883   -1.6634   -0.2403 C   0  0  0  0  0  0  0  0  0  0  0  0
    2.4876   -0.6539   -0.6191 C   0  0  0  0  0  0  0  0  0  0  0  0
    3.6103   -0.9830   -1.3957 C   0  0  0  0  0  0  0  0  0  0  0  0
    2.2014    0.7777   -0.2551 C   0  0  0  0  0  0  0  0  0  0  0  0
    2.4822    1.0582    1.5290 S   0  0  0  0  0  0  0  0  0  0  0  0
    4.2696    1.4511    1.4483 C   0  0  0  0  0  0  0  0  0  0  0  0
    4.5325    2.9128    1.0270 C   0  0  2  0  0  0  0  0  0  0  0  0
    5.9685    3.2044    1.0733 N   0  0  0  0  0  0  0  0  0  0  0  0
    6.4937    4.4680    0.6401 C   0  0  0  0  0  0  0  0  0  0  0  0
    5.9085    5.1178   -0.2645 O   0  0  0  0  0  0  0  0  0  0  0  0
    7.7349    5.0594    1.2783 C   0  0  1  0  0  0  0  0  0  0  0  0
    7.7997    4.7437    2.7771 C   0  0  0  0  0  0  0  0  0  0  0  0
    8.9904    4.6477    0.6313 N   0  0  0  0  0  0  0  0  0  0  0  0
    9.1109    3.5429   -0.2774 C   0  0  0  0  0  0  0  0  0  0  0  0
    8.3915    3.5040   -1.3135 O   0  0  0  0  0  0  0  0  0  0  0  0
   10.0536    2.3931   -0.0004 C   0  0  1  0  0  0  0  0  0  0  0  0
   11.1904    2.7555    0.9603 C   0  0  0  0  0  0  0  0  0  0  0  0
    9.2857    1.2792    0.5461 N   0  0  0  0  0  0  0  0  0  0  0  0
    8.7096    0.2730   -0.2995 C   0  0  0  0  0  0  0  0  0  0  0  0
    7.4695    0.0502   -0.2119 O   0  0  0  0  0  0  0  0  0  0  0  0
    9.5328   -0.4617   -1.3368 C   0  0  1  0  0  0  0  0  0  0  0  0
   10.8733   -0.9339   -0.7539 C   0  0  0  0  0  0  0  0  0  0  0  0
    8.7562   -1.5642   -1.9189 N   0  0  0  0  0  0  0  0  0  0  0  0
    8.8892   -2.9466   -1.5621 C   0  0  0  0  0  0  0  0  0  0  0  0
    9.6391   -3.6907   -2.2469 O   0  0  0  0  0  0  0  0  0  0  0  0
    3.7940    3.8745    1.9433 C   0  0  0  0  0  0  0  0  0  0  0  0
    4.1247    3.9152    3.1608 O   0  0  0  0  0  0  0  0  0  0  0  0
    2.7020    4.6983    1.4993 N   0  0  0  0  0  0  0  0  0  0  0  0
    2.5682    5.2770    0.1549 C   0  0  2  0  0  0  0  0  0  0  0  0
    2.9532    6.7616    0.1758 C   0  0  0  0  0  0  0  0  0  0  0  0
    1.1696    5.0313   -0.3644 C   0  0  0  0  0  0  0  0  0  0  0  0
    0.8863    3.8961   -0.8208 O   0  0  0  0  0  0  0  0  0  0  0  0
    0.1590    6.0502   -0.3644 N   0  0  0  0  0  0  0  0  0  0  0  0
   -0.3976    6.5822    0.8826 C   0  0  2  0  0  0  0  0  0  0  0  0
   -1.5257    5.6722    1.3842 C   0  0  0  0  0  0  0  0  0  0  0  0
   -0.8170    8.0231    0.7005 C   0  0  0  0  0  0  0  0  0  0  0  0
    0.0668    8.9201    0.7666 O   0  0  0  0  0  0  0  0  0  0  0  0
   -2.1809    8.4169    0.5048 N   0  0  0  0  0  0  0  0  0  0  0  0
   -2.9781    7.9649   -0.6372 C   0  0  2  0  0  0  0  0  0  0  0  0
   -2.9245    9.0073   -1.7571 C   0  0  0  0  0  0  0  0  0  0  0  0
   -4.3941    7.7032   -0.2037 C   0  0  0  0  0  0  0  0  0  0  0  0
   -5.1552    8.6597    0.1026 O   0  0  0  0  0  0  0  0  0  0  0  0
   -4.8736    6.3603   -0.1203 N   0  0  0  0  0  0  0  0  0  0  0  0
   -5.8454    5.7775   -1.0476 C   0  0  2  0  0  0  0  0  0  0  0  0
   -5.6362    6.2775   -2.4826 C   0  0  0  0  0  0  0  0  0  0  0  0
   -7.2550    6.0508   -0.5721 C   0  0  0  0  0  0  0  0  0  0  0  0
   -7.6976    7.2289   -0.6309 O   0  0  0  0  0  0  0  0  0  0  0  0
   -8.1171    5.0197   -0.0549 N   0  0  0  0  0  0  0  0  0  0  0  0
   -7.6857    3.6509    0.2577 C   0  0  2  0  0  0  0  0  0  0  0  0
   -7.7766    2.7767   -0.9943 C   0  0  0  0  0  0  0  0  0  0  0  0
   -8.4762    3.1176    1.4346 C   0  0  0  0  0  0  0  0  0  0  0  0
   -8.4402    3.7539    2.5215 O   0  0  0  0  0  0  0  0  0  0  0  0
   -9.1722    1.8628    1.3988 N   0  0  0  0  0  0  0  0  0  0  0  0
  -10.5300    1.7125    0.8554 C   0  0  2  0  0  0  0  0  0  0  0  0
  -11.4664    2.7825    1.4464 C   0  0  0  0  0  0  0  0  0  0  0  0
  -11.0431    0.3034    1.1178 C   0  0  0  0  0  0  0  0  0  0  0  0
  -12.1009    0.1409    1.7900 O   0  0  0  0  0  0  0  0  0  0  0  0
  -10.3732   -0.8686    0.6134 N   0  0  0  0  0  0  0  0  0  0  0  0
   -9.2854   -0.8603   -0.3687 C   0  0  2  0  0  0  0  0  0  0  0  0
   -9.7473   -1.5264   -1.6678 C   0  0  0  0  0  0  0  0  0  0  0  0
   -8.0629   -1.5379    0.2093 C   0  0  0  0  0  0  0  0  0  0  0  0
   -6.9826   -0.8967    0.3062 O   0  0  0  0  0  0  0  0  0  0  0  0
   -8.1164   -2.8812    0.6947 N   0  0  0  0  0  0  0  0  0  0  0  0
   -7.9237   -4.0200   -0.2049 C   0  0  2  0  0  0  0  0  0  0  0  0
   -9.0391   -5.0490    0.0263 C   0  0  0  0  0  0  0  0  0  0  0  0
   -6.5294   -4.5858   -0.0387 C   0  0  0  0  0  0  0  0  0  0  0  0
   -5.5509   -3.8769   -0.3986 O   0  0  0  0  0  0  0  0  0  0  0  0
   -6.2888   -5.9075    0.4755 N   0  0  0  0  0  0  0  0  0  0  0  0
   -5.0911   -6.6772    0.1136 C   0  0  2  0  0  0  0  0  0  0  0  0
   -5.2021   -7.1434   -1.3398 C   0  0  0  0  0  0  0  0  0  0  0  0
   -4.9237   -7.8674    1.0311 C   0  0  0  0  0  0  0  0  0  0  0  0
   -5.9236   -8.5617    1.3524 O   0  0  0  0  0  0  0  0  0  0  0  0
   -3.6369   -8.2228    1.5535 N   0  0  0  0  0  0  0  0  0  0  0  0
   -2.5351   -8.6191    0.6650 C   0  0  2  0  0  0  0  0  0  0  0  0
   -2.8174  -10.0121    0.0883 C   0  0  0  0  0  0  0  0  0  0  0  0
   -1.2225   -8.6482    1.4224 C   0  0  0  0  0  0  0  0  0  0  0  0
   -1.1705   -9.2705    2.5188 O   0  0  0  0  0  0  0  0  0  0  0  0
   -0.0173   -8.0389    0.9222 N   0  0  0  0  0  0  0  0  0  0  0  0
    0.1342   -7.4242   -0.4040 C   0  0  2  0  0  0  0  0  0  0  0  0
    0.0318   -8.4751   -1.4749 C   0  0  0  0  0  0  0  0  0  0  0  0
    0.8304   -9.6564   -1.4180 N   0  0  0  0  0  0  0  0  0  0  0  0
   -0.7666   -8.3085   -2.4386 O   0  0  0  0  0  0  0  0  0  0  0  0
    1.4870   -6.7054   -0.5174 C   0  0  0  0  0  0  0  0  0  0  0  0
    1.5913   -5.3304    0.6911 S   0  0  0  0  0  0  0  0  0  0  0  0
    0.7741   -4.0551   -0.3386 C   0  0  0  0  0  0  0  0  0  0  0  0
   11.3725   -4.8833    1.6383 H   0  0  0  0  0  0  0  0  0  0  0  0
   10.8993   -4.4088   -0.0306 H   0  0  0  0  0  0  0  0  0  0  0  0
    9.8950   -5.6002    0.9058 H   0  0  0  0  0  0  0  0  0  0  0  0
    8.0105   -2.2597    1.3078 H   0  0  0  0  0  0  0  0  0  0  0  0
    8.1726   -4.6548   -0.4622 H   0  0  0  0  0  0  0  0  0  0  0  0
    5.9999   -3.6472    0.2304 H   0  0  0  0  0  0  0  0  0  0  0  0
    6.3990   -2.1537   -0.6578 H   0  0  0  0  0  0  0  0  0  0  0  0
    5.6172   -1.7582   -2.9274 H   0  0  0  0  0  0  0  0  0  0  0  0
    4.5244   -2.9054   -3.7583 H   0  0  0  0  0  0  0  0  0  0  0  0
    2.9901   -4.2948   -1.8841 H   0  0  0  0  0  0  0  0  0  0  0  0
    0.7222   -1.4076    0.3602 H   0  0  0  0  0  0  0  0  0  0  0  0
    4.3107   -0.2076   -1.6859 H   0  0  0  0  0  0  0  0  0  0  0  0
    2.7955    1.4785   -0.8763 H   0  0  0  0  0  0  0  0  0  0  0  0
    1.1355    0.9981   -0.4732 H   0  0  0  0  0  0  0  0  0  0  0  0
    4.7024    1.2705    2.4586 H   0  0  0  0  0  0  0  0  0  0  0  0
    4.7764    0.7598    0.7376 H   0  0  0  0  0  0  0  0  0  0  0  0
    4.1917    3.0071   -0.0144 H   0  0  0  0  0  0  0  0  0  0  0  0
    6.6447    2.4530    1.3489 H   0  0  0  0  0  0  0  0  0  0  0  0
    7.6581    6.1658    1.1875 H   0  0  0  0  0  0  0  0  0  0  0  0
    6.8458    5.0322    3.2737 H   0  0  0  0  0  0  0  0  0  0  0  0
    7.9849    3.6580    2.9445 H   0  0  0  0  0  0  0  0  0  0  0  0
    8.6284    5.3126    3.2534 H   0  0  0  0  0  0  0  0  0  0  0  0
    9.8692    5.0542    1.0118 H   0  0  0  0  0  0  0  0  0  0  0  0
   10.5219    2.1035   -0.9680 H   0  0  0  0  0  0  0  0  0  0  0  0
   11.7854    3.5907    0.5420 H   0  0  0  0  0  0  0  0  0  0  0  0
   11.8566    1.8780    1.0880 H   0  0  0  0  0  0  0  0  0  0  0  0
   10.7892    3.0356    1.9578 H   0  0  0  0  0  0  0  0  0  0  0  0
    8.8823    1.3893    1.5022 H   0  0  0  0  0  0  0  0  0  0  0  0
    9.7699    0.2473   -2.1612 H   0  0  0  0  0  0  0  0  0  0  0  0
   11.3874   -1.6284   -1.4591 H   0  0  0  0  0  0  0  0  0  0  0  0
   10.7185   -1.4477    0.2172 H   0  0  0  0  0  0  0  0  0  0  0  0
   11.5497   -0.0728   -0.5817 H   0  0  0  0  0  0  0  0  0  0  0  0
    8.0038   -1.3170   -2.5991 H   0  0  0  0  0  0  0  0  0  0  0  0
    2.0760    5.0752    2.2441 H   0  0  0  0  0  0  0  0  0  0  0  0
    3.2548    4.8029   -0.5601 H   0  0  0  0  0  0  0  0  0  0  0  0
    2.8639    7.1923   -0.8412 H   0  0  0  0  0  0  0  0  0  0  0  0
    2.3239    7.3432    0.8744 H   0  0  0  0  0  0  0  0  0  0  0  0
    4.0040    6.8697    0.5111 H   0  0  0  0  0  0  0  0  0  0  0  0
   -0.4443    6.0948   -1.2165 H   0  0  0  0  0  0  0  0  0  0  0  0
    0.3747    6.5691    1.6790 H   0  0  0  0  0  0  0  0  0  0  0  0
   -2.0249    6.1305    2.2663 H   0  0  0  0  0  0  0  0  0  0  0  0
   -2.2718    5.4745    0.5892 H   0  0  0  0  0  0  0  0  0  0  0  0
   -1.1005    4.6939    1.6904 H   0  0  0  0  0  0  0  0  0  0  0  0
   -2.4816    9.3028    0.9710 H   0  0  0  0  0  0  0  0  0  0  0  0
   -2.5598    7.0247   -1.0475 H   0  0  0  0  0  0  0  0  0  0  0  0
   -1.8746    9.1571   -2.0775 H   0  0  0  0  0  0  0  0  0  0  0  0
   -3.5120    8.6559   -2.6336 H   0  0  0  0  0  0  0  0  0  0  0  0
   -3.3305    9.9823   -1.4104 H   0  0  0  0  0  0  0  0  0  0  0  0
   -4.6111    5.8063    0.7279 H   0  0  0  0  0  0  0  0  0  0  0  0
   -5.6454    4.6930   -1.0867 H   0  0  0  0  0  0  0  0  0  0  0  0
   -6.3258    5.7460   -3.1705 H   0  0  0  0  0  0  0  0  0  0  0  0
   -5.8279    7.3680   -2.5577 H   0  0  0  0  0  0  0  0  0  0  0  0
   -4.5918    6.0737   -2.8036 H   0  0  0  0  0  0  0  0  0  0  0  0
   -9.1137    5.2758    0.1234 H   0  0  0  0  0  0  0  0  0  0  0  0
   -6.6299    3.6673    0.5997 H   0  0  0  0  0  0  0  0  0  0  0  0
   -7.3943    1.7573   -0.7788 H   0  0  0  0  0  0  0  0  0  0  0  0
   -8.8179    2.7347   -1.3673 H   0  0  0  0  0  0  0  0  0  0  0  0
   -7.1608    3.1990   -1.8149 H   0  0  0  0  0  0  0  0  0  0  0  0
   -8.7865    1.1064    2.0093 H   0  0  0  0  0  0  0  0  0  0  0  0
  -10.5190    1.8633   -0.2388 H   0  0  0  0  0  0  0  0  0  0  0  0
  -11.1079    3.7984    1.1733 H   0  0  0  0  0  0  0  0  0  0  0  0
  -12.4910    2.6703    1.0329 H   0  0  0  0  0  0  0  0  0  0  0  0
  -11.5091    2.7030    2.5546 H   0  0  0  0  0  0  0  0  0  0  0  0
  -10.7406   -1.8023    0.9126 H   0  0  0  0  0  0  0  0  0  0  0  0
   -9.0107    0.1733   -0.6315 H   0  0  0  0  0  0  0  0  0  0  0  0
  -10.1562   -2.5406   -1.4746 H   0  0  0  0  0  0  0  0  0  0  0  0
   -8.9006   -1.5982   -2.3877 H   0  0  0  0  0  0  0  0  0  0  0  0
  -10.5470   -0.9100   -2.1320 H   0  0  0  0  0  0  0  0  0  0  0  0
   -7.9922   -3.0323    1.7180 H   0  0  0  0  0  0  0  0  0  0  0  0
   -8.0140   -3.6906   -1.2635 H   0  0  0  0  0  0  0  0  0  0  0  0
   -8.8905   -5.9365   -0.6312 H   0  0  0  0  0  0  0  0  0  0  0  0
  -10.0259   -4.5958   -0.2163 H   0  0  0  0  0  0  0  0  0  0  0  0
   -9.0732   -5.3703    1.0907 H   0  0  0  0  0  0  0  0  0  0  0  0
   -7.0265   -6.3617    1.0552 H   0  0  0  0  0  0  0  0  0  0  0  0
   -4.1949   -6.0279    0.2181 H   0  0  0  0  0  0  0  0  0  0  0  0
   -4.3169   -7.7494   -1.6242 H   0  0  0  0  0  0  0  0  0  0  0  0
   -6.1169   -7.7538   -1.4787 H   0  0  0  0  0  0  0  0  0  0  0  0
   -5.2496   -6.2675   -2.0155 H   0  0  0  0  0  0  0  0  0  0  0  0
   -3.6105   -8.5312    2.5485 H   0  0  0  0  0  0  0  0  0  0  0  0
   -2.4795   -7.9078   -0.1762 H   0  0  0  0  0  0  0  0  0  0  0  0
   -2.8909  -10.7638    0.9048 H   0  0  0  0  0  0  0  0  0  0  0  0
   -2.0095  -10.3190   -0.6087 H   0  0  0  0  0  0  0  0  0  0  0  0
   -3.7764  -10.0071   -0.4702 H   0  0  0  0  0  0  0  0  0  0  0  0
    0.8248   -8.1056    1.5379 H   0  0  0  0  0  0  0  0  0  0  0  0
   -0.6598   -6.6583   -0.5524 H   0  0  0  0  0  0  0  0  0  0  0  0
    0.7059  -10.4153   -2.1235 H   0  0  0  0  0  0  0  0  0  0  0  0
    1.4823   -9.8248   -0.6174 H   0  0  0  0  0  0  0  0  0  0  0  0
    2.3153   -7.4190   -0.3004 H   0  0  0  0  0  0  0  0  0  0  0  0
    1.6448   -6.3310   -1.5513 H   0  0  0  0  0  0  0  0  0  0  0  0
   -0.0691   -3.6360    0.2483 H   0  0  0  0  0  0  0  0  0  0  0  0
    0.3400   -4.4714   -1.2730 H   0  0  0  0  0  0  0  0  0  0  0  0
  1  2  1  0
  2  3  2  0
  2  4  1  0
  4  5  1  0
  5  6  1  0
  6  7  1  0
  7  8  1  0
  8  9  1  0
  9 10  1  0
 10 11  2  0
 11 12  1  0
 12 13  2  0
 13 14  1  0
 13 15  1  0
 15 16  1  0
 16 17  1  0
 17 18  1  0
 18 19  1  0
 19 20  1  0
 20 21  2  0
 20 22  1  0
 22 23  1  0
 22 24  1  0
 24 25  1  0
 25 26  2  0
 25 27  1  0
 27 28  1  0
 27 29  1  0
 29 30  1  0
 30 31  2  0
 30 32  1  0
 32 33  1  0
 32 34  1  0
 34 35  1  0
 35 36  2  0
 18 37  1  0
 37 38  2  0
 37 39  1  0
 39 40  1  0
 40 41  1  0
 40 42  1  0
 42 43  2  0
 42 44  1  0
 44 45  1  0
 45 46  1  0
 45 47  1  0
 47 48  2  0
 47 49  1  0
 49 50  1  0
 50 51  1  0
 50 52  1  0
 52 53  2  0
 52 54  1  0
 54 55  1  0
 55 56  1  0
 55 57  1  0
 57 58  2  0
 57 59  1  0
 59 60  1  0
 60 61  1  0
 60 62  1  0
 62 63  2  0
 62 64  1  0
 64 65  1  0
 65 66  1  0
 65 67  1  0
 67 68  2  0
 67 69  1  0
 69 70  1  0
 70 71  1  0
 70 72  1  0
 72 73  2  0
 72 74  1  0
 74 75  1  0
 75 76  1  0
 75 77  1  0
 77 78  2  0
 77 79  1  0
 79 80  1  0
 80 81  1  0
 80 82  1  0
 82 83  2  0
 82 84  1  0
 84 85  1  0
 85 86  1  0
 85 87  1  0
 87 88  2  0
 87 89  1  0
 89 90  1  0
 90 91  1  0
 91 92  1  0
 91 93  2  0
 90 94  1  0
 94 95  1  0
 95 96  1  0
 35  5  1  0
 14  9  2  0
 96 11  1  0
  1 97  1  0
  1 98  1  0
  1 99  1  0
  4100  1  0
  5101  1  1
  6102  1  0
  6103  1  0
  8104  1  0
  8105  1  0
 10106  1  0
 12107  1  0
 14108  1  0
 15109  1  0
 15110  1  0
 17111  1  0
 17112  1  0
 18113  1  6
 19114  1  0
 22115  1  1
 23116  1  0
 23117  1  0
 23118  1  0
 24119  1  0
 27120  1  6
 28121  1  0
 28122  1  0
 28123  1  0
 29124  1  0
 32125  1  6
 33126  1  0
 33127  1  0
 33128  1  0
 34129  1  0
 39130  1  0
 40131  1  6
 41132  1  0
 41133  1  0
 41134  1  0
 44135  1  0
 45136  1  1
 46137  1  0
 46138  1  0
 46139  1  0
 49140  1  0
 50141  1  6
 51142  1  0
 51143  1  0
 51144  1  0
 54145  1  0
 55146  1  6
 56147  1  0
 56148  1  0
 56149  1  0
 59150  1  0
 60151  1  1
 61152  1  0
 61153  1  0
 61154  1  0
 64155  1  0
 65156  1  6
 66157  1  0
 66158  1  0
 66159  1  0
 69160  1  0
 70161  1  6
 71162  1  0
 71163  1  0
 71164  1  0
 74165  1  0
 75166  1  6
 76167  1  0
 76168  1  0
 76169  1  0
 79170  1  0
 80171  1  6
 81172  1  0
 81173  1  0
 81174  1  0
 84175  1  0
 85176  1  6
 86177  1  0
 86178  1  0
 86179  1  0
 89180  1  0
 90181  1  6
 92182  1  0
 92183  1  0
 94184  1  0
 94185  1  0
 96186  1  0
 96187  1  0
M  END
