
     RDKit          3D

137139  0  0  0  0  0  0  0  0999 V2000
   -7.7847   -5.5728   -1.0658 C   0  0  0  0  0  0  0  0  0  0  0  0
   -7.6298   -6.0752    0.3385 C   0  0  0  0  0  0  0  0  0  0  0  0
   -8.0853   -7.2255    0.5919 O   0  0  0  0  0  0  0  0  0  0  0  0
   -6.9984   -5.3391    1.4061 N   0  0  0  0  0  0  0  0  0  0  0  0
   -6.4444   -3.9761    1.3874 C   0  0  1  0  0  0  0  0  0  0  0  0
   -5.2418   -3.8002    0.4185 C   0  0  0  0  0  0  0  0  0  0  0  0
   -4.1656   -5.2900    0.3324 S   0  0  0  0  0  0  0  0  0  0  0  0
   -3.2399   -4.9891    1.8791 C   0  0  0  0  0  0  0  0  0  0  0  0
   -1.9285   -4.3014    1.5959 C   0  0  0  0  0  0  0  0  0  0  0  0
   -0.8863   -4.9900    0.9517 C   0  0  0  0  0  0  0  0  0  0  0  0
    0.3815   -4.3948    0.8107 C   0  0  0  0  0  0  0  0  0  0  0  0
    0.5743   -3.0861    1.2768 C   0  0  0  0  0  0  0  0  0  0  0  0
   -0.4824   -2.3509    1.8386 C   0  0  0  0  0  0  0  0  0  0  0  0
   -1.7193   -2.9834    2.0332 C   0  0  0  0  0  0  0  0  0  0  0  0
   -0.2995   -0.9416    2.3533 C   0  0  0  0  0  0  0  0  0  0  0  0
    1.0003    0.0022    1.4750 S   0  0  0  0  0  0  0  0  0  0  0  0
    0.6582    1.6059    2.2926 C   0  0  0  0  0  0  0  0  0  0  0  0
    0.3751    2.6948    1.2301 C   0  0  1  0  0  0  0  0  0  0  0  0
   -0.4887    3.7460    1.7952 N   0  0  0  0  0  0  0  0  0  0  0  0
   -0.6613    5.0250    1.1758 C   0  0  0  0  0  0  0  0  0  0  0  0
   -0.0486    6.0221    1.6575 O   0  0  0  0  0  0  0  0  0  0  0  0
   -1.7576    5.2598    0.1639 C   0  0  1  0  0  0  0  0  0  0  0  0
   -1.8782    4.0720   -0.7958 C   0  0  0  0  0  0  0  0  0  0  0  0
   -3.0343    5.4822    0.8538 N   0  0  0  0  0  0  0  0  0  0  0  0
   -4.2233    5.8618    0.1364 C   0  0  0  0  0  0  0  0  0  0  0  0
   -4.1207    6.5249   -0.9370 O   0  0  0  0  0  0  0  0  0  0  0  0
   -5.5718    5.3599    0.6065 C   0  0  1  0  0  0  0  0  0  0  0  0
   -6.7243    6.1353   -0.0662 C   0  0  0  0  0  0  0  0  0  0  0  0
   -5.6292    3.9086    0.3482 N   0  0  0  0  0  0  0  0  0  0  0  0
   -6.7906    3.1577   -0.0520 C   0  0  0  0  0  0  0  0  0  0  0  0
   -7.9345    3.5062    0.3304 O   0  0  0  0  0  0  0  0  0  0  0  0
   -6.6360    1.9680   -0.9678 C   0  0  1  0  0  0  0  0  0  0  0  0
   -5.9061    2.4068   -2.2467 C   0  0  0  0  0  0  0  0  0  0  0  0
   -5.8820    0.9075   -0.2935 N   0  0  0  0  0  0  0  0  0  0  0  0
   -6.4515   -0.3154    0.2016 C   0  0  0  0  0  0  0  0  0  0  0  0
   -6.0216   -0.7544    1.3000 O   0  0  0  0  0  0  0  0  0  0  0  0
   -7.5510   -1.0589   -0.5678 C   0  0  1  0  0  0  0  0  0  0  0  0
   -7.1560   -1.2316   -2.0447 C   0  0  0  0  0  0  0  0  0  0  0  0
   -7.8868   -2.3991   -0.0436 N   0  0  0  0  0  0  0  0  0  0  0  0
   -7.5368   -2.9426    1.2341 C   0  0  0  0  0  0  0  0  0  0  0  0
   -8.1848   -2.5718    2.2458 O   0  0  0  0  0  0  0  0  0  0  0  0
    1.6776    3.2790    0.7416 C   0  0  0  0  0  0  0  0  0  0  0  0
    2.3554    3.9952    1.5184 O   0  0  0  0  0  0  0  0  0  0  0  0
    2.1497    2.9930   -0.5915 N   0  0  0  0  0  0  0  0  0  0  0  0
    3.5783    3.0447   -0.9075 C   0  0  2  0  0  0  0  0  0  0  0  0
    3.7726    3.2851   -2.4076 C   0  0  0  0  0  0  0  0  0  0  0  0
    4.2237    1.7403   -0.4911 C   0  0  0  0  0  0  0  0  0  0  0  0
    3.8002    0.6779   -1.0170 O   0  0  0  0  0  0  0  0  0  0  0  0
    5.2635    1.6358    0.5067 N   0  0  0  0  0  0  0  0  0  0  0  0
    6.1567    2.7031    0.9866 C   0  0  2  0  0  0  0  0  0  0  0  0
    5.4762    3.5875    2.0409 C   0  0  0  0  0  0  0  0  0  0  0  0
    6.7570    3.4769   -0.1662 C   0  0  0  0  0  0  0  0  0  0  0  0
    6.5407    4.7096   -0.2769 O   0  0  0  0  0  0  0  0  0  0  0  0
    7.5530    2.8196   -1.1713 N   0  0  0  0  0  0  0  0  0  0  0  0
    8.5274    1.7652   -0.8651 C   0  0  2  0  0  0  0  0  0  0  0  0
    9.8720    2.4025   -0.5027 C   0  0  0  0  0  0  0  0  0  0  0  0
    8.6919    0.8567   -2.0723 C   0  0  0  0  0  0  0  0  0  0  0  0
    9.1104    1.3540   -3.1517 O   0  0  0  0  0  0  0  0  0  0  0  0
    8.4074   -0.5572   -2.0434 N   0  0  0  0  0  0  0  0  0  0  0  0
    7.8192   -1.2882   -0.9113 C   0  0  2  0  0  0  0  0  0  0  0  0
    8.9312   -1.7861    0.0180 C   0  0  0  0  0  0  0  0  0  0  0  0
    6.9700   -2.4401   -1.3807 C   0  0  0  0  0  0  0  0  0  0  0  0
    7.0796   -2.8904   -2.5508 O   0  0  0  0  0  0  0  0  0  0  0  0
    6.0120   -3.0123   -0.4775 N   0  0  0  0  0  0  0  0  0  0  0  0
    4.9943   -3.9778   -0.9034 C   0  0  1  0  0  0  0  0  0  0  0  0
    5.2894   -5.3202   -0.2941 C   0  0  0  0  0  0  0  0  0  0  0  0
    5.3475   -6.4893   -1.1176 N   0  0  0  0  0  0  0  0  0  0  0  0
    5.4646   -5.4217    0.9562 O   0  0  0  0  0  0  0  0  0  0  0  0
    3.6098   -3.4721   -0.4725 C   0  0  0  0  0  0  0  0  0  0  0  0
    2.2443   -4.4349   -1.2584 S   0  0  0  0  0  0  0  0  0  0  0  0
    1.5481   -5.1868    0.2651 C   0  0  0  0  0  0  0  0  0  0  0  0
   -7.3195   -4.5981   -1.2396 H   0  0  0  0  0  0  0  0  0  0  0  0
   -7.3118   -6.3057   -1.7619 H   0  0  0  0  0  0  0  0  0  0  0  0
   -8.8609   -5.4952   -1.3166 H   0  0  0  0  0  0  0  0  0  0  0  0
   -6.8736   -5.8620    2.3036 H   0  0  0  0  0  0  0  0  0  0  0  0
   -6.0197   -3.7875    2.3980 H   0  0  0  0  0  0  0  0  0  0  0  0
   -5.5732   -3.5662   -0.6118 H   0  0  0  0  0  0  0  0  0  0  0  0
   -4.6347   -2.9249    0.7306 H   0  0  0  0  0  0  0  0  0  0  0  0
   -3.0242   -5.9680    2.3667 H   0  0  0  0  0  0  0  0  0  0  0  0
   -3.8525   -4.4054    2.5945 H   0  0  0  0  0  0  0  0  0  0  0  0
   -1.0337   -6.0068    0.6148 H   0  0  0  0  0  0  0  0  0  0  0  0
    1.5441   -2.6345    1.1943 H   0  0  0  0  0  0  0  0  0  0  0  0
   -2.5175   -2.4480    2.5259 H   0  0  0  0  0  0  0  0  0  0  0  0
   -0.0383   -0.9763    3.4282 H   0  0  0  0  0  0  0  0  0  0  0  0
   -1.2569   -0.3933    2.2355 H   0  0  0  0  0  0  0  0  0  0  0  0
   -0.2136    1.5100    2.9794 H   0  0  0  0  0  0  0  0  0  0  0  0
    1.5269    1.8725    2.9279 H   0  0  0  0  0  0  0  0  0  0  0  0
   -0.1627    2.2370    0.3752 H   0  0  0  0  0  0  0  0  0  0  0  0
   -1.2960    3.4096    2.3818 H   0  0  0  0  0  0  0  0  0  0  0  0
   -1.4999    6.1643   -0.4326 H   0  0  0  0  0  0  0  0  0  0  0  0
   -2.1586    3.1525   -0.2416 H   0  0  0  0  0  0  0  0  0  0  0  0
   -2.6652    4.2603   -1.5489 H   0  0  0  0  0  0  0  0  0  0  0  0
   -0.9193    3.9195   -1.3303 H   0  0  0  0  0  0  0  0  0  0  0  0
   -3.1537    5.1220    1.8325 H   0  0  0  0  0  0  0  0  0  0  0  0
   -5.6438    5.5328    1.7014 H   0  0  0  0  0  0  0  0  0  0  0  0
   -6.8137    5.8528   -1.1377 H   0  0  0  0  0  0  0  0  0  0  0  0
   -7.6884    5.9290    0.4582 H   0  0  0  0  0  0  0  0  0  0  0  0
   -6.5427    7.2206   -0.0029 H   0  0  0  0  0  0  0  0  0  0  0  0
   -4.7357    3.3707    0.4550 H   0  0  0  0  0  0  0  0  0  0  0  0
   -7.6500    1.6168   -1.2518 H   0  0  0  0  0  0  0  0  0  0  0  0
   -6.3717    3.3158   -2.6750 H   0  0  0  0  0  0  0  0  0  0  0  0
   -5.9747    1.5919   -3.0000 H   0  0  0  0  0  0  0  0  0  0  0  0
   -4.8314    2.5819   -2.0377 H   0  0  0  0  0  0  0  0  0  0  0  0
   -4.9226    1.1340    0.0402 H   0  0  0  0  0  0  0  0  0  0  0  0
   -8.4723   -0.4405   -0.5132 H   0  0  0  0  0  0  0  0  0  0  0  0
   -7.2489   -0.2731   -2.5815 H   0  0  0  0  0  0  0  0  0  0  0  0
   -7.8233   -1.9623   -2.5464 H   0  0  0  0  0  0  0  0  0  0  0  0
   -6.1049   -1.5985   -2.1157 H   0  0  0  0  0  0  0  0  0  0  0  0
   -8.6560   -2.9023   -0.5339 H   0  0  0  0  0  0  0  0  0  0  0  0
    1.4970    2.4931   -1.2418 H   0  0  0  0  0  0  0  0  0  0  0  0
    4.0337    3.9065   -0.3932 H   0  0  0  0  0  0  0  0  0  0  0  0
    4.8573    3.3518   -2.6490 H   0  0  0  0  0  0  0  0  0  0  0  0
    3.2772    4.2337   -2.7043 H   0  0  0  0  0  0  0  0  0  0  0  0
    3.2980    2.4741   -2.9967 H   0  0  0  0  0  0  0  0  0  0  0  0
    5.4685    0.6698    0.8440 H   0  0  0  0  0  0  0  0  0  0  0  0
    6.9931    2.2174    1.5420 H   0  0  0  0  0  0  0  0  0  0  0  0
    4.8578    2.9624    2.7289 H   0  0  0  0  0  0  0  0  0  0  0  0
    6.2432    4.1177    2.6413 H   0  0  0  0  0  0  0  0  0  0  0  0
    4.8272    4.3603    1.5906 H   0  0  0  0  0  0  0  0  0  0  0  0
    7.6883    3.3384   -2.0710 H   0  0  0  0  0  0  0  0  0  0  0  0
    8.2089    1.1854    0.0116 H   0  0  0  0  0  0  0  0  0  0  0  0
   10.1965    3.1019   -1.3005 H   0  0  0  0  0  0  0  0  0  0  0  0
   10.6518    1.6233   -0.3689 H   0  0  0  0  0  0  0  0  0  0  0  0
    9.7642    2.9650    0.4503 H   0  0  0  0  0  0  0  0  0  0  0  0
    8.7671   -1.1143   -2.8495 H   0  0  0  0  0  0  0  0  0  0  0  0
    7.1344   -0.6266   -0.3466 H   0  0  0  0  0  0  0  0  0  0  0  0
    9.5780   -0.9439    0.3354 H   0  0  0  0  0  0  0  0  0  0  0  0
    8.4961   -2.2636    0.9223 H   0  0  0  0  0  0  0  0  0  0  0  0
    9.5489   -2.5379   -0.5172 H   0  0  0  0  0  0  0  0  0  0  0  0
    5.8839   -2.5566    0.4482 H   0  0  0  0  0  0  0  0  0  0  0  0
    4.9847   -4.0676   -2.0132 H   0  0  0  0  0  0  0  0  0  0  0  0
    5.0339   -6.4433   -2.1059 H   0  0  0  0  0  0  0  0  0  0  0  0
    5.6534   -7.4036   -0.7110 H   0  0  0  0  0  0  0  0  0  0  0  0
    3.5487   -3.4533    0.6395 H   0  0  0  0  0  0  0  0  0  0  0  0
    3.5002   -2.4155   -0.8225 H   0  0  0  0  0  0  0  0  0  0  0  0
    1.2388   -6.2262    0.0037 H   0  0  0  0  0  0  0  0  0  0  0  0
    2.3319   -5.2995    1.0462 H   0  0  0  0  0  0  0  0  0  0  0  0
  1  2  1  0
  2  3  2  0
  2  4  1  0
  4  5  1  0
  5  6  1  0
  6  7  1  0
  7  8  1  0
  8  9  1  0
  9 10  2  0
 10 11  1  0
 11 12  2  0
 12 13  1  0
 13 14  2  0
 13 15  1  0
 15 16  1  0
 16 17  1  0
 17 18  1  0
 18 19  1  0
 19 20  1  0
 20 21  2  0
 20 22  1  0
 22 23  1  0
 22 24  1  0
 24 25  1  0
 25 26  2  0
 25 27  1  0
 27 28  1  0
 27 29  1  0
 29 30  1  0
 30 31  2  0
 30 32  1  0
 32 33  1  0
 32 34  1  0
 34 35  1  0
 35 36  2  0
 35 37  1  0
 37 38  1  0
 37 39  1  0
 39 40  1  0
 40 41  2  0
 18 42  1  0
 42 43  2  0
 42 44  1  0
 44 45  1  0
 45 46  1  0
 45 47  1  0
 47 48  2  0
 47 49  1  0
 49 50  1  0
 50 51  1  0
 50 52  1  0
 52 53  2  0
 52 54  1  0
 54 55  1  0
 55 56  1  0
 55 57  1  0
 57 58  2  0
 57 59  1  0
 59 60  1  0
 60 61  1  0
 60 62  1  0
 62 63  2  0
 62 64  1  0
 64 65  1  0
 65 66  1  0
 66 67  1  0
 66 68  2  0
 65 69  1  0
 69 70  1  0
 70 71  1  0
 40  5  1  0
 14  9  1  0
 71 11  1  0
  1 72  1  0
  1 73  1  0
  1 74  1  0
  4 75  1  0
  5 76  1  1
  6 77  1  0
  6 78  1  0
  8 79  1  0
  8 80  1  0
 10 81  1  0
 12 82  1  0
 14 83  1  0
 15 84  1  0
 15 85  1  0
 17 86  1  0
 17 87  1  0
 18 88  1  6
 19 89  1  0
 22 90  1  6
 23 91  1  0
 23 92  1  0
 23 93  1  0
 24 94  1  0
 27 95  1  1
 28 96  1  0
 28 97  1  0
 28 98  1  0
 29 99  1  0
 32100  1  6
 33101  1  0
 33102  1  0
 33103  1  0
 34104  1  0
 37105  1  6
 38106  1  0
 38107  1  0
 38108  1  0
 39109  1  0
 44110  1  0
 45111  1  1
 46112  1  0
 46113  1  0
 46114  1  0
 49115  1  0
 50116  1  1
 51117  1  0
 51118  1  0
 51119  1  0
 54120  1  0
 55121  1  1
 56122  1  0
 56123  1  0
 56124  1  0
 59125  1  0
 60126  1  1
 61127  1  0
 61128  1  0
 61129  1  0
 64130  1  0
 65131  1  6
 67132  1  0
 67133  1  0
 69134  1  0
 69135  1  0
 71136  1  0
 71137  1  0
M  END
