
     RDKit          3D

127129  0  0  0  0  0  0  0  0999 V2000
   -6.0657    6.4185   -2.2508 C   0  0  0  0  0  0  0  0  0  0  0  0
   -5.9232    5.4015   -1.1639 C   0  0  0  0  0  0  0  0  0  0  0  0
   -6.7163    5.4245   -0.1848 O   0  0  0  0  0  0  0  0  0  0  0  0
   -4.8981    4.3988   -1.2533 N   0  0  0  0  0  0  0  0  0  0  0  0
   -4.7875    3.2870   -0.3000 C   0  0  2  0  0  0  0  0  0  0  0  0
   -3.3165    3.0468    0.0693 C   0  0  0  0  0  0  0  0  0  0  0  0
   -2.6797    4.4720    1.0295 S   0  0  0  0  0  0  0  0  0  0  0  0
   -1.4587    3.5342    2.0136 C   0  0  0  0  0  0  0  0  0  0  0  0
   -0.2540    3.1898    1.1803 C   0  0  0  0  0  0  0  0  0  0  0  0
    0.6871    4.1808    0.8733 C   0  0  0  0  0  0  0  0  0  0  0  0
    1.8540    3.8674    0.1592 C   0  0  0  0  0  0  0  0  0  0  0  0
    2.0453    2.5467   -0.2809 C   0  0  0  0  0  0  0  0  0  0  0  0
    1.1179    1.5437    0.0327 C   0  0  0  0  0  0  0  0  0  0  0  0
   -0.0239    1.8676    0.7763 C   0  0  0  0  0  0  0  0  0  0  0  0
    1.3822    0.1161   -0.3495 C   0  0  0  0  0  0  0  0  0  0  0  0
    0.1374   -0.4542   -1.5526 S   0  0  0  0  0  0  0  0  0  0  0  0
    0.7528   -2.1771   -1.6327 C   0  0  0  0  0  0  0  0  0  0  0  0
    0.4296   -2.9726   -0.3389 C   0  0  1  0  0  0  0  0  0  0  0  0
   -0.2302   -4.2394   -0.6705 N   0  0  0  0  0  0  0  0  0  0  0  0
   -1.4277   -4.7470   -0.0480 C   0  0  0  0  0  0  0  0  0  0  0  0
   -1.8037   -5.9115   -0.3503 O   0  0  0  0  0  0  0  0  0  0  0  0
   -2.2408   -3.9407    0.9555 C   0  0  1  0  0  0  0  0  0  0  0  0
   -3.0062   -2.7660    0.3142 C   0  0  0  0  0  0  0  0  0  0  0  0
   -3.1296   -4.8002    1.7565 N   0  0  0  0  0  0  0  0  0  0  0  0
   -4.3414   -5.4607    1.3419 C   0  0  0  0  0  0  0  0  0  0  0  0
   -5.0036   -6.0820    2.2165 O   0  0  0  0  0  0  0  0  0  0  0  0
   -4.8849   -5.4152   -0.0728 C   0  0  1  0  0  0  0  0  0  0  0  0
   -5.2103   -6.8264   -0.5695 C   0  0  0  0  0  0  0  0  0  0  0  0
   -6.1033   -4.5978   -0.0925 N   0  0  0  0  0  0  0  0  0  0  0  0
   -6.2268   -3.4112   -0.8910 C   0  0  0  0  0  0  0  0  0  0  0  0
   -5.5468   -3.2823   -1.9464 O   0  0  0  0  0  0  0  0  0  0  0  0
   -7.1964   -2.3268   -0.5013 C   0  0  1  0  0  0  0  0  0  0  0  0
   -8.6325   -2.7419   -0.8067 C   0  0  0  0  0  0  0  0  0  0  0  0
   -7.0524   -2.0132    0.9243 N   0  0  0  0  0  0  0  0  0  0  0  0
   -6.4594   -0.8066    1.4161 C   0  0  0  0  0  0  0  0  0  0  0  0
   -5.7303   -0.8612    2.4470 O   0  0  0  0  0  0  0  0  0  0  0  0
   -6.6632    0.5153    0.7196 C   0  0  1  0  0  0  0  0  0  0  0  0
   -6.9588    1.6122    1.7519 C   0  0  0  0  0  0  0  0  0  0  0  0
   -5.4786    0.8434   -0.0808 N   0  0  0  0  0  0  0  0  0  0  0  0
   -5.4118    2.0360   -0.8710 C   0  0  0  0  0  0  0  0  0  0  0  0
   -5.8291    2.0113   -2.0603 O   0  0  0  0  0  0  0  0  0  0  0  0
    1.6092   -3.2559    0.5662 C   0  0  0  0  0  0  0  0  0  0  0  0
    1.3938   -3.8357    1.6641 O   0  0  0  0  0  0  0  0  0  0  0  0
    2.9453   -2.8283    0.2757 N   0  0  0  0  0  0  0  0  0  0  0  0
    3.8148   -3.6045   -0.6142 C   0  0  2  0  0  0  0  0  0  0  0  0
    4.2657   -4.8866    0.0917 C   0  0  0  0  0  0  0  0  0  0  0  0
    5.0349   -2.8154   -1.0450 C   0  0  0  0  0  0  0  0  0  0  0  0
    5.7415   -3.2514   -1.9913 O   0  0  0  0  0  0  0  0  0  0  0  0
    5.4916   -1.6747   -0.3035 N   0  0  0  0  0  0  0  0  0  0  0  0
    6.7393   -1.7519    0.4593 C   0  0  2  0  0  0  0  0  0  0  0  0
    6.5248   -1.2074    1.8788 C   0  0  0  0  0  0  0  0  0  0  0  0
    7.8468   -1.0409   -0.2729 C   0  0  0  0  0  0  0  0  0  0  0  0
    8.3476   -1.5770   -1.2978 O   0  0  0  0  0  0  0  0  0  0  0  0
    8.3766    0.2081    0.1927 N   0  0  0  0  0  0  0  0  0  0  0  0
    7.8731    1.4655   -0.3565 C   0  0  2  0  0  0  0  0  0  0  0  0
    8.5032    1.7219   -1.7306 C   0  0  0  0  0  0  0  0  0  0  0  0
    8.1815    2.6096    0.5812 C   0  0  0  0  0  0  0  0  0  0  0  0
    9.3725    2.7997    0.9504 O   0  0  0  0  0  0  0  0  0  0  0  0
    7.1516    3.4512    1.1261 N   0  0  0  0  0  0  0  0  0  0  0  0
    6.3300    4.4000    0.3526 C   0  0  1  0  0  0  0  0  0  0  0  0
    7.1788    5.3921   -0.4093 C   0  0  0  0  0  0  0  0  0  0  0  0
    6.8209    6.7756   -0.4284 N   0  0  0  0  0  0  0  0  0  0  0  0
    8.1968    5.0087   -1.0477 O   0  0  0  0  0  0  0  0  0  0  0  0
    5.3451    3.6593   -0.5671 C   0  0  0  0  0  0  0  0  0  0  0  0
    4.0918    4.7614   -1.3313 S   0  0  0  0  0  0  0  0  0  0  0  0
    2.9540    4.9073    0.1026 C   0  0  0  0  0  0  0  0  0  0  0  0
   -6.3039    5.9065   -3.2094 H   0  0  0  0  0  0  0  0  0  0  0  0
   -5.1161    6.9845   -2.3565 H   0  0  0  0  0  0  0  0  0  0  0  0
   -6.8812    7.1351   -2.0122 H   0  0  0  0  0  0  0  0  0  0  0  0
   -4.3015    4.3810   -2.1142 H   0  0  0  0  0  0  0  0  0  0  0  0
   -5.3213    3.5446    0.6369 H   0  0  0  0  0  0  0  0  0  0  0  0
   -2.7008    2.9145   -0.8462 H   0  0  0  0  0  0  0  0  0  0  0  0
   -3.2474    2.1150    0.6712 H   0  0  0  0  0  0  0  0  0  0  0  0
   -1.9300    2.6270    2.4490 H   0  0  0  0  0  0  0  0  0  0  0  0
   -1.1369    4.1612    2.8726 H   0  0  0  0  0  0  0  0  0  0  0  0
    0.5319    5.1904    1.2441 H   0  0  0  0  0  0  0  0  0  0  0  0
    2.9211    2.2760   -0.8457 H   0  0  0  0  0  0  0  0  0  0  0  0
   -0.7248    1.0860    1.0496 H   0  0  0  0  0  0  0  0  0  0  0  0
    2.3958    0.0018   -0.7914 H   0  0  0  0  0  0  0  0  0  0  0  0
    1.3349   -0.4980    0.5740 H   0  0  0  0  0  0  0  0  0  0  0  0
    1.8303   -2.1598   -1.8834 H   0  0  0  0  0  0  0  0  0  0  0  0
    0.2422   -2.6521   -2.4980 H   0  0  0  0  0  0  0  0  0  0  0  0
   -0.2498   -2.3461    0.2662 H   0  0  0  0  0  0  0  0  0  0  0  0
    0.2651   -4.8732   -1.3439 H   0  0  0  0  0  0  0  0  0  0  0  0
   -1.5138   -3.5037    1.6720 H   0  0  0  0  0  0  0  0  0  0  0  0
   -3.1706   -2.9261   -0.7713 H   0  0  0  0  0  0  0  0  0  0  0  0
   -2.4386   -1.8181    0.4263 H   0  0  0  0  0  0  0  0  0  0  0  0
   -3.9873   -2.6140    0.8140 H   0  0  0  0  0  0  0  0  0  0  0  0
   -2.8599   -4.9299    2.7595 H   0  0  0  0  0  0  0  0  0  0  0  0
   -4.1321   -4.9987   -0.7671 H   0  0  0  0  0  0  0  0  0  0  0  0
   -4.2952   -7.4585   -0.5382 H   0  0  0  0  0  0  0  0  0  0  0  0
   -5.5763   -6.7776   -1.6161 H   0  0  0  0  0  0  0  0  0  0  0  0
   -5.9984   -7.2921    0.0611 H   0  0  0  0  0  0  0  0  0  0  0  0
   -6.8660   -4.8333    0.5826 H   0  0  0  0  0  0  0  0  0  0  0  0
   -6.9735   -1.4285   -1.1168 H   0  0  0  0  0  0  0  0  0  0  0  0
   -8.9089   -3.6476   -0.2249 H   0  0  0  0  0  0  0  0  0  0  0  0
   -9.3274   -1.9192   -0.5345 H   0  0  0  0  0  0  0  0  0  0  0  0
   -8.7469   -2.9596   -1.8906 H   0  0  0  0  0  0  0  0  0  0  0  0
   -7.2063   -2.7802    1.6200 H   0  0  0  0  0  0  0  0  0  0  0  0
   -7.5515    0.4464    0.0515 H   0  0  0  0  0  0  0  0  0  0  0  0
   -7.7512    1.2768    2.4595 H   0  0  0  0  0  0  0  0  0  0  0  0
   -7.3301    2.5285    1.2454 H   0  0  0  0  0  0  0  0  0  0  0  0
   -6.0440    1.8582    2.3355 H   0  0  0  0  0  0  0  0  0  0  0  0
   -4.8624    0.0558   -0.3945 H   0  0  0  0  0  0  0  0  0  0  0  0
    3.4065   -2.3278    1.0668 H   0  0  0  0  0  0  0  0  0  0  0  0
    3.2467   -3.8941   -1.5222 H   0  0  0  0  0  0  0  0  0  0  0  0
    3.3855   -5.5198    0.3365 H   0  0  0  0  0  0  0  0  0  0  0  0
    4.9368   -5.4757   -0.5705 H   0  0  0  0  0  0  0  0  0  0  0  0
    4.8107   -4.6347    1.0320 H   0  0  0  0  0  0  0  0  0  0  0  0
    4.8086   -0.9141   -0.0849 H   0  0  0  0  0  0  0  0  0  0  0  0
    7.0417   -2.8210    0.5776 H   0  0  0  0  0  0  0  0  0  0  0  0
    7.4519   -1.3189    2.4749 H   0  0  0  0  0  0  0  0  0  0  0  0
    5.7154   -1.7796    2.3798 H   0  0  0  0  0  0  0  0  0  0  0  0
    6.2370   -0.1346    1.8492 H   0  0  0  0  0  0  0  0  0  0  0  0
    9.3530    0.1857    0.5605 H   0  0  0  0  0  0  0  0  0  0  0  0
    6.7747    1.3660   -0.4739 H   0  0  0  0  0  0  0  0  0  0  0  0
    9.6114    1.7739   -1.6469 H   0  0  0  0  0  0  0  0  0  0  0  0
    8.1291    2.6697   -2.1652 H   0  0  0  0  0  0  0  0  0  0  0  0
    8.2373    0.8989   -2.4290 H   0  0  0  0  0  0  0  0  0  0  0  0
    7.1223    3.5375    2.1689 H   0  0  0  0  0  0  0  0  0  0  0  0
    5.7330    4.9797    1.0874 H   0  0  0  0  0  0  0  0  0  0  0  0
    5.9652    7.1113    0.0682 H   0  0  0  0  0  0  0  0  0  0  0  0
    7.3786    7.4518   -0.9979 H   0  0  0  0  0  0  0  0  0  0  0  0
    5.8934    3.1942   -1.4071 H   0  0  0  0  0  0  0  0  0  0  0  0
    4.8522    2.8588    0.0226 H   0  0  0  0  0  0  0  0  0  0  0  0
    3.5078    4.8938    1.0651 H   0  0  0  0  0  0  0  0  0  0  0  0
    2.4881    5.9156    0.0172 H   0  0  0  0  0  0  0  0  0  0  0  0
  1  2  1  0
  2  3  2  0
  2  4  1  0
  4  5  1  0
  5  6  1  0
  6  7  1  0
  7  8  1  0
  8  9  1  0
  9 10  2  0
 10 11  1  0
 11 12  2  0
 12 13  1  0
 13 14  2  0
 13 15  1  0
 15 16  1  0
 16 17  1  0
 17 18  1  0
 18 19  1  0
 19 20  1  0
 20 21  2  0
 20 22  1  0
 22 23  1  0
 22 24  1  0
 24 25  1  0
 25 26  2  0
 25 27  1  0
 27 28  1  0
 27 29  1  0
 29 30  1  0
 30 31  2  0
 30 32  1  0
 32 33  1  0
 32 34  1  0
 34 35  1  0
 35 36  2  0
 35 37  1  0
 37 38  1  0
 37 39  1  0
 39 40  1  0
 40 41  2  0
 18 42  1  0
 42 43  2  0
 42 44  1  0
 44 45  1  0
 45 46  1  0
 45 47  1  0
 47 48  2  0
 47 49  1  0
 49 50  1  0
 50 51  1  0
 50 52  1  0
 52 53  2  0
 52 54  1  0
 54 55  1  0
 55 56  1  0
 55 57  1  0
 57 58  2  0
 57 59  1  0
 59 60  1  0
 60 61  1  0
 61 62  1  0
 61 63  2  0
 60 64  1  0
 64 65  1  0
 65 66  1  0
 40  5  1  0
 14  9  1  0
 66 11  1  0
  1 67  1  0
  1 68  1  0
  1 69  1  0
  4 70  1  0
  5 71  1  1
  6 72  1  0
  6 73  1  0
  8 74  1  0
  8 75  1  0
 10 76  1  0
 12 77  1  0
 14 78  1  0
 15 79  1  0
 15 80  1  0
 17 81  1  0
 17 82  1  0
 18 83  1  1
 19 84  1  0
 22 85  1  1
 23 86  1  0
 23 87  1  0
 23 88  1  0
 24 89  1  0
 27 90  1  6
 28 91  1  0
 28 92  1  0
 28 93  1  0
 29 94  1  0
 32 95  1  6
 33 96  1  0
 33 97  1  0
 33 98  1  0
 34 99  1  0
 37100  1  6
 38101  1  0
 38102  1  0
 38103  1  0
 39104  1  0
 44105  1  0
 45106  1  6
 46107  1  0
 46108  1  0
 46109  1  0
 49110  1  0
 50111  1  1
 51112  1  0
 51113  1  0
 51114  1  0
 54115  1  0
 55116  1  6
 56117  1  0
 56118  1  0
 56119  1  0
 59120  1  0
 60121  1  1
 62122  1  0
 62123  1  0
 64124  1  0
 64125  1  0
 66126  1  0
 66127  1  0
M  END
