
     RDKit          3D

137139  0  0  0  0  0  0  0  0999 V2000
   -6.3261    3.8921    3.1497 C   0  0  0  0  0  0  0  0  0  0  0  0
   -5.4855    2.6620    2.9766 C   0  0  0  0  0  0  0  0  0  0  0  0
   -5.2578    1.9449    3.9844 O   0  0  0  0  0  0  0  0  0  0  0  0
   -4.9732    2.2389    1.7008 N   0  0  0  0  0  0  0  0  0  0  0  0
   -4.8117    3.0560    0.4897 C   0  0  2  0  0  0  0  0  0  0  0  0
   -3.6949    4.1081    0.6974 C   0  0  0  0  0  0  0  0  0  0  0  0
   -3.3591    5.1313   -0.7923 S   0  0  0  0  0  0  0  0  0  0  0  0
   -2.5287    3.8751   -1.8232 C   0  0  0  0  0  0  0  0  0  0  0  0
   -1.2124    3.4449   -1.2391 C   0  0  0  0  0  0  0  0  0  0  0  0
   -1.0542    2.1394   -0.7459 C   0  0  0  0  0  0  0  0  0  0  0  0
    0.2051    1.6944   -0.2986 C   0  0  0  0  0  0  0  0  0  0  0  0
    1.3086    2.5555   -0.3869 C   0  0  0  0  0  0  0  0  0  0  0  0
    1.1600    3.8599   -0.8782 C   0  0  0  0  0  0  0  0  0  0  0  0
   -0.1084    4.3097   -1.2838 C   0  0  0  0  0  0  0  0  0  0  0  0
    2.3689    4.7348   -1.0550 C   0  0  0  0  0  0  0  0  0  0  0  0
    2.6997    5.7095    0.4623 S   0  0  0  0  0  0  0  0  0  0  0  0
    3.9574    4.5907    1.2120 C   0  0  0  0  0  0  0  0  0  0  0  0
    5.3592    4.7669    0.6001 C   0  0  1  0  0  0  0  0  0  0  0  0
    5.8029    6.2083    0.6255 C   0  0  0  0  0  0  0  0  0  0  0  0
    5.9737    6.9141    1.8605 N   0  0  0  0  0  0  0  0  0  0  0  0
    6.0176    6.8142   -0.4600 O   0  0  0  0  0  0  0  0  0  0  0  0
    6.3298    3.9488    1.3386 N   0  0  0  0  0  0  0  0  0  0  0  0
    7.3167    3.0901    0.7431 C   0  0  0  0  0  0  0  0  0  0  0  0
    8.3769    2.8572    1.3867 O   0  0  0  0  0  0  0  0  0  0  0  0
    7.1367    2.4524   -0.6156 C   0  0  1  0  0  0  0  0  0  0  0  0
    7.8208    3.2945   -1.6929 C   0  0  0  0  0  0  0  0  0  0  0  0
    7.7040    1.0984   -0.6199 N   0  0  0  0  0  0  0  0  0  0  0  0
    6.9657   -0.0256   -1.1088 C   0  0  0  0  0  0  0  0  0  0  0  0
    6.6237   -0.0578   -2.3250 O   0  0  0  0  0  0  0  0  0  0  0  0
    6.6693   -1.2066   -0.2161 C   0  0  1  0  0  0  0  0  0  0  0  0
    6.6678   -0.7998    1.2608 C   0  0  0  0  0  0  0  0  0  0  0  0
    5.3607   -1.7650   -0.5670 N   0  0  0  0  0  0  0  0  0  0  0  0
    5.2180   -3.0036   -1.2778 C   0  0  0  0  0  0  0  0  0  0  0  0
    4.8967   -2.9730   -2.4949 O   0  0  0  0  0  0  0  0  0  0  0  0
    5.4016   -4.3417   -0.6020 C   0  0  1  0  0  0  0  0  0  0  0  0
    6.8101   -4.8959   -0.8429 C   0  0  0  0  0  0  0  0  0  0  0  0
    5.1491   -4.2322    0.8382 N   0  0  0  0  0  0  0  0  0  0  0  0
    3.8702   -4.4607    1.4563 C   0  0  0  0  0  0  0  0  0  0  0  0
    3.6376   -3.9279    2.5734 O   0  0  0  0  0  0  0  0  0  0  0  0
    2.7958   -5.3059    0.7981 C   0  0  1  0  0  0  0  0  0  0  0  0
    1.8214   -5.9020    1.8288 C   0  0  0  0  0  0  0  0  0  0  0  0
    2.0442   -4.5518   -0.2076 N   0  0  0  0  0  0  0  0  0  0  0  0
    1.5360   -3.2391    0.0667 C   0  0  0  0  0  0  0  0  0  0  0  0
    2.3192   -2.2513    0.0562 O   0  0  0  0  0  0  0  0  0  0  0  0
    0.0642   -3.0514    0.3380 C   0  0  1  0  0  0  0  0  0  0  0  0
   -0.1823   -2.0417    1.4972 C   0  0  0  0  0  0  0  0  0  0  0  0
   -0.9808   -0.4474    1.0447 S   0  0  0  0  0  0  0  0  0  0  0  0
    0.4334    0.2604    0.1109 C   0  0  0  0  0  0  0  0  0  0  0  0
   -0.6435   -2.7020   -0.9039 N   0  0  0  0  0  0  0  0  0  0  0  0
   -2.0556   -2.8639   -1.1172 C   0  0  0  0  0  0  0  0  0  0  0  0
   -2.6655   -1.9858   -1.7776 O   0  0  0  0  0  0  0  0  0  0  0  0
   -2.7808   -4.1507   -0.7948 C   0  0  1  0  0  0  0  0  0  0  0  0
   -2.1501   -5.3026   -1.5816 C   0  0  0  0  0  0  0  0  0  0  0  0
   -2.7856   -4.4597    0.6452 N   0  0  0  0  0  0  0  0  0  0  0  0
   -3.5567   -3.8204    1.6827 C   0  0  0  0  0  0  0  0  0  0  0  0
   -3.1955   -3.9937    2.8777 O   0  0  0  0  0  0  0  0  0  0  0  0
   -4.7870   -2.9639    1.4471 C   0  0  1  0  0  0  0  0  0  0  0  0
   -4.3951   -1.4977    1.2688 C   0  0  0  0  0  0  0  0  0  0  0  0
   -5.6108   -3.4675    0.3444 N   0  0  0  0  0  0  0  0  0  0  0  0
   -6.7990   -2.7823   -0.0818 C   0  0  0  0  0  0  0  0  0  0  0  0
   -7.9173   -3.1737    0.3461 O   0  0  0  0  0  0  0  0  0  0  0  0
   -6.7321   -1.6994   -1.1401 C   0  0  1  0  0  0  0  0  0  0  0  0
   -6.5176   -2.3221   -2.5209 C   0  0  0  0  0  0  0  0  0  0  0  0
   -7.9677   -0.9054   -1.1323 N   0  0  0  0  0  0  0  0  0  0  0  0
   -8.0523    0.4668   -0.7108 C   0  0  0  0  0  0  0  0  0  0  0  0
   -9.0731    0.8325   -0.0696 O   0  0  0  0  0  0  0  0  0  0  0  0
   -7.0426    1.5080   -1.1590 C   0  0  1  0  0  0  0  0  0  0  0  0
   -7.2237    1.7850   -2.6543 C   0  0  0  0  0  0  0  0  0  0  0  0
   -7.2227    2.7626   -0.4143 N   0  0  0  0  0  0  0  0  0  0  0  0
   -6.1510    3.6187    0.0369 C   0  0  0  0  0  0  0  0  0  0  0  0
   -6.3683    4.8548    0.1334 O   0  0  0  0  0  0  0  0  0  0  0  0
   -7.2905    3.7719    2.6239 H   0  0  0  0  0  0  0  0  0  0  0  0
   -6.5566    4.0442    4.2276 H   0  0  0  0  0  0  0  0  0  0  0  0
   -5.8010    4.7956    2.7905 H   0  0  0  0  0  0  0  0  0  0  0  0
   -4.6015    1.2574    1.6582 H   0  0  0  0  0  0  0  0  0  0  0  0
   -4.4367    2.3901   -0.3102 H   0  0  0  0  0  0  0  0  0  0  0  0
   -3.9664    4.7964    1.5180 H   0  0  0  0  0  0  0  0  0  0  0  0
   -2.7631    3.5975    1.0096 H   0  0  0  0  0  0  0  0  0  0  0  0
   -2.3467    4.3199   -2.8295 H   0  0  0  0  0  0  0  0  0  0  0  0
   -3.1991    3.0151   -2.0038 H   0  0  0  0  0  0  0  0  0  0  0  0
   -1.8936    1.4588   -0.7627 H   0  0  0  0  0  0  0  0  0  0  0  0
    2.2952    2.1821   -0.1398 H   0  0  0  0  0  0  0  0  0  0  0  0
   -0.2197    5.3094   -1.6958 H   0  0  0  0  0  0  0  0  0  0  0  0
    2.1961    5.4536   -1.8893 H   0  0  0  0  0  0  0  0  0  0  0  0
    3.2431    4.1237   -1.3503 H   0  0  0  0  0  0  0  0  0  0  0  0
    3.9974    4.8095    2.2963 H   0  0  0  0  0  0  0  0  0  0  0  0
    3.6498    3.5322    1.1155 H   0  0  0  0  0  0  0  0  0  0  0  0
    5.3158    4.4475   -0.4623 H   0  0  0  0  0  0  0  0  0  0  0  0
    5.8642    6.4231    2.7769 H   0  0  0  0  0  0  0  0  0  0  0  0
    6.3084    7.9070    1.8506 H   0  0  0  0  0  0  0  0  0  0  0  0
    6.4139    4.1114    2.3689 H   0  0  0  0  0  0  0  0  0  0  0  0
    6.0556    2.3803   -0.8557 H   0  0  0  0  0  0  0  0  0  0  0  0
    7.3486    4.2978   -1.7578 H   0  0  0  0  0  0  0  0  0  0  0  0
    7.7146    2.8035   -2.6836 H   0  0  0  0  0  0  0  0  0  0  0  0
    8.9008    3.4191   -1.4719 H   0  0  0  0  0  0  0  0  0  0  0  0
    8.6661    0.9288   -0.2364 H   0  0  0  0  0  0  0  0  0  0  0  0
    7.4626   -1.9706   -0.3731 H   0  0  0  0  0  0  0  0  0  0  0  0
    7.6908   -0.5081    1.5783 H   0  0  0  0  0  0  0  0  0  0  0  0
    5.9728    0.0557    1.4293 H   0  0  0  0  0  0  0  0  0  0  0  0
    6.3432   -1.6485    1.9025 H   0  0  0  0  0  0  0  0  0  0  0  0
    4.5478   -1.1017   -0.5941 H   0  0  0  0  0  0  0  0  0  0  0  0
    4.6926   -5.0527   -1.0676 H   0  0  0  0  0  0  0  0  0  0  0  0
    6.8680   -5.9353   -0.4477 H   0  0  0  0  0  0  0  0  0  0  0  0
    7.5801   -4.2858   -0.3263 H   0  0  0  0  0  0  0  0  0  0  0  0
    7.0358   -4.9261   -1.9299 H   0  0  0  0  0  0  0  0  0  0  0  0
    5.8996   -3.8230    1.4400 H   0  0  0  0  0  0  0  0  0  0  0  0
    3.2863   -6.1676    0.2976 H   0  0  0  0  0  0  0  0  0  0  0  0
    1.0663   -6.5361    1.3098 H   0  0  0  0  0  0  0  0  0  0  0  0
    1.2850   -5.0964    2.3785 H   0  0  0  0  0  0  0  0  0  0  0  0
    2.3727   -6.5384    2.5567 H   0  0  0  0  0  0  0  0  0  0  0  0
    1.4612   -5.1275   -0.8491 H   0  0  0  0  0  0  0  0  0  0  0  0
   -0.2881   -4.0447    0.6808 H   0  0  0  0  0  0  0  0  0  0  0  0
   -0.8658   -2.5248    2.2335 H   0  0  0  0  0  0  0  0  0  0  0  0
    0.7511   -1.8279    2.0614 H   0  0  0  0  0  0  0  0  0  0  0  0
    1.3625    0.1749    0.7213 H   0  0  0  0  0  0  0  0  0  0  0  0
    0.5878   -0.3102   -0.8259 H   0  0  0  0  0  0  0  0  0  0  0  0
   -0.1000   -2.2684   -1.6840 H   0  0  0  0  0  0  0  0  0  0  0  0
   -3.8182   -4.0743   -1.1590 H   0  0  0  0  0  0  0  0  0  0  0  0
   -1.0845   -5.4489   -1.2901 H   0  0  0  0  0  0  0  0  0  0  0  0
   -2.6992   -6.2536   -1.3834 H   0  0  0  0  0  0  0  0  0  0  0  0
   -2.1906   -5.1003   -2.6771 H   0  0  0  0  0  0  0  0  0  0  0  0
   -2.1635   -5.2326    0.9681 H   0  0  0  0  0  0  0  0  0  0  0  0
   -5.4063   -3.0166    2.3685 H   0  0  0  0  0  0  0  0  0  0  0  0
   -3.8917   -1.3386    0.3023 H   0  0  0  0  0  0  0  0  0  0  0  0
   -5.3086   -0.8681    1.3195 H   0  0  0  0  0  0  0  0  0  0  0  0
   -3.7231   -1.1754    2.0918 H   0  0  0  0  0  0  0  0  0  0  0  0
   -5.6587   -4.5107    0.2447 H   0  0  0  0  0  0  0  0  0  0  0  0
   -5.8568   -1.0540   -0.9335 H   0  0  0  0  0  0  0  0  0  0  0  0
   -6.4763   -1.5258   -3.2918 H   0  0  0  0  0  0  0  0  0  0  0  0
   -5.5534   -2.8783   -2.5461 H   0  0  0  0  0  0  0  0  0  0  0  0
   -7.3445   -3.0171   -2.7662 H   0  0  0  0  0  0  0  0  0  0  0  0
   -8.8715   -1.4199   -1.2716 H   0  0  0  0  0  0  0  0  0  0  0  0
   -6.0246    1.1050   -1.0051 H   0  0  0  0  0  0  0  0  0  0  0  0
   -8.2390    2.2159   -2.8479 H   0  0  0  0  0  0  0  0  0  0  0  0
   -7.1145    0.8523   -3.2468 H   0  0  0  0  0  0  0  0  0  0  0  0
   -6.4627    2.5201   -2.9980 H   0  0  0  0  0  0  0  0  0  0  0  0
   -8.1732    3.1987   -0.4447 H   0  0  0  0  0  0  0  0  0  0  0  0
  1  2  1  0
  2  3  2  0
  2  4  1  0
  4  5  1  0
  5  6  1  0
  6  7  1  0
  7  8  1  0
  8  9  1  0
  9 10  2  0
 10 11  1  0
 11 12  2  0
 12 13  1  0
 13 14  2  0
 13 15  1  0
 15 16  1  0
 16 17  1  0
 17 18  1  0
 18 19  1  0
 19 20  1  0
 19 21  2  0
 18 22  1  0
 22 23  1  0
 23 24  2  0
 23 25  1  0
 25 26  1  0
 25 27  1  0
 27 28  1  0
 28 29  2  0
 28 30  1  0
 30 31  1  0
 30 32  1  0
 32 33  1  0
 33 34  2  0
 33 35  1  0
 35 36  1  0
 35 37  1  0
 37 38  1  0
 38 39  2  0
 38 40  1  0
 40 41  1  0
 40 42  1  0
 42 43  1  0
 43 44  2  0
 43 45  1  0
 45 46  1  0
 46 47  1  0
 47 48  1  0
 45 49  1  0
 49 50  1  0
 50 51  2  0
 50 52  1  0
 52 53  1  0
 52 54  1  0
 54 55  1  0
 55 56  2  0
 55 57  1  0
 57 58  1  0
 57 59  1  0
 59 60  1  0
 60 61  2  0
 60 62  1  0
 62 63  1  0
 62 64  1  0
 64 65  1  0
 65 66  2  0
 65 67  1  0
 67 68  1  0
 67 69  1  0
 69 70  1  0
 70 71  2  0
 70  5  1  0
 14  9  1  0
 48 11  1  0
  1 72  1  0
  1 73  1  0
  1 74  1  0
  4 75  1  0
  5 76  1  6
  6 77  1  0
  6 78  1  0
  8 79  1  0
  8 80  1  0
 10 81  1  0
 12 82  1  0
 14 83  1  0
 15 84  1  0
 15 85  1  0
 17 86  1  0
 17 87  1  0
 18 88  1  6
 20 89  1  0
 20 90  1  0
 22 91  1  0
 25 92  1  6
 26 93  1  0
 26 94  1  0
 26 95  1  0
 27 96  1  0
 30 97  1  1
 31 98  1  0
 31 99  1  0
 31100  1  0
 32101  1  0
 35102  1  6
 36103  1  0
 36104  1  0
 36105  1  0
 37106  1  0
 40107  1  6
 41108  1  0
 41109  1  0
 41110  1  0
 42111  1  0
 45112  1  1
 46113  1  0
 46114  1  0
 48115  1  0
 48116  1  0
 49117  1  0
 52118  1  6
 53119  1  0
 53120  1  0
 53121  1  0
 54122  1  0
 57123  1  1
 58124  1  0
 58125  1  0
 58126  1  0
 59127  1  0
 62128  1  1
 63129  1  0
 63130  1  0
 63131  1  0
 64132  1  0
 67133  1  6
 68134  1  0
 68135  1  0
 68136  1  0
 69137  1  0
M  END
