
     RDKit          3D

127129  0  0  0  0  0  0  0  0999 V2000
   -5.5340    6.0242    2.4254 C   0  0  0  0  0  0  0  0  0  0  0  0
   -5.5978    6.0326    0.9341 C   0  0  0  0  0  0  0  0  0  0  0  0
   -5.9713    7.0809    0.3424 O   0  0  0  0  0  0  0  0  0  0  0  0
   -5.2563    4.8503    0.1899 N   0  0  0  0  0  0  0  0  0  0  0  0
   -5.2324    4.8295   -1.2771 C   0  0  1  0  0  0  0  0  0  0  0  0
   -3.8641    5.2854   -1.8168 C   0  0  0  0  0  0  0  0  0  0  0  0
   -2.5562    3.9971   -1.8118 S   0  0  0  0  0  0  0  0  0  0  0  0
   -2.1105    4.0897   -0.0448 C   0  0  0  0  0  0  0  0  0  0  0  0
   -0.7183    3.5503    0.1328 C   0  0  0  0  0  0  0  0  0  0  0  0
   -0.5189    2.2219    0.5364 C   0  0  0  0  0  0  0  0  0  0  0  0
    0.7802    1.7021    0.6549 C   0  0  0  0  0  0  0  0  0  0  0  0
    1.8789    2.5109    0.3247 C   0  0  0  0  0  0  0  0  0  0  0  0
    1.6878    3.8387   -0.0980 C   0  0  0  0  0  0  0  0  0  0  0  0
    0.3876    4.3602   -0.1677 C   0  0  0  0  0  0  0  0  0  0  0  0
    2.8606    4.6535   -0.5651 C   0  0  0  0  0  0  0  0  0  0  0  0
    3.9682    5.0287    0.8382 S   0  0  0  0  0  0  0  0  0  0  0  0
    5.4700    5.3203   -0.1689 C   0  0  0  0  0  0  0  0  0  0  0  0
    6.1885    3.9968   -0.4866 C   0  0  1  0  0  0  0  0  0  0  0  0
    7.3191    4.2434   -1.4518 C   0  0  0  0  0  0  0  0  0  0  0  0
    8.5774    4.7474   -1.0038 N   0  0  0  0  0  0  0  0  0  0  0  0
    7.1446    3.9999   -2.6754 O   0  0  0  0  0  0  0  0  0  0  0  0
    6.6897    3.3680    0.7428 N   0  0  0  0  0  0  0  0  0  0  0  0
    7.0056    1.9665    0.8697 C   0  0  0  0  0  0  0  0  0  0  0  0
    7.3157    1.5217    2.0104 O   0  0  0  0  0  0  0  0  0  0  0  0
    6.9674    1.0122   -0.3054 C   0  0  1  0  0  0  0  0  0  0  0  0
    8.2997    0.2746   -0.4708 C   0  0  0  0  0  0  0  0  0  0  0  0
    5.8290    0.0959   -0.1875 N   0  0  0  0  0  0  0  0  0  0  0  0
    5.6368   -0.8078    0.9080 C   0  0  0  0  0  0  0  0  0  0  0  0
    4.6920   -0.5999    1.7201 O   0  0  0  0  0  0  0  0  0  0  0  0
    6.4517   -2.0673    1.0238 C   0  0  1  0  0  0  0  0  0  0  0  0
    7.1498   -2.1288    2.3865 C   0  0  0  0  0  0  0  0  0  0  0  0
    5.5888   -3.2348    0.8346 N   0  0  0  0  0  0  0  0  0  0  0  0
    5.0481   -3.5668   -0.4546 C   0  0  0  0  0  0  0  0  0  0  0  0
    5.2980   -2.8246   -1.4466 O   0  0  0  0  0  0  0  0  0  0  0  0
    4.2662   -4.8426   -0.6932 C   0  0  1  0  0  0  0  0  0  0  0  0
    3.6824   -5.4733    0.5801 C   0  0  0  0  0  0  0  0  0  0  0  0
    3.2231   -4.6361   -1.7207 N   0  0  0  0  0  0  0  0  0  0  0  0
    2.2308   -3.5920   -1.6676 C   0  0  0  0  0  0  0  0  0  0  0  0
    2.1644   -2.7687   -2.6193 O   0  0  0  0  0  0  0  0  0  0  0  0
    1.1919   -3.5456   -0.5749 C   0  0  1  0  0  0  0  0  0  0  0  0
    1.3580   -2.3334    0.3604 C   0  0  0  0  0  0  0  0  0  0  0  0
    1.1390   -0.7336   -0.5010 S   0  0  0  0  0  0  0  0  0  0  0  0
    0.9913    0.2595    1.0204 C   0  0  0  0  0  0  0  0  0  0  0  0
   -0.1556   -3.5781   -1.1548 N   0  0  0  0  0  0  0  0  0  0  0  0
   -0.8901   -4.8030   -1.2742 C   0  0  0  0  0  0  0  0  0  0  0  0
   -0.2696   -5.9011   -1.3703 O   0  0  0  0  0  0  0  0  0  0  0  0
   -2.3931   -4.7745   -1.3468 C   0  0  1  0  0  0  0  0  0  0  0  0
   -2.8693   -4.6283   -2.7930 C   0  0  0  0  0  0  0  0  0  0  0  0
   -2.9460   -5.9997   -0.7630 N   0  0  0  0  0  0  0  0  0  0  0  0
   -3.7697   -5.9971    0.4108 C   0  0  0  0  0  0  0  0  0  0  0  0
   -3.5619   -6.8620    1.3057 O   0  0  0  0  0  0  0  0  0  0  0  0
   -4.8690   -4.9782    0.5940 C   0  0  1  0  0  0  0  0  0  0  0  0
   -6.1186   -5.6422    1.1967 C   0  0  0  0  0  0  0  0  0  0  0  0
   -4.4017   -3.8842    1.4514 N   0  0  0  0  0  0  0  0  0  0  0  0
   -5.0255   -2.5928    1.5644 C   0  0  0  0  0  0  0  0  0  0  0  0
   -4.5355   -1.7563    2.3750 O   0  0  0  0  0  0  0  0  0  0  0  0
   -6.2322   -2.1822    0.7459 C   0  0  1  0  0  0  0  0  0  0  0  0
   -7.4355   -1.8712    1.6468 C   0  0  0  0  0  0  0  0  0  0  0  0
   -5.9103   -1.0574   -0.1421 N   0  0  0  0  0  0  0  0  0  0  0  0
   -5.9901    0.3203    0.2335 C   0  0  0  0  0  0  0  0  0  0  0  0
   -5.6677    0.6791    1.3976 O   0  0  0  0  0  0  0  0  0  0  0  0
   -6.4767    1.3342   -0.7584 C   0  0  1  0  0  0  0  0  0  0  0  0
   -7.6983    2.0597   -0.1762 C   0  0  0  0  0  0  0  0  0  0  0  0
   -5.4064    2.2826   -1.0780 N   0  0  0  0  0  0  0  0  0  0  0  0
   -5.6647    3.4855   -1.8166 C   0  0  0  0  0  0  0  0  0  0  0  0
   -6.2978    3.4275   -2.9079 O   0  0  0  0  0  0  0  0  0  0  0  0
   -4.8399    6.8147    2.7639 H   0  0  0  0  0  0  0  0  0  0  0  0
   -6.5501    6.2118    2.8458 H   0  0  0  0  0  0  0  0  0  0  0  0
   -5.1671    5.0445    2.8071 H   0  0  0  0  0  0  0  0  0  0  0  0
   -5.0150    3.9863    0.7249 H   0  0  0  0  0  0  0  0  0  0  0  0
   -5.9832    5.5615   -1.6469 H   0  0  0  0  0  0  0  0  0  0  0  0
   -3.9918    5.6041   -2.8724 H   0  0  0  0  0  0  0  0  0  0  0  0
   -3.5111    6.1796   -1.2639 H   0  0  0  0  0  0  0  0  0  0  0  0
   -2.1638    5.1363    0.3329 H   0  0  0  0  0  0  0  0  0  0  0  0
   -2.8265    3.4727    0.5396 H   0  0  0  0  0  0  0  0  0  0  0  0
   -1.3733    1.5786    0.7263 H   0  0  0  0  0  0  0  0  0  0  0  0
    2.8828    2.0958    0.3652 H   0  0  0  0  0  0  0  0  0  0  0  0
    0.2270    5.3794   -0.4994 H   0  0  0  0  0  0  0  0  0  0  0  0
    3.3829    4.0690   -1.3484 H   0  0  0  0  0  0  0  0  0  0  0  0
    2.5285    5.6043   -1.0375 H   0  0  0  0  0  0  0  0  0  0  0  0
    5.1914    5.8440   -1.1114 H   0  0  0  0  0  0  0  0  0  0  0  0
    6.1523    5.9943    0.3979 H   0  0  0  0  0  0  0  0  0  0  0  0
    5.4437    3.3169   -0.9597 H   0  0  0  0  0  0  0  0  0  0  0  0
    9.3437    4.9388   -1.6840 H   0  0  0  0  0  0  0  0  0  0  0  0
    8.7492    4.9622    0.0026 H   0  0  0  0  0  0  0  0  0  0  0  0
    6.8254    3.9638    1.5906 H   0  0  0  0  0  0  0  0  0  0  0  0
    6.8382    1.5775   -1.2470 H   0  0  0  0  0  0  0  0  0  0  0  0
    9.0983    0.9956   -0.7396 H   0  0  0  0  0  0  0  0  0  0  0  0
    8.6031   -0.2298    0.4697 H   0  0  0  0  0  0  0  0  0  0  0  0
    8.2165   -0.4787   -1.2829 H   0  0  0  0  0  0  0  0  0  0  0  0
    4.9691    0.3425   -0.7417 H   0  0  0  0  0  0  0  0  0  0  0  0
    7.2357   -2.0923    0.2423 H   0  0  0  0  0  0  0  0  0  0  0  0
    6.4057   -2.1629    3.2129 H   0  0  0  0  0  0  0  0  0  0  0  0
    7.7878   -3.0379    2.4422 H   0  0  0  0  0  0  0  0  0  0  0  0
    7.7998   -1.2403    2.5293 H   0  0  0  0  0  0  0  0  0  0  0  0
    5.5110   -3.9306    1.6115 H   0  0  0  0  0  0  0  0  0  0  0  0
    4.9917   -5.5826   -1.0993 H   0  0  0  0  0  0  0  0  0  0  0  0
    4.4827   -5.9740    1.1607 H   0  0  0  0  0  0  0  0  0  0  0  0
    2.9251   -6.2411    0.3127 H   0  0  0  0  0  0  0  0  0  0  0  0
    3.2099   -4.7045    1.2275 H   0  0  0  0  0  0  0  0  0  0  0  0
    3.4216   -5.0349   -2.6636 H   0  0  0  0  0  0  0  0  0  0  0  0
    1.3046   -4.4402    0.0616 H   0  0  0  0  0  0  0  0  0  0  0  0
    2.3757   -2.3536    0.8212 H   0  0  0  0  0  0  0  0  0  0  0  0
    0.6020   -2.4145    1.1759 H   0  0  0  0  0  0  0  0  0  0  0  0
    1.9155    0.1522    1.6299 H   0  0  0  0  0  0  0  0  0  0  0  0
    0.1329   -0.1064    1.6224 H   0  0  0  0  0  0  0  0  0  0  0  0
   -0.5679   -2.7053   -1.5694 H   0  0  0  0  0  0  0  0  0  0  0  0
   -2.7463   -3.8849   -0.7789 H   0  0  0  0  0  0  0  0  0  0  0  0
   -2.5916   -5.5227   -3.3947 H   0  0  0  0  0  0  0  0  0  0  0  0
   -2.4255   -3.7237   -3.2547 H   0  0  0  0  0  0  0  0  0  0  0  0
   -3.9766   -4.5104   -2.8033 H   0  0  0  0  0  0  0  0  0  0  0  0
   -2.5945   -6.9234   -1.1017 H   0  0  0  0  0  0  0  0  0  0  0  0
   -5.1238   -4.5864   -0.4194 H   0  0  0  0  0  0  0  0  0  0  0  0
   -6.4488   -6.4859    0.5536 H   0  0  0  0  0  0  0  0  0  0  0  0
   -5.9006   -6.0292    2.2178 H   0  0  0  0  0  0  0  0  0  0  0  0
   -6.9568   -4.9280    1.2748 H   0  0  0  0  0  0  0  0  0  0  0  0
   -3.6465   -4.0957    2.1493 H   0  0  0  0  0  0  0  0  0  0  0  0
   -6.5663   -3.0127    0.1017 H   0  0  0  0  0  0  0  0  0  0  0  0
   -7.7725   -2.7892    2.1771 H   0  0  0  0  0  0  0  0  0  0  0  0
   -8.2803   -1.4964    1.0236 H   0  0  0  0  0  0  0  0  0  0  0  0
   -7.1936   -1.0975    2.4127 H   0  0  0  0  0  0  0  0  0  0  0  0
   -5.6241   -1.2868   -1.1242 H   0  0  0  0  0  0  0  0  0  0  0  0
   -6.7961    0.8168   -1.6948 H   0  0  0  0  0  0  0  0  0  0  0  0
   -8.1586    2.7337   -0.9329 H   0  0  0  0  0  0  0  0  0  0  0  0
   -7.4128    2.6674    0.7105 H   0  0  0  0  0  0  0  0  0  0  0  0
   -8.4739    1.3250    0.1255 H   0  0  0  0  0  0  0  0  0  0  0  0
   -4.4119    1.9459   -1.0580 H   0  0  0  0  0  0  0  0  0  0  0  0
  1  2  1  0
  2  3  2  0
  2  4  1  0
  4  5  1  0
  5  6  1  0
  6  7  1  0
  7  8  1  0
  8  9  1  0
  9 10  2  0
 10 11  1  0
 11 12  2  0
 12 13  1  0
 13 14  2  0
 13 15  1  0
 15 16  1  0
 16 17  1  0
 17 18  1  0
 18 19  1  0
 19 20  1  0
 19 21  2  0
 18 22  1  0
 22 23  1  0
 23 24  2  0
 23 25  1  0
 25 26  1  0
 25 27  1  0
 27 28  1  0
 28 29  2  0
 28 30  1  0
 30 31  1  0
 30 32  1  0
 32 33  1  0
 33 34  2  0
 33 35  1  0
 35 36  1  0
 35 37  1  0
 37 38  1  0
 38 39  2  0
 38 40  1  0
 40 41  1  0
 41 42  1  0
 42 43  1  0
 40 44  1  0
 44 45  1  0
 45 46  2  0
 45 47  1  0
 47 48  1  0
 47 49  1  0
 49 50  1  0
 50 51  2  0
 50 52  1  0
 52 53  1  0
 52 54  1  0
 54 55  1  0
 55 56  2  0
 55 57  1  0
 57 58  1  0
 57 59  1  0
 59 60  1  0
 60 61  2  0
 60 62  1  0
 62 63  1  0
 62 64  1  0
 64 65  1  0
 65 66  2  0
 65  5  1  0
 14  9  1  0
 43 11  1  0
  1 67  1  0
  1 68  1  0
  1 69  1  0
  4 70  1  0
  5 71  1  6
  6 72  1  0
  6 73  1  0
  8 74  1  0
  8 75  1  0
 10 76  1  0
 12 77  1  0
 14 78  1  0
 15 79  1  0
 15 80  1  0
 17 81  1  0
 17 82  1  0
 18 83  1  6
 20 84  1  0
 20 85  1  0
 22 86  1  0
 25 87  1  6
 26 88  1  0
 26 89  1  0
 26 90  1  0
 27 91  1  0
 30 92  1  6
 31 93  1  0
 31 94  1  0
 31 95  1  0
 32 96  1  0
 35 97  1  6
 36 98  1  0
 36 99  1  0
 36100  1  0
 37101  1  0
 40102  1  1
 41103  1  0
 41104  1  0
 43105  1  0
 43106  1  0
 44107  1  0
 47108  1  1
 48109  1  0
 48110  1  0
 48111  1  0
 49112  1  0
 52113  1  6
 53114  1  0
 53115  1  0
 53116  1  0
 54117  1  0
 57118  1  6
 58119  1  0
 58120  1  0
 58121  1  0
 59122  1  0
 62123  1  6
 63124  1  0
 63125  1  0
 63126  1  0
 64127  1  0
M  END
