
     RDKit          3D

137139  0  0  0  0  0  0  0  0999 V2000
   10.9928   -2.1759    0.1824 C   0  0  0  0  0  0  0  0  0  0  0  0
    9.6387   -1.6570   -0.1912 C   0  0  0  0  0  0  0  0  0  0  0  0
    9.3831   -1.4313   -1.4045 O   0  0  0  0  0  0  0  0  0  0  0  0
    8.6460   -1.4201    0.8240 N   0  0  0  0  0  0  0  0  0  0  0  0
    7.2975   -0.9149    0.5268 C   0  0  1  0  0  0  0  0  0  0  0  0
    6.2546   -2.0338    0.6900 C   0  0  0  0  0  0  0  0  0  0  0  0
    6.6871   -3.5387   -0.2766 S   0  0  0  0  0  0  0  0  0  0  0  0
    5.9839   -3.0064   -1.8852 C   0  0  0  0  0  0  0  0  0  0  0  0
    4.4772   -2.9836   -1.8413 C   0  0  0  0  0  0  0  0  0  0  0  0
    3.7849   -1.7903   -2.0794 C   0  0  0  0  0  0  0  0  0  0  0  0
    2.3938   -1.7269   -1.9194 C   0  0  0  0  0  0  0  0  0  0  0  0
    1.6863   -2.9021   -1.6169 C   0  0  0  0  0  0  0  0  0  0  0  0
    2.3577   -4.1307   -1.4505 C   0  0  0  0  0  0  0  0  0  0  0  0
    3.7573   -4.1464   -1.5323 C   0  0  0  0  0  0  0  0  0  0  0  0
    1.6467   -5.4636   -1.3043 C   0  0  0  0  0  0  0  0  0  0  0  0
   -0.1567   -5.3635   -0.9685 S   0  0  0  0  0  0  0  0  0  0  0  0
   -0.0701   -5.8360    0.7950 C   0  0  0  0  0  0  0  0  0  0  0  0
   -1.4915   -5.9230    1.3691 C   0  0  1  0  0  0  0  0  0  0  0  0
   -1.4625   -6.4504    2.7857 C   0  0  0  0  0  0  0  0  0  0  0  0
   -1.3753   -7.8536    3.0250 N   0  0  0  0  0  0  0  0  0  0  0  0
   -1.5332   -5.6571    3.7647 O   0  0  0  0  0  0  0  0  0  0  0  0
   -2.1244   -4.5969    1.3320 N   0  0  0  0  0  0  0  0  0  0  0  0
   -3.2207   -4.2017    0.4891 C   0  0  0  0  0  0  0  0  0  0  0  0
   -3.4910   -2.9694    0.4333 O   0  0  0  0  0  0  0  0  0  0  0  0
   -4.0349   -5.2080   -0.3265 C   0  0  1  0  0  0  0  0  0  0  0  0
   -4.8846   -6.1104    0.5750 C   0  0  0  0  0  0  0  0  0  0  0  0
   -4.8949   -4.6248   -1.3771 N   0  0  0  0  0  0  0  0  0  0  0  0
   -5.3568   -3.2724   -1.4708 C   0  0  0  0  0  0  0  0  0  0  0  0
   -4.6973   -2.4469   -2.1661 O   0  0  0  0  0  0  0  0  0  0  0  0
   -6.6456   -2.8308   -0.8353 C   0  0  1  0  0  0  0  0  0  0  0  0
   -7.7470   -3.8668   -1.0403 C   0  0  0  0  0  0  0  0  0  0  0  0
   -6.4408   -2.5988    0.6010 N   0  0  0  0  0  0  0  0  0  0  0  0
   -6.5262   -1.3214    1.2451 C   0  0  0  0  0  0  0  0  0  0  0  0
   -5.7869   -1.1038    2.2482 O   0  0  0  0  0  0  0  0  0  0  0  0
   -7.4231   -0.2090    0.7502 C   0  0  1  0  0  0  0  0  0  0  0  0
   -8.2532    0.3291    1.9268 C   0  0  0  0  0  0  0  0  0  0  0  0
   -6.5919    0.8429    0.1455 N   0  0  0  0  0  0  0  0  0  0  0  0
   -7.0410    2.1927   -0.0335 C   0  0  0  0  0  0  0  0  0  0  0  0
   -8.2129    2.4055   -0.4574 O   0  0  0  0  0  0  0  0  0  0  0  0
   -6.1100    3.3580    0.2228 C   0  0  1  0  0  0  0  0  0  0  0  0
   -6.7839    4.3796    1.1464 C   0  0  0  0  0  0  0  0  0  0  0  0
   -4.8701    2.8938    0.8584 N   0  0  0  0  0  0  0  0  0  0  0  0
   -3.5468    3.4048    0.6058 C   0  0  0  0  0  0  0  0  0  0  0  0
   -2.7128    3.3954    1.5557 O   0  0  0  0  0  0  0  0  0  0  0  0
   -3.0718    3.8959   -0.7479 C   0  0  1  0  0  0  0  0  0  0  0  0
   -3.3847    2.9035   -1.8760 C   0  0  0  0  0  0  0  0  0  0  0  0
   -3.5968    5.2306   -1.0506 N   0  0  0  0  0  0  0  0  0  0  0  0
   -3.0552    6.4274   -0.4727 C   0  0  0  0  0  0  0  0  0  0  0  0
   -3.8414    7.3582   -0.1455 O   0  0  0  0  0  0  0  0  0  0  0  0
   -1.5628    6.6022   -0.2738 C   0  0  1  0  0  0  0  0  0  0  0  0
   -1.1498    8.0772   -0.3814 C   0  0  0  0  0  0  0  0  0  0  0  0
   -1.1737    6.0723    1.0363 N   0  0  0  0  0  0  0  0  0  0  0  0
    0.0348    5.3319    1.2920 C   0  0  0  0  0  0  0  0  0  0  0  0
    0.0689    4.5767    2.2996 O   0  0  0  0  0  0  0  0  0  0  0  0
    1.2902    5.5204    0.4621 C   0  0  1  0  0  0  0  0  0  0  0  0
    2.3734    6.2657    1.2533 C   0  0  0  0  0  0  0  0  0  0  0  0
    1.8012    4.2522   -0.0721 N   0  0  0  0  0  0  0  0  0  0  0  0
    2.5470    3.2948    0.6962 C   0  0  0  0  0  0  0  0  0  0  0  0
    2.2470    3.0768    1.8995 O   0  0  0  0  0  0  0  0  0  0  0  0
    3.7074    2.5428    0.0817 C   0  0  1  0  0  0  0  0  0  0  0  0
    3.2636    1.5314   -0.9904 C   0  0  0  0  0  0  0  0  0  0  0  0
    1.7770    0.5670   -0.5194 S   0  0  0  0  0  0  0  0  0  0  0  0
    1.6714   -0.4116   -2.0688 C   0  0  0  0  0  0  0  0  0  0  0  0
    4.6526    3.5077   -0.5060 N   0  0  0  0  0  0  0  0  0  0  0  0
    6.0887    3.3859   -0.5221 C   0  0  0  0  0  0  0  0  0  0  0  0
    6.7690    4.4351   -0.7180 O   0  0  0  0  0  0  0  0  0  0  0  0
    6.8019    2.0515   -0.3627 C   0  0  1  0  0  0  0  0  0  0  0  0
    8.2770    2.1503   -0.7889 C   0  0  0  0  0  0  0  0  0  0  0  0
    6.7102    1.5786    1.0228 N   0  0  0  0  0  0  0  0  0  0  0  0
    6.9832    0.2353    1.4679 C   0  0  0  0  0  0  0  0  0  0  0  0
    6.9589    0.0018    2.7092 O   0  0  0  0  0  0  0  0  0  0  0  0
   11.0663   -2.3547    1.2757 H   0  0  0  0  0  0  0  0  0  0  0  0
   11.1850   -3.1325   -0.3490 H   0  0  0  0  0  0  0  0  0  0  0  0
   11.7699   -1.4373   -0.1067 H   0  0  0  0  0  0  0  0  0  0  0  0
    8.8728   -1.6870    1.8101 H   0  0  0  0  0  0  0  0  0  0  0  0
    7.2431   -0.5758   -0.5241 H   0  0  0  0  0  0  0  0  0  0  0  0
    6.1999   -2.3438    1.7540 H   0  0  0  0  0  0  0  0  0  0  0  0
    5.2516   -1.6617    0.4049 H   0  0  0  0  0  0  0  0  0  0  0  0
    6.4033   -2.0174   -2.1655 H   0  0  0  0  0  0  0  0  0  0  0  0
    6.3092   -3.7281   -2.6655 H   0  0  0  0  0  0  0  0  0  0  0  0
    4.3309   -0.9140   -2.3961 H   0  0  0  0  0  0  0  0  0  0  0  0
    0.6084   -2.8499   -1.5470 H   0  0  0  0  0  0  0  0  0  0  0  0
    4.2959   -5.0740   -1.3814 H   0  0  0  0  0  0  0  0  0  0  0  0
    1.7575   -5.9996   -2.2720 H   0  0  0  0  0  0  0  0  0  0  0  0
    2.1587   -6.0776   -0.5263 H   0  0  0  0  0  0  0  0  0  0  0  0
    0.4273   -6.8262    0.8819 H   0  0  0  0  0  0  0  0  0  0  0  0
    0.5265   -5.0835    1.3592 H   0  0  0  0  0  0  0  0  0  0  0  0
   -2.0554   -6.6560    0.7571 H   0  0  0  0  0  0  0  0  0  0  0  0
   -1.2789   -8.5296    2.2337 H   0  0  0  0  0  0  0  0  0  0  0  0
   -1.3882   -8.2207    4.0015 H   0  0  0  0  0  0  0  0  0  0  0  0
   -1.6695   -3.8376    1.8929 H   0  0  0  0  0  0  0  0  0  0  0  0
   -3.3014   -5.8558   -0.8548 H   0  0  0  0  0  0  0  0  0  0  0  0
   -5.4097   -6.8728   -0.0445 H   0  0  0  0  0  0  0  0  0  0  0  0
   -4.2626   -6.6386    1.3230 H   0  0  0  0  0  0  0  0  0  0  0  0
   -5.6545   -5.5309    1.1190 H   0  0  0  0  0  0  0  0  0  0  0  0
   -5.1444   -5.2503   -2.1791 H   0  0  0  0  0  0  0  0  0  0  0  0
   -6.9638   -1.8991   -1.3415 H   0  0  0  0  0  0  0  0  0  0  0  0
   -7.8406   -4.1455   -2.1182 H   0  0  0  0  0  0  0  0  0  0  0  0
   -8.7242   -3.4512   -0.7045 H   0  0  0  0  0  0  0  0  0  0  0  0
   -7.5409   -4.7886   -0.4433 H   0  0  0  0  0  0  0  0  0  0  0  0
   -6.0859   -3.3852    1.1857 H   0  0  0  0  0  0  0  0  0  0  0  0
   -8.1457   -0.5998   -0.0047 H   0  0  0  0  0  0  0  0  0  0  0  0
   -8.7551   -0.5089    2.4611 H   0  0  0  0  0  0  0  0  0  0  0  0
   -9.0480    1.0152    1.5628 H   0  0  0  0  0  0  0  0  0  0  0  0
   -7.6099    0.8789    2.6472 H   0  0  0  0  0  0  0  0  0  0  0  0
   -5.6022    0.6137   -0.1213 H   0  0  0  0  0  0  0  0  0  0  0  0
   -5.9108    3.8479   -0.7437 H   0  0  0  0  0  0  0  0  0  0  0  0
   -6.0850    5.2210    1.3404 H   0  0  0  0  0  0  0  0  0  0  0  0
   -7.0571    3.9069    2.1142 H   0  0  0  0  0  0  0  0  0  0  0  0
   -7.6971    4.7905    0.6713 H   0  0  0  0  0  0  0  0  0  0  0  0
   -4.9788    2.3347    1.7382 H   0  0  0  0  0  0  0  0  0  0  0  0
   -1.9602    3.9466   -0.7134 H   0  0  0  0  0  0  0  0  0  0  0  0
   -2.8881    1.9316   -1.6672 H   0  0  0  0  0  0  0  0  0  0  0  0
   -4.4696    2.7234   -1.9879 H   0  0  0  0  0  0  0  0  0  0  0  0
   -2.9954    3.2979   -2.8391 H   0  0  0  0  0  0  0  0  0  0  0  0
   -4.5261    5.3228   -1.5214 H   0  0  0  0  0  0  0  0  0  0  0  0
   -1.0482    6.0442   -1.0898 H   0  0  0  0  0  0  0  0  0  0  0  0
   -1.4393    8.4837   -1.3781 H   0  0  0  0  0  0  0  0  0  0  0  0
   -0.0481    8.1817   -0.2771 H   0  0  0  0  0  0  0  0  0  0  0  0
   -1.6353    8.6823    0.4168 H   0  0  0  0  0  0  0  0  0  0  0  0
   -1.8448    6.1754    1.8305 H   0  0  0  0  0  0  0  0  0  0  0  0
    1.0688    6.1727   -0.4111 H   0  0  0  0  0  0  0  0  0  0  0  0
    2.6170    5.7378    2.1991 H   0  0  0  0  0  0  0  0  0  0  0  0
    2.0294    7.2955    1.5021 H   0  0  0  0  0  0  0  0  0  0  0  0
    3.3005    6.3454    0.6401 H   0  0  0  0  0  0  0  0  0  0  0  0
    1.8396    4.1651   -1.1166 H   0  0  0  0  0  0  0  0  0  0  0  0
    4.2146    1.9869    0.9000 H   0  0  0  0  0  0  0  0  0  0  0  0
    4.0948    0.8056   -1.0944 H   0  0  0  0  0  0  0  0  0  0  0  0
    3.1033    2.0386   -1.9721 H   0  0  0  0  0  0  0  0  0  0  0  0
    2.0787    0.1511   -2.9383 H   0  0  0  0  0  0  0  0  0  0  0  0
    0.5952   -0.5925   -2.2879 H   0  0  0  0  0  0  0  0  0  0  0  0
    4.2751    4.3860   -0.9253 H   0  0  0  0  0  0  0  0  0  0  0  0
    6.2938    1.3326   -1.0344 H   0  0  0  0  0  0  0  0  0  0  0  0
    8.8215    2.8487   -0.1228 H   0  0  0  0  0  0  0  0  0  0  0  0
    8.3441    2.5063   -1.8391 H   0  0  0  0  0  0  0  0  0  0  0  0
    8.7720    1.1670   -0.7292 H   0  0  0  0  0  0  0  0  0  0  0  0
    6.5213    2.2909    1.7664 H   0  0  0  0  0  0  0  0  0  0  0  0
  1  2  1  0
  2  3  2  0
  2  4  1  0
  4  5  1  0
  5  6  1  0
  6  7  1  0
  7  8  1  0
  8  9  1  0
  9 10  1  0
 10 11  2  0
 11 12  1  0
 12 13  2  0
 13 14  1  0
 13 15  1  0
 15 16  1  0
 16 17  1  0
 17 18  1  0
 18 19  1  0
 19 20  1  0
 19 21  2  0
 18 22  1  0
 22 23  1  0
 23 24  2  0
 23 25  1  0
 25 26  1  0
 25 27  1  0
 27 28  1  0
 28 29  2  0
 28 30  1  0
 30 31  1  0
 30 32  1  0
 32 33  1  0
 33 34  2  0
 33 35  1  0
 35 36  1  0
 35 37  1  0
 37 38  1  0
 38 39  2  0
 38 40  1  0
 40 41  1  0
 40 42  1  0
 42 43  1  0
 43 44  2  0
 43 45  1  0
 45 46  1  0
 45 47  1  0
 47 48  1  0
 48 49  2  0
 48 50  1  0
 50 51  1  0
 50 52  1  0
 52 53  1  0
 53 54  2  0
 53 55  1  0
 55 56  1  0
 55 57  1  0
 57 58  1  0
 58 59  2  0
 58 60  1  0
 60 61  1  0
 61 62  1  0
 62 63  1  0
 60 64  1  0
 64 65  1  0
 65 66  2  0
 65 67  1  0
 67 68  1  0
 67 69  1  0
 69 70  1  0
 70 71  2  0
 70  5  1  0
 14  9  2  0
 63 11  1  0
  1 72  1  0
  1 73  1  0
  1 74  1  0
  4 75  1  0
  5 76  1  6
  6 77  1  0
  6 78  1  0
  8 79  1  0
  8 80  1  0
 10 81  1  0
 12 82  1  0
 14 83  1  0
 15 84  1  0
 15 85  1  0
 17 86  1  0
 17 87  1  0
 18 88  1  6
 20 89  1  0
 20 90  1  0
 22 91  1  0
 25 92  1  6
 26 93  1  0
 26 94  1  0
 26 95  1  0
 27 96  1  0
 30 97  1  6
 31 98  1  0
 31 99  1  0
 31100  1  0
 32101  1  0
 35102  1  6
 36103  1  0
 36104  1  0
 36105  1  0
 37106  1  0
 40107  1  6
 41108  1  0
 41109  1  0
 41110  1  0
 42111  1  0
 45112  1  1
 46113  1  0
 46114  1  0
 46115  1  0
 47116  1  0
 50117  1  6
 51118  1  0
 51119  1  0
 51120  1  0
 52121  1  0
 55122  1  6
 56123  1  0
 56124  1  0
 56125  1  0
 57126  1  0
 60127  1  1
 61128  1  0
 61129  1  0
 63130  1  0
 63131  1  0
 64132  1  0
 67133  1  6
 68134  1  0
 68135  1  0
 68136  1  0
 69137  1  0
M  END
