
     RDKit          3D

127129  0  0  0  0  0  0  0  0999 V2000
   -6.9719    7.9449   -0.2961 C   0  0  0  0  0  0  0  0  0  0  0  0
   -6.3302    6.6367   -0.6221 C   0  0  0  0  0  0  0  0  0  0  0  0
   -6.8202    5.9102   -1.5293 O   0  0  0  0  0  0  0  0  0  0  0  0
   -5.1643    6.2115    0.0944 N   0  0  0  0  0  0  0  0  0  0  0  0
   -4.5509    4.8946   -0.1067 C   0  0  1  0  0  0  0  0  0  0  0  0
   -3.0762    4.9146    0.3328 C   0  0  0  0  0  0  0  0  0  0  0  0
   -2.1001    6.1218   -0.6435 S   0  0  0  0  0  0  0  0  0  0  0  0
   -1.6807    5.0087   -2.0331 C   0  0  0  0  0  0  0  0  0  0  0  0
   -0.5314    4.1062   -1.6748 C   0  0  0  0  0  0  0  0  0  0  0  0
    0.7660    4.6238   -1.5631 C   0  0  0  0  0  0  0  0  0  0  0  0
    1.8476    3.7846   -1.2597 C   0  0  0  0  0  0  0  0  0  0  0  0
    1.6095    2.4240   -0.9935 C   0  0  0  0  0  0  0  0  0  0  0  0
    0.3159    1.8939   -1.1021 C   0  0  0  0  0  0  0  0  0  0  0  0
   -0.7461    2.7352   -1.4575 C   0  0  0  0  0  0  0  0  0  0  0  0
    0.0715    0.4290   -0.8736 C   0  0  0  0  0  0  0  0  0  0  0  0
    0.8592   -0.5448   -2.2066 S   0  0  0  0  0  0  0  0  0  0  0  0
    0.0642   -2.1482   -1.7865 C   0  0  0  0  0  0  0  0  0  0  0  0
    0.9620   -2.9917   -0.8573 C   0  0  1  0  0  0  0  0  0  0  0  0
    0.1553   -3.9335   -0.0765 N   0  0  0  0  0  0  0  0  0  0  0  0
   -0.7768   -4.8668   -0.6485 C   0  0  0  0  0  0  0  0  0  0  0  0
   -0.6337   -5.2499   -1.8387 O   0  0  0  0  0  0  0  0  0  0  0  0
   -1.9991   -5.3316    0.1057 C   0  0  1  0  0  0  0  0  0  0  0  0
   -1.7979   -5.3994    1.6237 C   0  0  0  0  0  0  0  0  0  0  0  0
   -3.1143   -4.4442   -0.2110 N   0  0  0  0  0  0  0  0  0  0  0  0
   -4.2004   -4.8911   -1.0247 C   0  0  0  0  0  0  0  0  0  0  0  0
   -4.0421   -4.9889   -2.2688 O   0  0  0  0  0  0  0  0  0  0  0  0
   -5.4941   -5.3404   -0.3978 C   0  0  1  0  0  0  0  0  0  0  0  0
   -5.5487   -6.8735   -0.3826 C   0  0  0  0  0  0  0  0  0  0  0  0
   -5.6209   -4.8204    0.9708 N   0  0  0  0  0  0  0  0  0  0  0  0
   -5.7878   -3.4277    1.2953 C   0  0  0  0  0  0  0  0  0  0  0  0
   -5.6076   -3.0657    2.4874 O   0  0  0  0  0  0  0  0  0  0  0  0
   -6.2666   -2.4038    0.2830 C   0  0  1  0  0  0  0  0  0  0  0  0
   -7.8000   -2.3394    0.3525 C   0  0  0  0  0  0  0  0  0  0  0  0
   -5.6345   -1.1066    0.5635 N   0  0  0  0  0  0  0  0  0  0  0  0
   -6.1890    0.1783    0.2211 C   0  0  0  0  0  0  0  0  0  0  0  0
   -6.9430    0.2844   -0.7828 O   0  0  0  0  0  0  0  0  0  0  0  0
   -5.9127    1.4169    1.0539 C   0  0  1  0  0  0  0  0  0  0  0  0
   -4.9581    1.1435    2.2266 C   0  0  0  0  0  0  0  0  0  0  0  0
   -5.3828    2.5000    0.2166 N   0  0  0  0  0  0  0  0  0  0  0  0
   -5.2963    3.8543    0.6895 C   0  0  0  0  0  0  0  0  0  0  0  0
   -5.8076    4.1707    1.7993 O   0  0  0  0  0  0  0  0  0  0  0  0
    2.0681   -3.7011   -1.6079 C   0  0  0  0  0  0  0  0  0  0  0  0
    1.8106   -4.4111   -2.6185 O   0  0  0  0  0  0  0  0  0  0  0  0
    3.4353   -3.5089   -1.2289 N   0  0  0  0  0  0  0  0  0  0  0  0
    4.1093   -4.2061   -0.1244 C   0  0  2  0  0  0  0  0  0  0  0  0
    3.1920   -5.1636    0.6524 C   0  0  0  0  0  0  0  0  0  0  0  0
    4.7299   -3.1837    0.8017 C   0  0  0  0  0  0  0  0  0  0  0  0
    3.9912   -2.5669    1.6206 O   0  0  0  0  0  0  0  0  0  0  0  0
    6.1298   -2.8823    0.7717 N   0  0  0  0  0  0  0  0  0  0  0  0
    6.9701   -2.9737   -0.4326 C   0  0  2  0  0  0  0  0  0  0  0  0
    8.1281   -3.9337   -0.1470 C   0  0  0  0  0  0  0  0  0  0  0  0
    7.4492   -1.5916   -0.8174 C   0  0  0  0  0  0  0  0  0  0  0  0
    8.5639   -1.4457   -1.3899 O   0  0  0  0  0  0  0  0  0  0  0  0
    6.5908   -0.4552   -0.6106 N   0  0  0  0  0  0  0  0  0  0  0  0
    7.0790    0.9262   -0.4444 C   0  0  2  0  0  0  0  0  0  0  0  0
    8.2804    0.9836    0.5085 C   0  0  0  0  0  0  0  0  0  0  0  0
    5.9953    1.8312    0.1084 C   0  0  0  0  0  0  0  0  0  0  0  0
    4.9739    1.3271    0.6591 O   0  0  0  0  0  0  0  0  0  0  0  0
    6.1502    3.2584    0.0757 N   0  0  0  0  0  0  0  0  0  0  0  0
    5.7644    4.0810    1.2291 C   0  0  1  0  0  0  0  0  0  0  0  0
    6.5297    5.3870    1.2241 C   0  0  0  0  0  0  0  0  0  0  0  0
    7.5182    5.6591    2.2210 N   0  0  0  0  0  0  0  0  0  0  0  0
    6.3215    6.2443    0.3164 O   0  0  0  0  0  0  0  0  0  0  0  0
    4.2262    4.2743    1.3411 C   0  0  0  0  0  0  0  0  0  0  0  0
    3.4852    5.4744    0.1561 S   0  0  0  0  0  0  0  0  0  0  0  0
    3.2480    4.3335   -1.2519 C   0  0  0  0  0  0  0  0  0  0  0  0
   -7.8135    8.1570   -0.9894 H   0  0  0  0  0  0  0  0  0  0  0  0
   -7.3564    7.9245    0.7455 H   0  0  0  0  0  0  0  0  0  0  0  0
   -6.2238    8.7608   -0.3855 H   0  0  0  0  0  0  0  0  0  0  0  0
   -4.7719    6.8521    0.8212 H   0  0  0  0  0  0  0  0  0  0  0  0
   -4.5919    4.6302   -1.1842 H   0  0  0  0  0  0  0  0  0  0  0  0
   -2.6319    3.9079    0.2430 H   0  0  0  0  0  0  0  0  0  0  0  0
   -3.0074    5.2084    1.4017 H   0  0  0  0  0  0  0  0  0  0  0  0
   -2.5759    4.4322   -2.3367 H   0  0  0  0  0  0  0  0  0  0  0  0
   -1.4008    5.6333   -2.9068 H   0  0  0  0  0  0  0  0  0  0  0  0
    0.9410    5.6725   -1.7524 H   0  0  0  0  0  0  0  0  0  0  0  0
    2.4366    1.7685   -0.7376 H   0  0  0  0  0  0  0  0  0  0  0  0
   -1.7486    2.3310   -1.5562 H   0  0  0  0  0  0  0  0  0  0  0  0
   -1.0184    0.2306   -0.8645 H   0  0  0  0  0  0  0  0  0  0  0  0
    0.4784    0.1236    0.1094 H   0  0  0  0  0  0  0  0  0  0  0  0
   -0.9281   -1.9820   -1.3092 H   0  0  0  0  0  0  0  0  0  0  0  0
   -0.1402   -2.6866   -2.7392 H   0  0  0  0  0  0  0  0  0  0  0  0
    1.4463   -2.2947   -0.1346 H   0  0  0  0  0  0  0  0  0  0  0  0
    0.2489   -3.8859    0.9631 H   0  0  0  0  0  0  0  0  0  0  0  0
   -2.2327   -6.3666   -0.2311 H   0  0  0  0  0  0  0  0  0  0  0  0
   -0.9001   -6.0023    1.8775 H   0  0  0  0  0  0  0  0  0  0  0  0
   -1.6946   -4.3792    2.0640 H   0  0  0  0  0  0  0  0  0  0  0  0
   -2.6895   -5.8777    2.0947 H   0  0  0  0  0  0  0  0  0  0  0  0
   -3.1329   -3.4731    0.1740 H   0  0  0  0  0  0  0  0  0  0  0  0
   -6.3563   -4.9831   -1.0036 H   0  0  0  0  0  0  0  0  0  0  0  0
   -6.5047   -7.2122    0.0594 H   0  0  0  0  0  0  0  0  0  0  0  0
   -5.4797   -7.2734   -1.4158 H   0  0  0  0  0  0  0  0  0  0  0  0
   -4.7112   -7.2900    0.2183 H   0  0  0  0  0  0  0  0  0  0  0  0
   -5.4901   -5.4804    1.7701 H   0  0  0  0  0  0  0  0  0  0  0  0
   -5.9700   -2.7086   -0.7417 H   0  0  0  0  0  0  0  0  0  0  0  0
   -8.2254   -3.3662    0.3227 H   0  0  0  0  0  0  0  0  0  0  0  0
   -8.2142   -1.8004   -0.5198 H   0  0  0  0  0  0  0  0  0  0  0  0
   -8.1290   -1.8433    1.2887 H   0  0  0  0  0  0  0  0  0  0  0  0
   -4.6530   -1.1215    0.9204 H   0  0  0  0  0  0  0  0  0  0  0  0
   -6.8870    1.7410    1.4771 H   0  0  0  0  0  0  0  0  0  0  0  0
   -5.3365    0.3013    2.8456 H   0  0  0  0  0  0  0  0  0  0  0  0
   -4.8815    2.0339    2.8836 H   0  0  0  0  0  0  0  0  0  0  0  0
   -3.9413    0.9071    1.8521 H   0  0  0  0  0  0  0  0  0  0  0  0
   -5.2165    2.3324   -0.8075 H   0  0  0  0  0  0  0  0  0  0  0  0
    4.0396   -2.9981   -1.9094 H   0  0  0  0  0  0  0  0  0  0  0  0
    4.9099   -4.8437   -0.5568 H   0  0  0  0  0  0  0  0  0  0  0  0
    2.6764   -5.8588   -0.0424 H   0  0  0  0  0  0  0  0  0  0  0  0
    3.7979   -5.7736    1.3558 H   0  0  0  0  0  0  0  0  0  0  0  0
    2.4402   -4.6058    1.2436 H   0  0  0  0  0  0  0  0  0  0  0  0
    6.5383   -2.4252    1.6153 H   0  0  0  0  0  0  0  0  0  0  0  0
    6.3941   -3.3604   -1.2964 H   0  0  0  0  0  0  0  0  0  0  0  0
    8.7684   -3.5352    0.6676 H   0  0  0  0  0  0  0  0  0  0  0  0
    8.7476   -4.0827   -1.0588 H   0  0  0  0  0  0  0  0  0  0  0  0
    7.7300   -4.9230    0.1597 H   0  0  0  0  0  0  0  0  0  0  0  0
    5.5697   -0.6594   -0.5004 H   0  0  0  0  0  0  0  0  0  0  0  0
    7.3734    1.3107   -1.4363 H   0  0  0  0  0  0  0  0  0  0  0  0
    9.1631    0.4765    0.0699 H   0  0  0  0  0  0  0  0  0  0  0  0
    8.5826    2.0403    0.7040 H   0  0  0  0  0  0  0  0  0  0  0  0
    8.0404    0.4946    1.4732 H   0  0  0  0  0  0  0  0  0  0  0  0
    6.8749    3.6262   -0.5764 H   0  0  0  0  0  0  0  0  0  0  0  0
    6.0767    3.5268    2.1474 H   0  0  0  0  0  0  0  0  0  0  0  0
    7.8248    4.9208    2.8976 H   0  0  0  0  0  0  0  0  0  0  0  0
    8.0499    6.5609    2.1909 H   0  0  0  0  0  0  0  0  0  0  0  0
    3.6928    3.3087    1.2691 H   0  0  0  0  0  0  0  0  0  0  0  0
    4.0090    4.6670    2.3581 H   0  0  0  0  0  0  0  0  0  0  0  0
    3.4074    4.9112   -2.1807 H   0  0  0  0  0  0  0  0  0  0  0  0
    3.9911    3.5239   -1.2478 H   0  0  0  0  0  0  0  0  0  0  0  0
  1  2  1  0
  2  3  2  0
  2  4  1  0
  4  5  1  0
  5  6  1  0
  6  7  1  0
  7  8  1  0
  8  9  1  0
  9 10  2  0
 10 11  1  0
 11 12  2  0
 12 13  1  0
 13 14  2  0
 13 15  1  0
 15 16  1  0
 16 17  1  0
 17 18  1  0
 18 19  1  0
 19 20  1  0
 20 21  2  0
 20 22  1  0
 22 23  1  0
 22 24  1  0
 24 25  1  0
 25 26  2  0
 25 27  1  0
 27 28  1  0
 27 29  1  0
 29 30  1  0
 30 31  2  0
 30 32  1  0
 32 33  1  0
 32 34  1  0
 34 35  1  0
 35 36  2  0
 35 37  1  0
 37 38  1  0
 37 39  1  0
 39 40  1  0
 40 41  2  0
 18 42  1  0
 42 43  2  0
 42 44  1  0
 44 45  1  0
 45 46  1  0
 45 47  1  0
 47 48  2  0
 47 49  1  0
 49 50  1  0
 50 51  1  0
 50 52  1  0
 52 53  2  0
 52 54  1  0
 54 55  1  0
 55 56  1  0
 55 57  1  0
 57 58  2  0
 57 59  1  0
 59 60  1  0
 60 61  1  0
 61 62  1  0
 61 63  2  0
 60 64  1  0
 64 65  1  0
 65 66  1  0
 40  5  1  0
 14  9  1  0
 66 11  1  0
  1 67  1  0
  1 68  1  0
  1 69  1  0
  4 70  1  0
  5 71  1  6
  6 72  1  0
  6 73  1  0
  8 74  1  0
  8 75  1  0
 10 76  1  0
 12 77  1  0
 14 78  1  0
 15 79  1  0
 15 80  1  0
 17 81  1  0
 17 82  1  0
 18 83  1  1
 19 84  1  0
 22 85  1  6
 23 86  1  0
 23 87  1  0
 23 88  1  0
 24 89  1  0
 27 90  1  6
 28 91  1  0
 28 92  1  0
 28 93  1  0
 29 94  1  0
 32 95  1  6
 33 96  1  0
 33 97  1  0
 33 98  1  0
 34 99  1  0
 37100  1  1
 38101  1  0
 38102  1  0
 38103  1  0
 39104  1  0
 44105  1  0
 45106  1  6
 46107  1  0
 46108  1  0
 46109  1  0
 49110  1  0
 50111  1  6
 51112  1  0
 51113  1  0
 51114  1  0
 54115  1  0
 55116  1  6
 56117  1  0
 56118  1  0
 56119  1  0
 59120  1  0
 60121  1  1
 62122  1  0
 62123  1  0
 64124  1  0
 64125  1  0
 66126  1  0
 66127  1  0
M  END
