
     RDKit          3D

 97 99  0  0  0  0  0  0  0  0999 V2000
    9.6776    2.7151   -0.2364 C   0  0  0  0  0  0  0  0  0  0  0  0
    8.5121    2.1899   -1.0058 C   0  0  0  0  0  0  0  0  0  0  0  0
    8.4840    2.3330   -2.2559 O   0  0  0  0  0  0  0  0  0  0  0  0
    7.4422    1.5212   -0.3253 N   0  0  0  0  0  0  0  0  0  0  0  0
    6.2535    1.0331   -1.0296 C   0  0  2  0  0  0  0  0  0  0  0  0
    5.3296    2.1953   -1.4419 C   0  0  0  0  0  0  0  0  0  0  0  0
    5.1535    3.4523   -0.1157 S   0  0  0  0  0  0  0  0  0  0  0  0
    3.6123    4.2208   -0.7477 C   0  0  0  0  0  0  0  0  0  0  0  0
    2.3546    3.8130   -0.0085 C   0  0  0  0  0  0  0  0  0  0  0  0
    2.3419    2.8813    1.0501 C   0  0  0  0  0  0  0  0  0  0  0  0
    1.1499    2.5908    1.7320 C   0  0  0  0  0  0  0  0  0  0  0  0
   -0.0329    3.2404    1.3596 C   0  0  0  0  0  0  0  0  0  0  0  0
   -0.0666    4.0643    0.2215 C   0  0  0  0  0  0  0  0  0  0  0  0
    1.1383    4.3762   -0.4271 C   0  0  0  0  0  0  0  0  0  0  0  0
   -1.3556    4.6426   -0.3282 C   0  0  0  0  0  0  0  0  0  0  0  0
   -2.9071    3.8826    0.3082 S   0  0  0  0  0  0  0  0  0  0  0  0
   -2.6638    2.2014   -0.3908 C   0  0  0  0  0  0  0  0  0  0  0  0
   -3.6759    1.1771    0.1577 C   0  0  1  0  0  0  0  0  0  0  0  0
   -3.7818    1.2013    1.6694 C   0  0  0  0  0  0  0  0  0  0  0  0
   -4.6534    2.1145    2.3401 N   0  0  0  0  0  0  0  0  0  0  0  0
   -3.0904    0.3999    2.3562 O   0  0  0  0  0  0  0  0  0  0  0  0
   -4.9896    1.3564   -0.4638 N   0  0  0  0  0  0  0  0  0  0  0  0
   -5.8698    0.2435   -0.6402 C   0  0  0  0  0  0  0  0  0  0  0  0
   -6.6697   -0.0581    0.2883 O   0  0  0  0  0  0  0  0  0  0  0  0
   -5.9420   -0.4608   -1.9703 C   0  0  1  0  0  0  0  0  0  0  0  0
   -4.5624   -0.8291   -2.5316 C   0  0  0  0  0  0  0  0  0  0  0  0
   -6.8246   -1.6349   -1.9257 N   0  0  0  0  0  0  0  0  0  0  0  0
   -6.4696   -2.9375   -1.4260 C   0  0  0  0  0  0  0  0  0  0  0  0
   -6.9334   -3.9509   -2.0185 O   0  0  0  0  0  0  0  0  0  0  0  0
   -5.6550   -3.1338   -0.1592 C   0  0  1  0  0  0  0  0  0  0  0  0
   -6.6118   -3.4065    1.0043 C   0  0  0  0  0  0  0  0  0  0  0  0
   -4.7426   -4.2779   -0.3162 N   0  0  0  0  0  0  0  0  0  0  0  0
   -3.3790   -4.3683    0.1575 C   0  0  0  0  0  0  0  0  0  0  0  0
   -2.8410   -5.5128    0.1973 O   0  0  0  0  0  0  0  0  0  0  0  0
   -2.5821   -3.1820    0.6500 C   0  0  1  0  0  0  0  0  0  0  0  0
   -2.7675   -3.0421    2.1632 C   0  0  0  0  0  0  0  0  0  0  0  0
   -1.1721   -3.3568    0.2625 N   0  0  0  0  0  0  0  0  0  0  0  0
   -0.0753   -2.7384    0.9498 C   0  0  0  0  0  0  0  0  0  0  0  0
    0.2323   -3.1208    2.1135 O   0  0  0  0  0  0  0  0  0  0  0  0
    0.7927   -1.7323    0.2229 C   0  0  1  0  0  0  0  0  0  0  0  0
    1.3811   -0.6738    1.1846 C   0  0  0  0  0  0  0  0  0  0  0  0
    0.0751    0.1143    2.1970 S   0  0  0  0  0  0  0  0  0  0  0  0
    1.0969    1.5154    2.7879 C   0  0  0  0  0  0  0  0  0  0  0  0
    1.8495   -2.4621   -0.4934 N   0  0  0  0  0  0  0  0  0  0  0  0
    3.0809   -1.8593   -0.8974 C   0  0  0  0  0  0  0  0  0  0  0  0
    3.0991   -1.0884   -1.9010 O   0  0  0  0  0  0  0  0  0  0  0  0
    4.3570   -2.2350   -0.1891 C   0  0  1  0  0  0  0  0  0  0  0  0
    4.7061   -3.7016   -0.4864 C   0  0  0  0  0  0  0  0  0  0  0  0
    5.4537   -1.3471   -0.5998 N   0  0  0  0  0  0  0  0  0  0  0  0
    5.5163    0.0220   -0.1848 C   0  0  0  0  0  0  0  0  0  0  0  0
    4.9524    0.3859    0.8849 O   0  0  0  0  0  0  0  0  0  0  0  0
   10.6102    2.2351   -0.6023 H   0  0  0  0  0  0  0  0  0  0  0  0
    9.5674    2.5080    0.8475 H   0  0  0  0  0  0  0  0  0  0  0  0
    9.7530    3.8082   -0.3756 H   0  0  0  0  0  0  0  0  0  0  0  0
    7.5155    1.3836    0.7082 H   0  0  0  0  0  0  0  0  0  0  0  0
    6.5823    0.5208   -1.9572 H   0  0  0  0  0  0  0  0  0  0  0  0
    5.7558    2.7015   -2.3351 H   0  0  0  0  0  0  0  0  0  0  0  0
    4.3311    1.7922   -1.7361 H   0  0  0  0  0  0  0  0  0  0  0  0
    3.4878    4.0179   -1.8335 H   0  0  0  0  0  0  0  0  0  0  0  0
    3.7329    5.3192   -0.6356 H   0  0  0  0  0  0  0  0  0  0  0  0
    3.2428    2.3735    1.3575 H   0  0  0  0  0  0  0  0  0  0  0  0
   -0.9363    3.0214    1.9108 H   0  0  0  0  0  0  0  0  0  0  0  0
    1.1281    5.0535   -1.2757 H   0  0  0  0  0  0  0  0  0  0  0  0
   -1.3614    4.5550   -1.4411 H   0  0  0  0  0  0  0  0  0  0  0  0
   -1.3789    5.7187   -0.0644 H   0  0  0  0  0  0  0  0  0  0  0  0
   -1.6415    1.8350   -0.1671 H   0  0  0  0  0  0  0  0  0  0  0  0
   -2.7558    2.2593   -1.4970 H   0  0  0  0  0  0  0  0  0  0  0  0
   -3.2885    0.1726   -0.1322 H   0  0  0  0  0  0  0  0  0  0  0  0
   -5.2629    2.7779    1.8114 H   0  0  0  0  0  0  0  0  0  0  0  0
   -4.6906    2.1378    3.3833 H   0  0  0  0  0  0  0  0  0  0  0  0
   -5.3920    2.3147   -0.5546 H   0  0  0  0  0  0  0  0  0  0  0  0
   -6.3935    0.2709   -2.6729 H   0  0  0  0  0  0  0  0  0  0  0  0
   -4.0097   -1.4988   -1.8470 H   0  0  0  0  0  0  0  0  0  0  0  0
   -3.9547    0.0876   -2.6974 H   0  0  0  0  0  0  0  0  0  0  0  0
   -4.6778   -1.3446   -3.5096 H   0  0  0  0  0  0  0  0  0  0  0  0
   -7.7097   -1.5727   -2.4815 H   0  0  0  0  0  0  0  0  0  0  0  0
   -5.0929   -2.2160    0.0866 H   0  0  0  0  0  0  0  0  0  0  0  0
   -7.3156   -2.5556    1.1401 H   0  0  0  0  0  0  0  0  0  0  0  0
   -7.2024   -4.3339    0.8269 H   0  0  0  0  0  0  0  0  0  0  0  0
   -6.0455   -3.5421    1.9443 H   0  0  0  0  0  0  0  0  0  0  0  0
   -5.1564   -5.1710   -0.6635 H   0  0  0  0  0  0  0  0  0  0  0  0
   -2.9390   -2.2509    0.1642 H   0  0  0  0  0  0  0  0  0  0  0  0
   -2.5063   -3.9931    2.6815 H   0  0  0  0  0  0  0  0  0  0  0  0
   -3.8221   -2.8007    2.4016 H   0  0  0  0  0  0  0  0  0  0  0  0
   -2.1375   -2.2190    2.5740 H   0  0  0  0  0  0  0  0  0  0  0  0
   -0.9961   -3.6278   -0.7378 H   0  0  0  0  0  0  0  0  0  0  0  0
    0.1626   -1.2005   -0.5322 H   0  0  0  0  0  0  0  0  0  0  0  0
    2.1210   -1.1419    1.8651 H   0  0  0  0  0  0  0  0  0  0  0  0
    1.8964    0.1091    0.5918 H   0  0  0  0  0  0  0  0  0  0  0  0
    2.1121    1.1662    3.0720 H   0  0  0  0  0  0  0  0  0  0  0  0
    0.6293    1.9293    3.7109 H   0  0  0  0  0  0  0  0  0  0  0  0
    1.5795   -3.3358   -1.0057 H   0  0  0  0  0  0  0  0  0  0  0  0
    4.2040   -2.1332    0.9095 H   0  0  0  0  0  0  0  0  0  0  0  0
    4.8786   -3.8491   -1.5753 H   0  0  0  0  0  0  0  0  0  0  0  0
    5.6185   -3.9962    0.0667 H   0  0  0  0  0  0  0  0  0  0  0  0
    3.8815   -4.3722   -0.1592 H   0  0  0  0  0  0  0  0  0  0  0  0
    6.1492   -1.6866   -1.3068 H   0  0  0  0  0  0  0  0  0  0  0  0
  1  2  1  0
  2  3  2  0
  2  4  1  0
  4  5  1  0
  5  6  1  0
  6  7  1  0
  7  8  1  0
  8  9  1  0
  9 10  1  0
 10 11  2  0
 11 12  1  0
 12 13  2  0
 13 14  1  0
 13 15  1  0
 15 16  1  0
 16 17  1  0
 17 18  1  0
 18 19  1  0
 19 20  1  0
 19 21  2  0
 18 22  1  0
 22 23  1  0
 23 24  2  0
 23 25  1  0
 25 26  1  0
 25 27  1  0
 27 28  1  0
 28 29  2  0
 28 30  1  0
 30 31  1  0
 30 32  1  0
 32 33  1  0
 33 34  2  0
 33 35  1  0
 35 36  1  0
 35 37  1  0
 37 38  1  0
 38 39  2  0
 38 40  1  0
 40 41  1  0
 41 42  1  0
 42 43  1  0
 40 44  1  0
 44 45  1  0
 45 46  2  0
 45 47  1  0
 47 48  1  0
 47 49  1  0
 49 50  1  0
 50 51  2  0
 50  5  1  0
 14  9  2  0
 43 11  1  0
  1 52  1  0
  1 53  1  0
  1 54  1  0
  4 55  1  0
  5 56  1  6
  6 57  1  0
  6 58  1  0
  8 59  1  0
  8 60  1  0
 10 61  1  0
 12 62  1  0
 14 63  1  0
 15 64  1  0
 15 65  1  0
 17 66  1  0
 17 67  1  0
 18 68  1  1
 20 69  1  0
 20 70  1  0
 22 71  1  0
 25 72  1  6
 26 73  1  0
 26 74  1  0
 26 75  1  0
 27 76  1  0
 30 77  1  1
 31 78  1  0
 31 79  1  0
 31 80  1  0
 32 81  1  0
 35 82  1  6
 36 83  1  0
 36 84  1  0
 36 85  1  0
 37 86  1  0
 40 87  1  6
 41 88  1  0
 41 89  1  0
 43 90  1  0
 43 91  1  0
 44 92  1  0
 47 93  1  1
 48 94  1  0
 48 95  1  0
 48 96  1  0
 49 97  1  0
M  END
