
     RDKit          3D

147149  0  0  0  0  0  0  0  0999 V2000
   -7.2626    3.8176   -3.5288 C   0  0  0  0  0  0  0  0  0  0  0  0
   -7.1116    2.6911   -2.5523 C   0  0  0  0  0  0  0  0  0  0  0  0
   -7.5685    1.5522   -2.8488 O   0  0  0  0  0  0  0  0  0  0  0  0
   -6.4505    2.8794   -1.2920 N   0  0  0  0  0  0  0  0  0  0  0  0
   -6.6381    4.0853   -0.4801 C   0  0  2  0  0  0  0  0  0  0  0  0
   -5.4529    5.0520   -0.6421 C   0  0  0  0  0  0  0  0  0  0  0  0
   -3.9397    4.4726    0.2159 S   0  0  0  0  0  0  0  0  0  0  0  0
   -3.1153    3.7790   -1.2508 C   0  0  0  0  0  0  0  0  0  0  0  0
   -1.7444    3.3173   -0.8627 C   0  0  0  0  0  0  0  0  0  0  0  0
   -1.4367    1.9515   -0.8177 C   0  0  0  0  0  0  0  0  0  0  0  0
   -0.1324    1.5183   -0.5059 C   0  0  0  0  0  0  0  0  0  0  0  0
    0.8610    2.4847   -0.2556 C   0  0  0  0  0  0  0  0  0  0  0  0
    0.5637    3.8561   -0.2978 C   0  0  0  0  0  0  0  0  0  0  0  0
   -0.7424    4.2621   -0.6052 C   0  0  0  0  0  0  0  0  0  0  0  0
    1.6581    4.8811   -0.1799 C   0  0  0  0  0  0  0  0  0  0  0  0
    2.5130    4.7791    1.4373 S   0  0  0  0  0  0  0  0  0  0  0  0
    3.5906    6.2329    1.1404 C   0  0  0  0  0  0  0  0  0  0  0  0
    4.8843    5.8302    0.4003 C   0  0  1  0  0  0  0  0  0  0  0  0
    5.4670    7.0238   -0.3138 C   0  0  0  0  0  0  0  0  0  0  0  0
    5.3635    7.1317   -1.7360 N   0  0  0  0  0  0  0  0  0  0  0  0
    6.0545    7.9302    0.3350 O   0  0  0  0  0  0  0  0  0  0  0  0
    5.8730    5.2823    1.3397 N   0  0  0  0  0  0  0  0  0  0  0  0
    6.9883    4.4728    0.9331 C   0  0  0  0  0  0  0  0  0  0  0  0
    7.9377    4.2952    1.7482 O   0  0  0  0  0  0  0  0  0  0  0  0
    7.0154    3.7907   -0.4218 C   0  0  1  0  0  0  0  0  0  0  0  0
    8.3889    3.2287   -0.8035 C   0  0  0  0  0  0  0  0  0  0  0  0
    5.9760    2.7545   -0.5264 N   0  0  0  0  0  0  0  0  0  0  0  0
    5.4943    1.9352    0.5553 C   0  0  0  0  0  0  0  0  0  0  0  0
    4.2693    1.6318    0.5880 O   0  0  0  0  0  0  0  0  0  0  0  0
    6.4246    1.2788    1.5521 C   0  0  1  0  0  0  0  0  0  0  0  0
    5.9212    1.5076    2.9815 C   0  0  0  0  0  0  0  0  0  0  0  0
    6.5043   -0.1522    1.2555 N   0  0  0  0  0  0  0  0  0  0  0  0
    6.9347   -0.6223   -0.0268 C   0  0  0  0  0  0  0  0  0  0  0  0
    7.7510    0.0626   -0.7028 O   0  0  0  0  0  0  0  0  0  0  0  0
    6.4240   -1.9232   -0.5783 C   0  0  1  0  0  0  0  0  0  0  0  0
    5.8961   -1.7123   -2.0028 C   0  0  0  0  0  0  0  0  0  0  0  0
    7.4923   -2.9358   -0.5525 N   0  0  0  0  0  0  0  0  0  0  0  0
    7.4144   -4.2095   -1.2184 C   0  0  0  0  0  0  0  0  0  0  0  0
    8.3525   -4.5319   -1.9980 O   0  0  0  0  0  0  0  0  0  0  0  0
    6.2942   -5.2058   -0.9911 C   0  0  1  0  0  0  0  0  0  0  0  0
    6.8780   -6.5387   -0.5041 C   0  0  0  0  0  0  0  0  0  0  0  0
    5.3129   -4.7228   -0.0191 N   0  0  0  0  0  0  0  0  0  0  0  0
    3.9895   -5.2680    0.0071 C   0  0  0  0  0  0  0  0  0  0  0  0
    3.7462   -6.2472    0.7660 O   0  0  0  0  0  0  0  0  0  0  0  0
    2.8693   -4.6378   -0.7937 C   0  0  1  0  0  0  0  0  0  0  0  0
    3.0274   -4.8934   -2.2921 C   0  0  0  0  0  0  0  0  0  0  0  0
    1.5736   -5.1694   -0.3593 N   0  0  0  0  0  0  0  0  0  0  0  0
    0.7808   -4.5423    0.6564 C   0  0  0  0  0  0  0  0  0  0  0  0
    0.3596   -5.2481    1.6108 O   0  0  0  0  0  0  0  0  0  0  0  0
    0.4204   -3.0719    0.5829 C   0  0  1  0  0  0  0  0  0  0  0  0
   -0.0606   -2.6484   -0.8279 C   0  0  0  0  0  0  0  0  0  0  0  0
   -1.0812   -1.1264   -0.8278 S   0  0  0  0  0  0  0  0  0  0  0  0
    0.2787    0.0571   -0.4923 C   0  0  0  0  0  0  0  0  0  0  0  0
   -0.5368   -2.7029    1.6418 N   0  0  0  0  0  0  0  0  0  0  0  0
   -1.8632   -3.2250    1.8619 C   0  0  0  0  0  0  0  0  0  0  0  0
   -2.4798   -2.8625    2.9053 O   0  0  0  0  0  0  0  0  0  0  0  0
   -2.5598   -4.1875    0.9244 C   0  0  1  0  0  0  0  0  0  0  0  0
   -3.0709   -5.4043    1.7065 C   0  0  0  0  0  0  0  0  0  0  0  0
   -3.6792   -3.5007    0.2561 N   0  0  0  0  0  0  0  0  0  0  0  0
   -4.4650   -4.1600   -0.7538 C   0  0  0  0  0  0  0  0  0  0  0  0
   -3.9431   -5.0824   -1.4391 O   0  0  0  0  0  0  0  0  0  0  0  0
   -5.8944   -3.7692   -1.0483 C   0  0  1  0  0  0  0  0  0  0  0  0
   -6.8409   -4.9694   -0.8949 C   0  0  0  0  0  0  0  0  0  0  0  0
   -6.3685   -2.6354   -0.2434 N   0  0  0  0  0  0  0  0  0  0  0  0
   -6.7343   -2.7373    1.1398 C   0  0  0  0  0  0  0  0  0  0  0  0
   -6.1854   -3.5995    1.8760 O   0  0  0  0  0  0  0  0  0  0  0  0
   -7.7688   -1.8124    1.7262 C   0  0  1  0  0  0  0  0  0  0  0  0
   -8.9107   -2.6235    2.3359 C   0  0  0  0  0  0  0  0  0  0  0  0
   -7.1619   -0.9645    2.7627 N   0  0  0  0  0  0  0  0  0  0  0  0
   -7.1525    0.4711    2.7675 C   0  0  0  0  0  0  0  0  0  0  0  0
   -6.9053    1.0705    3.8513 O   0  0  0  0  0  0  0  0  0  0  0  0
   -7.4327    1.2998    1.5331 C   0  0  1  0  0  0  0  0  0  0  0  0
   -8.9093    1.7109    1.5147 C   0  0  0  0  0  0  0  0  0  0  0  0
   -6.5325    2.4613    1.5059 N   0  0  0  0  0  0  0  0  0  0  0  0
   -6.8995    3.7400    0.9689 C   0  0  0  0  0  0  0  0  0  0  0  0
   -7.4056    4.6071    1.7336 O   0  0  0  0  0  0  0  0  0  0  0  0
   -7.8621    4.6414   -3.0993 H   0  0  0  0  0  0  0  0  0  0  0  0
   -7.7600    3.4665   -4.4551 H   0  0  0  0  0  0  0  0  0  0  0  0
   -6.2539    4.2027   -3.8060 H   0  0  0  0  0  0  0  0  0  0  0  0
   -5.8608    2.0952   -0.9330 H   0  0  0  0  0  0  0  0  0  0  0  0
   -7.5523    4.6174   -0.8263 H   0  0  0  0  0  0  0  0  0  0  0  0
   -5.2606    5.2378   -1.7188 H   0  0  0  0  0  0  0  0  0  0  0  0
   -5.7378    6.0299   -0.1983 H   0  0  0  0  0  0  0  0  0  0  0  0
   -3.0338    4.5537   -2.0446 H   0  0  0  0  0  0  0  0  0  0  0  0
   -3.7206    2.9391   -1.6477 H   0  0  0  0  0  0  0  0  0  0  0  0
   -2.2231    1.2391   -1.0200 H   0  0  0  0  0  0  0  0  0  0  0  0
    1.8713    2.1626   -0.0520 H   0  0  0  0  0  0  0  0  0  0  0  0
   -0.9744    5.3145   -0.6858 H   0  0  0  0  0  0  0  0  0  0  0  0
    2.3881    4.7289   -1.0044 H   0  0  0  0  0  0  0  0  0  0  0  0
    1.2308    5.9035   -0.2819 H   0  0  0  0  0  0  0  0  0  0  0  0
    3.8245    6.7138    2.1080 H   0  0  0  0  0  0  0  0  0  0  0  0
    3.0311    6.9995    0.5596 H   0  0  0  0  0  0  0  0  0  0  0  0
    4.6139    5.0622   -0.3500 H   0  0  0  0  0  0  0  0  0  0  0  0
    5.7211    7.9795   -2.2295 H   0  0  0  0  0  0  0  0  0  0  0  0
    4.9137    6.3700   -2.2948 H   0  0  0  0  0  0  0  0  0  0  0  0
    5.8901    5.6526    2.3196 H   0  0  0  0  0  0  0  0  0  0  0  0
    6.7981    4.5715   -1.1889 H   0  0  0  0  0  0  0  0  0  0  0  0
    9.1295    4.0559   -0.8659 H   0  0  0  0  0  0  0  0  0  0  0  0
    8.3333    2.7392   -1.7957 H   0  0  0  0  0  0  0  0  0  0  0  0
    8.7616    2.4965   -0.0608 H   0  0  0  0  0  0  0  0  0  0  0  0
    5.3662    2.7952   -1.3791 H   0  0  0  0  0  0  0  0  0  0  0  0
    7.4370    1.7081    1.4942 H   0  0  0  0  0  0  0  0  0  0  0  0
    6.6326    1.0645    3.7094 H   0  0  0  0  0  0  0  0  0  0  0  0
    5.8440    2.5957    3.1917 H   0  0  0  0  0  0  0  0  0  0  0  0
    4.9260    1.0344    3.1335 H   0  0  0  0  0  0  0  0  0  0  0  0
    6.5355   -0.8484    2.0438 H   0  0  0  0  0  0  0  0  0  0  0  0
    5.5776   -2.2485    0.0577 H   0  0  0  0  0  0  0  0  0  0  0  0
    5.1144   -0.9178   -2.0056 H   0  0  0  0  0  0  0  0  0  0  0  0
    5.4472   -2.6468   -2.3882 H   0  0  0  0  0  0  0  0  0  0  0  0
    6.7231   -1.4109   -2.6826 H   0  0  0  0  0  0  0  0  0  0  0  0
    8.4505   -2.6331   -0.2660 H   0  0  0  0  0  0  0  0  0  0  0  0
    5.8004   -5.3895   -1.9660 H   0  0  0  0  0  0  0  0  0  0  0  0
    6.0702   -7.2858   -0.3609 H   0  0  0  0  0  0  0  0  0  0  0  0
    7.4093   -6.3946    0.4605 H   0  0  0  0  0  0  0  0  0  0  0  0
    7.5892   -6.9508   -1.2543 H   0  0  0  0  0  0  0  0  0  0  0  0
    5.6817   -4.4169    0.9090 H   0  0  0  0  0  0  0  0  0  0  0  0
    2.9022   -3.5432   -0.6250 H   0  0  0  0  0  0  0  0  0  0  0  0
    3.8983   -4.3393   -2.6999 H   0  0  0  0  0  0  0  0  0  0  0  0
    3.1492   -5.9776   -2.5045 H   0  0  0  0  0  0  0  0  0  0  0  0
    2.1250   -4.5294   -2.8323 H   0  0  0  0  0  0  0  0  0  0  0  0
    1.3742   -6.1789   -0.5542 H   0  0  0  0  0  0  0  0  0  0  0  0
    1.3561   -2.5052    0.7826 H   0  0  0  0  0  0  0  0  0  0  0  0
   -0.6637   -3.4503   -1.3019 H   0  0  0  0  0  0  0  0  0  0  0  0
    0.8194   -2.4940   -1.4902 H   0  0  0  0  0  0  0  0  0  0  0  0
    1.0793   -0.0930   -1.2537 H   0  0  0  0  0  0  0  0  0  0  0  0
    0.7080   -0.1686    0.5060 H   0  0  0  0  0  0  0  0  0  0  0  0
   -0.1946   -2.0170    2.3513 H   0  0  0  0  0  0  0  0  0  0  0  0
   -1.8594   -4.5667    0.1559 H   0  0  0  0  0  0  0  0  0  0  0  0
   -3.4964   -6.1632    1.0144 H   0  0  0  0  0  0  0  0  0  0  0  0
   -3.8687   -5.1028    2.4260 H   0  0  0  0  0  0  0  0  0  0  0  0
   -2.2476   -5.8752    2.2821 H   0  0  0  0  0  0  0  0  0  0  0  0
   -4.0385   -2.6243    0.6784 H   0  0  0  0  0  0  0  0  0  0  0  0
   -5.9293   -3.4665   -2.1210 H   0  0  0  0  0  0  0  0  0  0  0  0
   -6.7554   -5.4191    0.1143 H   0  0  0  0  0  0  0  0  0  0  0  0
   -7.8901   -4.6460   -1.0565 H   0  0  0  0  0  0  0  0  0  0  0  0
   -6.6019   -5.7458   -1.6518 H   0  0  0  0  0  0  0  0  0  0  0  0
   -6.6418   -1.7696   -0.7603 H   0  0  0  0  0  0  0  0  0  0  0  0
   -8.2177   -1.2042    0.9215 H   0  0  0  0  0  0  0  0  0  0  0  0
   -9.3496   -3.3011    1.5692 H   0  0  0  0  0  0  0  0  0  0  0  0
   -9.7089   -1.9402    2.6962 H   0  0  0  0  0  0  0  0  0  0  0  0
   -8.5467   -3.2336    3.1927 H   0  0  0  0  0  0  0  0  0  0  0  0
   -6.7992   -1.4372    3.6217 H   0  0  0  0  0  0  0  0  0  0  0  0
   -7.2161    0.7050    0.6194 H   0  0  0  0  0  0  0  0  0  0  0  0
   -9.1387    2.3830    2.3726 H   0  0  0  0  0  0  0  0  0  0  0  0
   -9.5621    0.8154    1.5849 H   0  0  0  0  0  0  0  0  0  0  0  0
   -9.1570    2.2373    0.5659 H   0  0  0  0  0  0  0  0  0  0  0  0
   -5.5089    2.2811    1.6413 H   0  0  0  0  0  0  0  0  0  0  0  0
  1  2  1  0
  2  3  2  0
  2  4  1  0
  4  5  1  0
  5  6  1  0
  6  7  1  0
  7  8  1  0
  8  9  1  0
  9 10  2  0
 10 11  1  0
 11 12  2  0
 12 13  1  0
 13 14  2  0
 13 15  1  0
 15 16  1  0
 16 17  1  0
 17 18  1  0
 18 19  1  0
 19 20  1  0
 19 21  2  0
 18 22  1  0
 22 23  1  0
 23 24  2  0
 23 25  1  0
 25 26  1  0
 25 27  1  0
 27 28  1  0
 28 29  2  0
 28 30  1  0
 30 31  1  0
 30 32  1  0
 32 33  1  0
 33 34  2  0
 33 35  1  0
 35 36  1  0
 35 37  1  0
 37 38  1  0
 38 39  2  0
 38 40  1  0
 40 41  1  0
 40 42  1  0
 42 43  1  0
 43 44  2  0
 43 45  1  0
 45 46  1  0
 45 47  1  0
 47 48  1  0
 48 49  2  0
 48 50  1  0
 50 51  1  0
 51 52  1  0
 52 53  1  0
 50 54  1  0
 54 55  1  0
 55 56  2  0
 55 57  1  0
 57 58  1  0
 57 59  1  0
 59 60  1  0
 60 61  2  0
 60 62  1  0
 62 63  1  0
 62 64  1  0
 64 65  1  0
 65 66  2  0
 65 67  1  0
 67 68  1  0
 67 69  1  0
 69 70  1  0
 70 71  2  0
 70 72  1  0
 72 73  1  0
 72 74  1  0
 74 75  1  0
 75 76  2  0
 75  5  1  0
 14  9  1  0
 53 11  1  0
  1 77  1  0
  1 78  1  0
  1 79  1  0
  4 80  1  0
  5 81  1  6
  6 82  1  0
  6 83  1  0
  8 84  1  0
  8 85  1  0
 10 86  1  0
 12 87  1  0
 14 88  1  0
 15 89  1  0
 15 90  1  0
 17 91  1  0
 17 92  1  0
 18 93  1  6
 20 94  1  0
 20 95  1  0
 22 96  1  0
 25 97  1  6
 26 98  1  0
 26 99  1  0
 26100  1  0
 27101  1  0
 30102  1  1
 31103  1  0
 31104  1  0
 31105  1  0
 32106  1  0
 35107  1  1
 36108  1  0
 36109  1  0
 36110  1  0
 37111  1  0
 40112  1  6
 41113  1  0
 41114  1  0
 41115  1  0
 42116  1  0
 45117  1  6
 46118  1  0
 46119  1  0
 46120  1  0
 47121  1  0
 50122  1  1
 51123  1  0
 51124  1  0
 53125  1  0
 53126  1  0
 54127  1  0
 57128  1  6
 58129  1  0
 58130  1  0
 58131  1  0
 59132  1  0
 62133  1  6
 63134  1  0
 63135  1  0
 63136  1  0
 64137  1  0
 67138  1  6
 68139  1  0
 68140  1  0
 68141  1  0
 69142  1  0
 72143  1  6
 73144  1  0
 73145  1  0
 73146  1  0
 74147  1  0
M  END
