
     RDKit          3D

157159  0  0  0  0  0  0  0  0999 V2000
   -7.7437   -5.4020   -2.7853 C   0  0  0  0  0  0  0  0  0  0  0  0
   -7.2045   -6.1023   -1.5766 C   0  0  0  0  0  0  0  0  0  0  0  0
   -7.2389   -7.3620   -1.5379 O   0  0  0  0  0  0  0  0  0  0  0  0
   -6.6493   -5.3872   -0.4644 N   0  0  0  0  0  0  0  0  0  0  0  0
   -6.2752   -3.9662   -0.4829 C   0  0  2  0  0  0  0  0  0  0  0  0
   -4.7434   -3.8364   -0.4676 C   0  0  0  0  0  0  0  0  0  0  0  0
   -3.9763   -4.4788    1.0772 S   0  0  0  0  0  0  0  0  0  0  0  0
   -3.1665   -2.9227    1.6050 C   0  0  0  0  0  0  0  0  0  0  0  0
   -1.8798   -2.6986    0.8558 C   0  0  0  0  0  0  0  0  0  0  0  0
   -0.7404   -3.4412    1.1896 C   0  0  0  0  0  0  0  0  0  0  0  0
    0.4586   -3.2459    0.4984 C   0  0  0  0  0  0  0  0  0  0  0  0
    0.5186   -2.2997   -0.5331 C   0  0  0  0  0  0  0  0  0  0  0  0
   -0.5967   -1.5117   -0.8553 C   0  0  0  0  0  0  0  0  0  0  0  0
   -1.8046   -1.7356   -0.1686 C   0  0  0  0  0  0  0  0  0  0  0  0
   -0.4732   -0.5340   -2.0046 C   0  0  0  0  0  0  0  0  0  0  0  0
   -1.7817    0.7474   -2.0268 S   0  0  0  0  0  0  0  0  0  0  0  0
   -0.7087    2.1511   -2.4708 C   0  0  0  0  0  0  0  0  0  0  0  0
   -1.5304    3.4482   -2.6043 C   0  0  1  0  0  0  0  0  0  0  0  0
   -2.2403    3.7661   -1.3587 N   0  0  0  0  0  0  0  0  0  0  0  0
   -3.3951    4.6143   -1.3679 C   0  0  0  0  0  0  0  0  0  0  0  0
   -3.2834    5.8231   -1.7258 O   0  0  0  0  0  0  0  0  0  0  0  0
   -4.7203    4.1025   -0.8529 C   0  0  1  0  0  0  0  0  0  0  0  0
   -5.1256    2.8404   -1.6129 C   0  0  0  0  0  0  0  0  0  0  0  0
   -4.6200    3.8229    0.5823 N   0  0  0  0  0  0  0  0  0  0  0  0
   -5.3073    4.5624    1.6049 C   0  0  0  0  0  0  0  0  0  0  0  0
   -4.6833    4.8496    2.6606 O   0  0  0  0  0  0  0  0  0  0  0  0
   -6.7656    4.9362    1.5104 C   0  0  1  0  0  0  0  0  0  0  0  0
   -6.9416    6.3646    0.9814 C   0  0  0  0  0  0  0  0  0  0  0  0
   -7.5171    3.9700    0.6976 N   0  0  0  0  0  0  0  0  0  0  0  0
   -7.8640    2.6377    1.1306 C   0  0  0  0  0  0  0  0  0  0  0  0
   -8.6431    1.9623    0.4086 O   0  0  0  0  0  0  0  0  0  0  0  0
   -7.2759    2.0050    2.3819 C   0  0  1  0  0  0  0  0  0  0  0  0
   -8.2827    1.1492    3.1602 C   0  0  0  0  0  0  0  0  0  0  0  0
   -6.0413    1.2664    2.0839 N   0  0  0  0  0  0  0  0  0  0  0  0
   -5.8056    0.3610    0.9879 C   0  0  0  0  0  0  0  0  0  0  0  0
   -4.6559    0.3449    0.4687 O   0  0  0  0  0  0  0  0  0  0  0  0
   -6.8107   -0.6769    0.5424 C   0  0  1  0  0  0  0  0  0  0  0  0
   -6.8969   -0.7239   -0.9913 C   0  0  0  0  0  0  0  0  0  0  0  0
   -6.4400   -1.9731    1.1275 N   0  0  0  0  0  0  0  0  0  0  0  0
   -6.9379   -3.2308    0.6636 C   0  0  0  0  0  0  0  0  0  0  0  0
   -7.9218   -3.7441    1.2560 O   0  0  0  0  0  0  0  0  0  0  0  0
   -0.6582    4.6056   -3.0463 C   0  0  0  0  0  0  0  0  0  0  0  0
   -1.0048    5.2591   -4.0691 O   0  0  0  0  0  0  0  0  0  0  0  0
    0.5864    4.9327   -2.4009 N   0  0  0  0  0  0  0  0  0  0  0  0
    0.7842    4.8987   -0.9493 C   0  0  2  0  0  0  0  0  0  0  0  0
    0.5583    6.2909   -0.3532 C   0  0  0  0  0  0  0  0  0  0  0  0
    2.1511    4.3639   -0.6237 C   0  0  0  0  0  0  0  0  0  0  0  0
    2.2601    3.1582   -0.2611 O   0  0  0  0  0  0  0  0  0  0  0  0
    3.3235    5.1847   -0.7319 N   0  0  0  0  0  0  0  0  0  0  0  0
    4.4258    5.0156    0.2216 C   0  0  2  0  0  0  0  0  0  0  0  0
    4.0865    5.7639    1.5149 C   0  0  0  0  0  0  0  0  0  0  0  0
    5.7150    5.5515   -0.3666 C   0  0  0  0  0  0  0  0  0  0  0  0
    5.7691    6.7728   -0.6849 O   0  0  0  0  0  0  0  0  0  0  0  0
    6.9080    4.7515   -0.5208 N   0  0  0  0  0  0  0  0  0  0  0  0
    7.0175    3.2850   -0.4932 C   0  0  2  0  0  0  0  0  0  0  0  0
    6.1206    2.6492   -1.5681 C   0  0  0  0  0  0  0  0  0  0  0  0
    6.7707    2.7223    0.8886 C   0  0  0  0  0  0  0  0  0  0  0  0
    6.6413    3.4965    1.8772 O   0  0  0  0  0  0  0  0  0  0  0  0
    6.6505    1.3112    1.0975 N   0  0  0  0  0  0  0  0  0  0  0  0
    7.7990    0.4123    1.2493 C   0  0  2  0  0  0  0  0  0  0  0  0
    8.8161    0.9719    2.2492 C   0  0  0  0  0  0  0  0  0  0  0  0
    8.4395    0.1035   -0.0868 C   0  0  0  0  0  0  0  0  0  0  0  0
    9.3185    0.8856   -0.5356 O   0  0  0  0  0  0  0  0  0  0  0  0
    8.0795   -1.0439   -0.8907 N   0  0  0  0  0  0  0  0  0  0  0  0
    7.2663   -2.2027   -0.4746 C   0  0  2  0  0  0  0  0  0  0  0  0
    5.8306   -1.7694   -0.1334 C   0  0  0  0  0  0  0  0  0  0  0  0
    7.9697   -3.0040    0.6151 C   0  0  0  0  0  0  0  0  0  0  0  0
    8.9765   -2.5179    1.1954 O   0  0  0  0  0  0  0  0  0  0  0  0
    7.6321   -4.3719    0.8898 N   0  0  0  0  0  0  0  0  0  0  0  0
    6.2844   -4.8268    1.2322 C   0  0  2  0  0  0  0  0  0  0  0  0
    5.9962   -4.5273    2.7048 C   0  0  0  0  0  0  0  0  0  0  0  0
    6.1703   -6.3161    0.9594 C   0  0  0  0  0  0  0  0  0  0  0  0
    6.9083   -7.1080    1.6098 O   0  0  0  0  0  0  0  0  0  0  0  0
    5.3257   -6.8612   -0.0718 N   0  0  0  0  0  0  0  0  0  0  0  0
    4.0565   -6.2652   -0.5158 C   0  0  1  0  0  0  0  0  0  0  0  0
    3.6366   -6.8922   -1.8278 C   0  0  0  0  0  0  0  0  0  0  0  0
    3.3009   -8.2780   -1.9117 N   0  0  0  0  0  0  0  0  0  0  0  0
    3.6134   -6.1871   -2.8711 O   0  0  0  0  0  0  0  0  0  0  0  0
    2.9805   -6.4582    0.5692 C   0  0  0  0  0  0  0  0  0  0  0  0
    1.3776   -5.7512    0.0597 S   0  0  0  0  0  0  0  0  0  0  0  0
    1.6458   -4.1092    0.8059 C   0  0  0  0  0  0  0  0  0  0  0  0
   -8.5103   -4.6675   -2.4719 H   0  0  0  0  0  0  0  0  0  0  0  0
   -8.2198   -6.1331   -3.4750 H   0  0  0  0  0  0  0  0  0  0  0  0
   -6.9219   -4.8899   -3.3285 H   0  0  0  0  0  0  0  0  0  0  0  0
   -6.3954   -5.9459    0.3853 H   0  0  0  0  0  0  0  0  0  0  0  0
   -6.6288   -3.4969   -1.4180 H   0  0  0  0  0  0  0  0  0  0  0  0
   -4.3331   -4.4284   -1.3117 H   0  0  0  0  0  0  0  0  0  0  0  0
   -4.4589   -2.7870   -0.6607 H   0  0  0  0  0  0  0  0  0  0  0  0
   -3.8505   -2.0615    1.4736 H   0  0  0  0  0  0  0  0  0  0  0  0
   -2.9552   -2.9901    2.6950 H   0  0  0  0  0  0  0  0  0  0  0  0
   -0.7922   -4.1769    1.9881 H   0  0  0  0  0  0  0  0  0  0  0  0
    1.4363   -2.1717   -1.0935 H   0  0  0  0  0  0  0  0  0  0  0  0
   -2.6957   -1.1847   -0.4235 H   0  0  0  0  0  0  0  0  0  0  0  0
   -0.5303   -1.0978   -2.9573 H   0  0  0  0  0  0  0  0  0  0  0  0
    0.5318   -0.0597   -1.9556 H   0  0  0  0  0  0  0  0  0  0  0  0
   -0.2147    1.9204   -3.4403 H   0  0  0  0  0  0  0  0  0  0  0  0
    0.0719    2.2636   -1.6941 H   0  0  0  0  0  0  0  0  0  0  0  0
   -2.2871    3.2615   -3.4018 H   0  0  0  0  0  0  0  0  0  0  0  0
   -2.1110    3.1370   -0.5371 H   0  0  0  0  0  0  0  0  0  0  0  0
   -5.4929    4.8659   -1.0492 H   0  0  0  0  0  0  0  0  0  0  0  0
   -4.3637    2.0486   -1.4929 H   0  0  0  0  0  0  0  0  0  0  0  0
   -5.2336    3.0613   -2.6991 H   0  0  0  0  0  0  0  0  0  0  0  0
   -6.0959    2.4623   -1.2351 H   0  0  0  0  0  0  0  0  0  0  0  0
   -3.8784    3.1595    0.9003 H   0  0  0  0  0  0  0  0  0  0  0  0
   -7.1973    4.9478    2.5317 H   0  0  0  0  0  0  0  0  0  0  0  0
   -6.6040    6.4696   -0.0670 H   0  0  0  0  0  0  0  0  0  0  0  0
   -6.3657    7.0770    1.6095 H   0  0  0  0  0  0  0  0  0  0  0  0
   -8.0168    6.6494    1.0302 H   0  0  0  0  0  0  0  0  0  0  0  0
   -7.8956    4.2837   -0.2289 H   0  0  0  0  0  0  0  0  0  0  0  0
   -7.0059    2.8136    3.0856 H   0  0  0  0  0  0  0  0  0  0  0  0
   -7.7585    0.5399    3.9208 H   0  0  0  0  0  0  0  0  0  0  0  0
   -8.8799    0.4800    2.5162 H   0  0  0  0  0  0  0  0  0  0  0  0
   -9.0019    1.8117    3.6873 H   0  0  0  0  0  0  0  0  0  0  0  0
   -5.1862    1.5936    2.5907 H   0  0  0  0  0  0  0  0  0  0  0  0
   -7.8160   -0.4260    0.9057 H   0  0  0  0  0  0  0  0  0  0  0  0
   -7.7257   -1.3907   -1.3024 H   0  0  0  0  0  0  0  0  0  0  0  0
   -5.9444   -1.0790   -1.4349 H   0  0  0  0  0  0  0  0  0  0  0  0
   -7.1092    0.2884   -1.3905 H   0  0  0  0  0  0  0  0  0  0  0  0
   -6.1888   -1.9521    2.1418 H   0  0  0  0  0  0  0  0  0  0  0  0
    1.2823    5.4744   -2.9726 H   0  0  0  0  0  0  0  0  0  0  0  0
    0.0463    4.2261   -0.4772 H   0  0  0  0  0  0  0  0  0  0  0  0
    0.8104    6.2960    0.7314 H   0  0  0  0  0  0  0  0  0  0  0  0
    1.1670    7.0566   -0.8728 H   0  0  0  0  0  0  0  0  0  0  0  0
   -0.5115    6.5735   -0.4744 H   0  0  0  0  0  0  0  0  0  0  0  0
    3.2450    6.0911   -1.2393 H   0  0  0  0  0  0  0  0  0  0  0  0
    4.5222    3.9467    0.4829 H   0  0  0  0  0  0  0  0  0  0  0  0
    3.9360    6.8407    1.3083 H   0  0  0  0  0  0  0  0  0  0  0  0
    4.9082    5.6455    2.2535 H   0  0  0  0  0  0  0  0  0  0  0  0
    3.1542    5.3583    1.9589 H   0  0  0  0  0  0  0  0  0  0  0  0
    7.7876    5.2759   -0.7356 H   0  0  0  0  0  0  0  0  0  0  0  0
    8.0592    3.0205   -0.7566 H   0  0  0  0  0  0  0  0  0  0  0  0
    6.2402    1.5445   -1.5741 H   0  0  0  0  0  0  0  0  0  0  0  0
    6.4009    3.0340   -2.5687 H   0  0  0  0  0  0  0  0  0  0  0  0
    5.0467    2.8671   -1.4020 H   0  0  0  0  0  0  0  0  0  0  0  0
    5.7163    0.9648    1.4152 H   0  0  0  0  0  0  0  0  0  0  0  0
    7.4333   -0.5286    1.7001 H   0  0  0  0  0  0  0  0  0  0  0  0
    9.2489    1.9293    1.8828 H   0  0  0  0  0  0  0  0  0  0  0  0
    9.6381    0.2434    2.3993 H   0  0  0  0  0  0  0  0  0  0  0  0
    8.3239    1.1585    3.2271 H   0  0  0  0  0  0  0  0  0  0  0  0
    8.4825   -1.0806   -1.8533 H   0  0  0  0  0  0  0  0  0  0  0  0
    7.1985   -2.8798   -1.3531 H   0  0  0  0  0  0  0  0  0  0  0  0
    5.6079   -0.7685   -0.5505 H   0  0  0  0  0  0  0  0  0  0  0  0
    5.0969   -2.4639   -0.5872 H   0  0  0  0  0  0  0  0  0  0  0  0
    5.6550   -1.7462    0.9617 H   0  0  0  0  0  0  0  0  0  0  0  0
    8.4243   -4.9726    1.2243 H   0  0  0  0  0  0  0  0  0  0  0  0
    5.5510   -4.2797    0.6359 H   0  0  0  0  0  0  0  0  0  0  0  0
    6.7392   -5.0273    3.3626 H   0  0  0  0  0  0  0  0  0  0  0  0
    6.0518   -3.4311    2.8826 H   0  0  0  0  0  0  0  0  0  0  0  0
    4.9776   -4.8737    2.9762 H   0  0  0  0  0  0  0  0  0  0  0  0
    5.5011   -7.8602   -0.3242 H   0  0  0  0  0  0  0  0  0  0  0  0
    4.1879   -5.1824   -0.7057 H   0  0  0  0  0  0  0  0  0  0  0  0
    3.2925   -8.8843   -1.0617 H   0  0  0  0  0  0  0  0  0  0  0  0
    3.1033   -8.7073   -2.8399 H   0  0  0  0  0  0  0  0  0  0  0  0
    3.3223   -5.9892    1.5182 H   0  0  0  0  0  0  0  0  0  0  0  0
    2.8321   -7.5361    0.7859 H   0  0  0  0  0  0  0  0  0  0  0  0
    2.5778   -3.6607    0.4036 H   0  0  0  0  0  0  0  0  0  0  0  0
    1.7505   -4.2187    1.9081 H   0  0  0  0  0  0  0  0  0  0  0  0
  1  2  1  0
  2  3  2  0
  2  4  1  0
  4  5  1  0
  5  6  1  0
  6  7  1  0
  7  8  1  0
  8  9  1  0
  9 10  2  0
 10 11  1  0
 11 12  2  0
 12 13  1  0
 13 14  2  0
 13 15  1  0
 15 16  1  0
 16 17  1  0
 17 18  1  0
 18 19  1  0
 19 20  1  0
 20 21  2  0
 20 22  1  0
 22 23  1  0
 22 24  1  0
 24 25  1  0
 25 26  2  0
 25 27  1  0
 27 28  1  0
 27 29  1  0
 29 30  1  0
 30 31  2  0
 30 32  1  0
 32 33  1  0
 32 34  1  0
 34 35  1  0
 35 36  2  0
 35 37  1  0
 37 38  1  0
 37 39  1  0
 39 40  1  0
 40 41  2  0
 18 42  1  0
 42 43  2  0
 42 44  1  0
 44 45  1  0
 45 46  1  0
 45 47  1  0
 47 48  2  0
 47 49  1  0
 49 50  1  0
 50 51  1  0
 50 52  1  0
 52 53  2  0
 52 54  1  0
 54 55  1  0
 55 56  1  0
 55 57  1  0
 57 58  2  0
 57 59  1  0
 59 60  1  0
 60 61  1  0
 60 62  1  0
 62 63  2  0
 62 64  1  0
 64 65  1  0
 65 66  1  0
 65 67  1  0
 67 68  2  0
 67 69  1  0
 69 70  1  0
 70 71  1  0
 70 72  1  0
 72 73  2  0
 72 74  1  0
 74 75  1  0
 75 76  1  0
 76 77  1  0
 76 78  2  0
 75 79  1  0
 79 80  1  0
 80 81  1  0
 40  5  1  0
 14  9  1  0
 81 11  1  0
  1 82  1  0
  1 83  1  0
  1 84  1  0
  4 85  1  0
  5 86  1  6
  6 87  1  0
  6 88  1  0
  8 89  1  0
  8 90  1  0
 10 91  1  0
 12 92  1  0
 14 93  1  0
 15 94  1  0
 15 95  1  0
 17 96  1  0
 17 97  1  0
 18 98  1  6
 19 99  1  0
 22100  1  1
 23101  1  0
 23102  1  0
 23103  1  0
 24104  1  0
 27105  1  1
 28106  1  0
 28107  1  0
 28108  1  0
 29109  1  0
 32110  1  1
 33111  1  0
 33112  1  0
 33113  1  0
 34114  1  0
 37115  1  1
 38116  1  0
 38117  1  0
 38118  1  0
 39119  1  0
 44120  1  0
 45121  1  1
 46122  1  0
 46123  1  0
 46124  1  0
 49125  1  0
 50126  1  1
 51127  1  0
 51128  1  0
 51129  1  0
 54130  1  0
 55131  1  6
 56132  1  0
 56133  1  0
 56134  1  0
 59135  1  0
 60136  1  1
 61137  1  0
 61138  1  0
 61139  1  0
 64140  1  0
 65141  1  6
 66142  1  0
 66143  1  0
 66144  1  0
 69145  1  0
 70146  1  6
 71147  1  0
 71148  1  0
 71149  1  0
 74150  1  0
 75151  1  6
 77152  1  0
 77153  1  0
 79154  1  0
 79155  1  0
 81156  1  0
 81157  1  0
M  END
