
     RDKit          3D

167169  0  0  0  0  0  0  0  0999 V2000
    9.2471    6.5029    0.0162 C   0  0  0  0  0  0  0  0  0  0  0  0
    8.0432    6.4620    0.9101 C   0  0  0  0  0  0  0  0  0  0  0  0
    7.5596    7.5528    1.3249 O   0  0  0  0  0  0  0  0  0  0  0  0
    7.4096    5.2276    1.2863 N   0  0  0  0  0  0  0  0  0  0  0  0
    7.6307    3.9542    0.5883 C   0  0  2  0  0  0  0  0  0  0  0  0
    6.3605    3.0928    0.6347 C   0  0  0  0  0  0  0  0  0  0  0  0
    5.0450    3.8876   -0.3659 S   0  0  0  0  0  0  0  0  0  0  0  0
    3.9361    4.3824    1.0040 C   0  0  0  0  0  0  0  0  0  0  0  0
    2.7375    3.4803    1.0197 C   0  0  0  0  0  0  0  0  0  0  0  0
    1.5685    3.8538    0.3459 C   0  0  0  0  0  0  0  0  0  0  0  0
    0.4357    3.0272    0.3682 C   0  0  0  0  0  0  0  0  0  0  0  0
    0.4741    1.8273    1.0927 C   0  0  0  0  0  0  0  0  0  0  0  0
    1.6579    1.4138    1.7371 C   0  0  0  0  0  0  0  0  0  0  0  0
    2.7865    2.2484    1.6939 C   0  0  0  0  0  0  0  0  0  0  0  0
    1.7202    0.1136    2.4889 C   0  0  0  0  0  0  0  0  0  0  0  0
    3.0550   -0.9649    1.8365 S   0  0  0  0  0  0  0  0  0  0  0  0
    2.0710   -1.7496    0.5047 C   0  0  0  0  0  0  0  0  0  0  0  0
    1.7662   -3.2360    0.7718 C   0  0  1  0  0  0  0  0  0  0  0  0
    3.0111   -4.0052    0.8719 N   0  0  0  0  0  0  0  0  0  0  0  0
    3.3015   -5.1075    0.0059 C   0  0  0  0  0  0  0  0  0  0  0  0
    3.3118   -6.2717    0.4854 O   0  0  0  0  0  0  0  0  0  0  0  0
    3.7281   -4.8945   -1.4241 C   0  0  1  0  0  0  0  0  0  0  0  0
    2.6064   -4.3417   -2.3028 C   0  0  0  0  0  0  0  0  0  0  0  0
    4.8949   -4.0068   -1.4536 N   0  0  0  0  0  0  0  0  0  0  0  0
    6.2048   -4.5160   -1.7403 C   0  0  0  0  0  0  0  0  0  0  0  0
    6.3471   -5.4389   -2.5898 O   0  0  0  0  0  0  0  0  0  0  0  0
    7.3859   -4.0547   -0.9218 C   0  0  1  0  0  0  0  0  0  0  0  0
    7.5503   -4.9805    0.2854 C   0  0  0  0  0  0  0  0  0  0  0  0
    8.6145   -4.0605   -1.7250 N   0  0  0  0  0  0  0  0  0  0  0  0
    9.6200   -3.0319   -1.6803 C   0  0  0  0  0  0  0  0  0  0  0  0
   10.4300   -2.9406   -2.6393 O   0  0  0  0  0  0  0  0  0  0  0  0
    9.7416   -2.0634   -0.5200 C   0  0  1  0  0  0  0  0  0  0  0  0
   11.2089   -1.9534   -0.0820 C   0  0  0  0  0  0  0  0  0  0  0  0
    9.2215   -0.7446   -0.9080 N   0  0  0  0  0  0  0  0  0  0  0  0
    9.3203    0.3935   -0.0423 C   0  0  0  0  0  0  0  0  0  0  0  0
    9.1272    0.2501    1.1926 O   0  0  0  0  0  0  0  0  0  0  0  0
    9.8166    1.7105   -0.5913 C   0  0  1  0  0  0  0  0  0  0  0  0
    9.0341    2.1750   -1.8231 C   0  0  0  0  0  0  0  0  0  0  0  0
    9.8962    2.7526    0.4483 N   0  0  0  0  0  0  0  0  0  0  0  0
    8.7821    3.2238    1.2235 C   0  0  0  0  0  0  0  0  0  0  0  0
    8.8099    3.0970    2.4793 O   0  0  0  0  0  0  0  0  0  0  0  0
    0.9279   -3.4288    2.0173 C   0  0  0  0  0  0  0  0  0  0  0  0
    1.4630   -3.2599    3.1432 O   0  0  0  0  0  0  0  0  0  0  0  0
   -0.4739   -3.7454    1.9620 N   0  0  0  0  0  0  0  0  0  0  0  0
   -1.0894   -4.8455    1.2008 C   0  0  2  0  0  0  0  0  0  0  0  0
   -0.1217   -6.0020    0.9177 C   0  0  0  0  0  0  0  0  0  0  0  0
   -1.7250   -4.3349   -0.0767 C   0  0  0  0  0  0  0  0  0  0  0  0
   -1.1246   -3.4638   -0.7639 O   0  0  0  0  0  0  0  0  0  0  0  0
   -2.9831   -4.8367   -0.5576 N   0  0  0  0  0  0  0  0  0  0  0  0
   -4.0766   -5.2730    0.3134 C   0  0  2  0  0  0  0  0  0  0  0  0
   -4.0375   -6.7902    0.5166 C   0  0  0  0  0  0  0  0  0  0  0  0
   -5.4016   -4.8384   -0.2626 C   0  0  0  0  0  0  0  0  0  0  0  0
   -5.9248   -5.4835   -1.2111 O   0  0  0  0  0  0  0  0  0  0  0  0
   -6.0450   -3.6565    0.2311 N   0  0  0  0  0  0  0  0  0  0  0  0
   -7.2331   -3.7023    1.0927 C   0  0  2  0  0  0  0  0  0  0  0  0
   -6.8298   -4.0811    2.5205 C   0  0  0  0  0  0  0  0  0  0  0  0
   -8.2853   -4.6558    0.5661 C   0  0  0  0  0  0  0  0  0  0  0  0
   -8.0986   -5.9021    0.6639 O   0  0  0  0  0  0  0  0  0  0  0  0
   -9.5395   -4.1915    0.0412 N   0  0  0  0  0  0  0  0  0  0  0  0
   -9.6885   -3.1571   -0.9858 C   0  0  2  0  0  0  0  0  0  0  0  0
   -8.7488   -3.4143   -2.1746 C   0  0  0  0  0  0  0  0  0  0  0  0
   -9.5929   -1.7728   -0.3918 C   0  0  0  0  0  0  0  0  0  0  0  0
  -10.3688   -1.4683    0.5586 O   0  0  0  0  0  0  0  0  0  0  0  0
   -8.6650   -0.7903   -0.8838 N   0  0  0  0  0  0  0  0  0  0  0  0
   -8.9787    0.6465   -0.8635 C   0  0  2  0  0  0  0  0  0  0  0  0
  -10.1188    0.9400   -1.8467 C   0  0  0  0  0  0  0  0  0  0  0  0
   -7.7590    1.4548   -1.2451 C   0  0  0  0  0  0  0  0  0  0  0  0
   -7.0837    1.1231   -2.2574 O   0  0  0  0  0  0  0  0  0  0  0  0
   -7.3260    2.5730   -0.4590 N   0  0  0  0  0  0  0  0  0  0  0  0
   -8.2401    3.6524   -0.0701 C   0  0  2  0  0  0  0  0  0  0  0  0
   -8.2092    4.7839   -1.1058 C   0  0  0  0  0  0  0  0  0  0  0  0
   -7.9569    4.1493    1.3326 C   0  0  0  0  0  0  0  0  0  0  0  0
   -8.7289    3.7872    2.2614 O   0  0  0  0  0  0  0  0  0  0  0  0
   -6.9070    5.0887    1.6371 N   0  0  0  0  0  0  0  0  0  0  0  0
   -5.5131    4.8992    1.2330 C   0  0  2  0  0  0  0  0  0  0  0  0
   -4.8891    3.7611    2.0466 C   0  0  0  0  0  0  0  0  0  0  0  0
   -4.7149    6.1686    1.4403 C   0  0  0  0  0  0  0  0  0  0  0  0
   -4.7429    6.7165    2.5799 O   0  0  0  0  0  0  0  0  0  0  0  0
   -3.9179    6.7767    0.4079 N   0  0  0  0  0  0  0  0  0  0  0  0
   -3.7248    6.2507   -0.9585 C   0  0  1  0  0  0  0  0  0  0  0  0
   -3.0604    7.2864   -1.8371 C   0  0  0  0  0  0  0  0  0  0  0  0
   -3.5143    7.4871   -3.1769 N   0  0  0  0  0  0  0  0  0  0  0  0
   -2.0488    7.9135   -1.4311 O   0  0  0  0  0  0  0  0  0  0  0  0
   -2.9050    4.9399   -0.9791 C   0  0  0  0  0  0  0  0  0  0  0  0
   -1.5081    4.9493    0.2046 S   0  0  0  0  0  0  0  0  0  0  0  0
   -0.7680    3.4076   -0.4426 C   0  0  0  0  0  0  0  0  0  0  0  0
    9.9121    7.3383    0.3263 H   0  0  0  0  0  0  0  0  0  0  0  0
    8.9216    6.6648   -1.0347 H   0  0  0  0  0  0  0  0  0  0  0  0
    9.8303    5.5617    0.0887 H   0  0  0  0  0  0  0  0  0  0  0  0
    6.6737    5.2769    2.0252 H   0  0  0  0  0  0  0  0  0  0  0  0
    7.8540    4.1686   -0.4769 H   0  0  0  0  0  0  0  0  0  0  0  0
    6.0530    2.8982    1.6858 H   0  0  0  0  0  0  0  0  0  0  0  0
    6.5602    2.0984    0.1785 H   0  0  0  0  0  0  0  0  0  0  0  0
    3.6239    5.4370    0.8326 H   0  0  0  0  0  0  0  0  0  0  0  0
    4.4334    4.3722    1.9987 H   0  0  0  0  0  0  0  0  0  0  0  0
    1.5301    4.7980   -0.1927 H   0  0  0  0  0  0  0  0  0  0  0  0
   -0.3913    1.1809    1.1207 H   0  0  0  0  0  0  0  0  0  0  0  0
    3.7028    1.9506    2.1906 H   0  0  0  0  0  0  0  0  0  0  0  0
    0.7454   -0.4208    2.4735 H   0  0  0  0  0  0  0  0  0  0  0  0
    1.9598    0.3362    3.5526 H   0  0  0  0  0  0  0  0  0  0  0  0
    1.1204   -1.2002    0.3136 H   0  0  0  0  0  0  0  0  0  0  0  0
    2.6661   -1.6639   -0.4277 H   0  0  0  0  0  0  0  0  0  0  0  0
    1.1893   -3.5911   -0.0952 H   0  0  0  0  0  0  0  0  0  0  0  0
    3.5968   -3.9029    1.7322 H   0  0  0  0  0  0  0  0  0  0  0  0
    3.9979   -5.8903   -1.8445 H   0  0  0  0  0  0  0  0  0  0  0  0
    2.4051   -3.2727   -2.0849 H   0  0  0  0  0  0  0  0  0  0  0  0
    2.9016   -4.4179   -3.3689 H   0  0  0  0  0  0  0  0  0  0  0  0
    1.6720   -4.9290   -2.1602 H   0  0  0  0  0  0  0  0  0  0  0  0
    4.8096   -3.0598   -1.0227 H   0  0  0  0  0  0  0  0  0  0  0  0
    7.1765   -3.0273   -0.5567 H   0  0  0  0  0  0  0  0  0  0  0  0
    7.6650   -6.0365   -0.0404 H   0  0  0  0  0  0  0  0  0  0  0  0
    6.6631   -4.9067    0.9504 H   0  0  0  0  0  0  0  0  0  0  0  0
    8.4513   -4.6968    0.8729 H   0  0  0  0  0  0  0  0  0  0  0  0
    8.7911   -4.8669   -2.3665 H   0  0  0  0  0  0  0  0  0  0  0  0
    9.1641   -2.4333    0.3536 H   0  0  0  0  0  0  0  0  0  0  0  0
   11.6236   -2.9663    0.1128 H   0  0  0  0  0  0  0  0  0  0  0  0
   11.2953   -1.3692    0.8538 H   0  0  0  0  0  0  0  0  0  0  0  0
   11.8184   -1.4606   -0.8679 H   0  0  0  0  0  0  0  0  0  0  0  0
    8.6969   -0.6384   -1.8120 H   0  0  0  0  0  0  0  0  0  0  0  0
   10.8574    1.5149   -0.9390 H   0  0  0  0  0  0  0  0  0  0  0  0
    9.2649    1.5182   -2.6886 H   0  0  0  0  0  0  0  0  0  0  0  0
    7.9417    2.1313   -1.6509 H   0  0  0  0  0  0  0  0  0  0  0  0
    9.3268    3.2081   -2.0996 H   0  0  0  0  0  0  0  0  0  0  0  0
   10.8425    2.9157    0.8626 H   0  0  0  0  0  0  0  0  0  0  0  0
   -1.0425   -3.3943    2.7705 H   0  0  0  0  0  0  0  0  0  0  0  0
   -1.8817   -5.2727    1.8510 H   0  0  0  0  0  0  0  0  0  0  0  0
   -0.6905   -6.8919    0.5824 H   0  0  0  0  0  0  0  0  0  0  0  0
    0.5925   -5.7512    0.1160 H   0  0  0  0  0  0  0  0  0  0  0  0
    0.4279   -6.2729    1.8434 H   0  0  0  0  0  0  0  0  0  0  0  0
   -3.1715   -4.7392   -1.5807 H   0  0  0  0  0  0  0  0  0  0  0  0
   -3.9802   -4.7801    1.3045 H   0  0  0  0  0  0  0  0  0  0  0  0
   -3.1077   -7.0912    1.0388 H   0  0  0  0  0  0  0  0  0  0  0  0
   -4.8956   -7.1178    1.1392 H   0  0  0  0  0  0  0  0  0  0  0  0
   -4.0794   -7.3179   -0.4607 H   0  0  0  0  0  0  0  0  0  0  0  0
   -5.4341   -2.8119    0.3362 H   0  0  0  0  0  0  0  0  0  0  0  0
   -7.6592   -2.6784    1.1431 H   0  0  0  0  0  0  0  0  0  0  0  0
   -6.0882   -3.3536    2.9129 H   0  0  0  0  0  0  0  0  0  0  0  0
   -7.7206   -4.0709    3.1859 H   0  0  0  0  0  0  0  0  0  0  0  0
   -6.3744   -5.0966    2.5424 H   0  0  0  0  0  0  0  0  0  0  0  0
  -10.3697   -4.8068    0.2021 H   0  0  0  0  0  0  0  0  0  0  0  0
  -10.7196   -3.2331   -1.3966 H   0  0  0  0  0  0  0  0  0  0  0  0
   -7.6821   -3.3467   -1.8787 H   0  0  0  0  0  0  0  0  0  0  0  0
   -8.9295   -4.4321   -2.5817 H   0  0  0  0  0  0  0  0  0  0  0  0
   -8.9472   -2.6789   -2.9844 H   0  0  0  0  0  0  0  0  0  0  0  0
   -7.7918   -1.1116   -1.3496 H   0  0  0  0  0  0  0  0  0  0  0  0
   -9.3004    0.9347    0.1606 H   0  0  0  0  0  0  0  0  0  0  0  0
  -11.0492    0.4269   -1.5200 H   0  0  0  0  0  0  0  0  0  0  0  0
   -9.8524    0.5805   -2.8637 H   0  0  0  0  0  0  0  0  0  0  0  0
  -10.3281    2.0327   -1.8946 H   0  0  0  0  0  0  0  0  0  0  0  0
   -6.3022    2.7668   -0.4887 H   0  0  0  0  0  0  0  0  0  0  0  0
   -9.2809    3.2688   -0.0670 H   0  0  0  0  0  0  0  0  0  0  0  0
   -8.8831    5.6121   -0.7878 H   0  0  0  0  0  0  0  0  0  0  0  0
   -7.1829    5.1843   -1.2408 H   0  0  0  0  0  0  0  0  0  0  0  0
   -8.5665    4.4037   -2.0847 H   0  0  0  0  0  0  0  0  0  0  0  0
   -7.0936    5.7100    2.4572 H   0  0  0  0  0  0  0  0  0  0  0  0
   -5.4933    4.6316    0.1709 H   0  0  0  0  0  0  0  0  0  0  0  0
   -5.4246    2.8081    1.8449 H   0  0  0  0  0  0  0  0  0  0  0  0
   -3.8234    3.6267    1.7703 H   0  0  0  0  0  0  0  0  0  0  0  0
   -4.9546    3.9773    3.1332 H   0  0  0  0  0  0  0  0  0  0  0  0
   -3.5058    7.7023    0.6421 H   0  0  0  0  0  0  0  0  0  0  0  0
   -4.7215    6.0413   -1.3997 H   0  0  0  0  0  0  0  0  0  0  0  0
   -4.1134    6.7578   -3.6146 H   0  0  0  0  0  0  0  0  0  0  0  0
   -3.0856    8.2260   -3.7780 H   0  0  0  0  0  0  0  0  0  0  0  0
   -3.5485    4.0719   -0.7436 H   0  0  0  0  0  0  0  0  0  0  0  0
   -2.5139    4.7653   -2.0025 H   0  0  0  0  0  0  0  0  0  0  0  0
   -0.4404    3.5763   -1.4901 H   0  0  0  0  0  0  0  0  0  0  0  0
   -1.5279    2.5966   -0.4485 H   0  0  0  0  0  0  0  0  0  0  0  0
  1  2  1  0
  2  3  2  0
  2  4  1  0
  4  5  1  0
  5  6  1  0
  6  7  1  0
  7  8  1  0
  8  9  1  0
  9 10  2  0
 10 11  1  0
 11 12  2  0
 12 13  1  0
 13 14  2  0
 13 15  1  0
 15 16  1  0
 16 17  1  0
 17 18  1  0
 18 19  1  0
 19 20  1  0
 20 21  2  0
 20 22  1  0
 22 23  1  0
 22 24  1  0
 24 25  1  0
 25 26  2  0
 25 27  1  0
 27 28  1  0
 27 29  1  0
 29 30  1  0
 30 31  2  0
 30 32  1  0
 32 33  1  0
 32 34  1  0
 34 35  1  0
 35 36  2  0
 35 37  1  0
 37 38  1  0
 37 39  1  0
 39 40  1  0
 40 41  2  0
 18 42  1  0
 42 43  2  0
 42 44  1  0
 44 45  1  0
 45 46  1  0
 45 47  1  0
 47 48  2  0
 47 49  1  0
 49 50  1  0
 50 51  1  0
 50 52  1  0
 52 53  2  0
 52 54  1  0
 54 55  1  0
 55 56  1  0
 55 57  1  0
 57 58  2  0
 57 59  1  0
 59 60  1  0
 60 61  1  0
 60 62  1  0
 62 63  2  0
 62 64  1  0
 64 65  1  0
 65 66  1  0
 65 67  1  0
 67 68  2  0
 67 69  1  0
 69 70  1  0
 70 71  1  0
 70 72  1  0
 72 73  2  0
 72 74  1  0
 74 75  1  0
 75 76  1  0
 75 77  1  0
 77 78  2  0
 77 79  1  0
 79 80  1  0
 80 81  1  0
 81 82  1  0
 81 83  2  0
 80 84  1  0
 84 85  1  0
 85 86  1  0
 40  5  1  0
 14  9  1  0
 86 11  1  0
  1 87  1  0
  1 88  1  0
  1 89  1  0
  4 90  1  0
  5 91  1  6
  6 92  1  0
  6 93  1  0
  8 94  1  0
  8 95  1  0
 10 96  1  0
 12 97  1  0
 14 98  1  0
 15 99  1  0
 15100  1  0
 17101  1  0
 17102  1  0
 18103  1  6
 19104  1  0
 22105  1  6
 23106  1  0
 23107  1  0
 23108  1  0
 24109  1  0
 27110  1  1
 28111  1  0
 28112  1  0
 28113  1  0
 29114  1  0
 32115  1  1
 33116  1  0
 33117  1  0
 33118  1  0
 34119  1  0
 37120  1  6
 38121  1  0
 38122  1  0
 38123  1  0
 39124  1  0
 44125  1  0
 45126  1  1
 46127  1  0
 46128  1  0
 46129  1  0
 49130  1  0
 50131  1  1
 51132  1  0
 51133  1  0
 51134  1  0
 54135  1  0
 55136  1  1
 56137  1  0
 56138  1  0
 56139  1  0
 59140  1  0
 60141  1  6
 61142  1  0
 61143  1  0
 61144  1  0
 64145  1  0
 65146  1  1
 66147  1  0
 66148  1  0
 66149  1  0
 69150  1  0
 70151  1  1
 71152  1  0
 71153  1  0
 71154  1  0
 74155  1  0
 75156  1  6
 76157  1  0
 76158  1  0
 76159  1  0
 79160  1  0
 80161  1  6
 82162  1  0
 82163  1  0
 84164  1  0
 84165  1  0
 86166  1  0
 86167  1  0
M  END
