
     RDKit          3D

157159  0  0  0  0  0  0  0  0999 V2000
    7.6259   -6.0331   -2.8781 C   0  0  0  0  0  0  0  0  0  0  0  0
    7.2832   -4.8825   -1.9785 C   0  0  0  0  0  0  0  0  0  0  0  0
    7.2271   -3.7250   -2.4667 O   0  0  0  0  0  0  0  0  0  0  0  0
    7.0456   -5.0978   -0.5789 N   0  0  0  0  0  0  0  0  0  0  0  0
    6.8922   -3.9995    0.3869 C   0  0  1  0  0  0  0  0  0  0  0  0
    5.5466   -4.1367    1.1124 C   0  0  0  0  0  0  0  0  0  0  0  0
    4.1451   -3.9431   -0.0419 S   0  0  0  0  0  0  0  0  0  0  0  0
    2.8382   -4.2503    1.2027 C   0  0  0  0  0  0  0  0  0  0  0  0
    1.7581   -3.2140    1.0891 C   0  0  0  0  0  0  0  0  0  0  0  0
    0.4380   -3.5919    0.7984 C   0  0  0  0  0  0  0  0  0  0  0  0
   -0.5842   -2.6284    0.7394 C   0  0  0  0  0  0  0  0  0  0  0  0
   -0.2785   -1.2849    1.0029 C   0  0  0  0  0  0  0  0  0  0  0  0
    1.0370   -0.8921    1.2902 C   0  0  0  0  0  0  0  0  0  0  0  0
    2.0471   -1.8643    1.3459 C   0  0  0  0  0  0  0  0  0  0  0  0
    1.3404    0.5402    1.6358 C   0  0  0  0  0  0  0  0  0  0  0  0
    0.7476    1.6646    0.3193 S   0  0  0  0  0  0  0  0  0  0  0  0
    0.8695    3.1914    1.3289 C   0  0  0  0  0  0  0  0  0  0  0  0
    1.1314    4.4510    0.4851 C   0  0  1  0  0  0  0  0  0  0  0  0
    2.1606    4.2103   -0.5318 N   0  0  0  0  0  0  0  0  0  0  0  0
    3.3961    4.9311   -0.5368 C   0  0  0  0  0  0  0  0  0  0  0  0
    3.4475    6.0714   -1.0804 O   0  0  0  0  0  0  0  0  0  0  0  0
    4.6507    4.3043    0.0098 C   0  0  1  0  0  0  0  0  0  0  0  0
    4.4459    3.8267    1.4503 C   0  0  0  0  0  0  0  0  0  0  0  0
    5.0429    3.1782   -0.8403 N   0  0  0  0  0  0  0  0  0  0  0  0
    6.1841    3.1662   -1.7165 C   0  0  0  0  0  0  0  0  0  0  0  0
    6.0553    2.6416   -2.8558 O   0  0  0  0  0  0  0  0  0  0  0  0
    7.5435    3.7081   -1.3381 C   0  0  1  0  0  0  0  0  0  0  0  0
    7.7297    5.1539   -1.8076 C   0  0  0  0  0  0  0  0  0  0  0  0
    7.7977    3.5895    0.1029 N   0  0  0  0  0  0  0  0  0  0  0  0
    8.0380    2.3336    0.7658 C   0  0  0  0  0  0  0  0  0  0  0  0
    7.3177    2.0319    1.7551 O   0  0  0  0  0  0  0  0  0  0  0  0
    9.1346    1.3759    0.3473 C   0  0  1  0  0  0  0  0  0  0  0  0
   10.3554    2.0875   -0.2651 C   0  0  0  0  0  0  0  0  0  0  0  0
    9.5934    0.6403    1.5280 N   0  0  0  0  0  0  0  0  0  0  0  0
    9.9396   -0.7528    1.5186 C   0  0  0  0  0  0  0  0  0  0  0  0
   10.9813   -1.1213    2.1329 O   0  0  0  0  0  0  0  0  0  0  0  0
    9.0943   -1.7798    0.7948 C   0  0  1  0  0  0  0  0  0  0  0  0
    9.7317   -2.1130   -0.5570 C   0  0  0  0  0  0  0  0  0  0  0  0
    8.9611   -2.9999    1.6130 N   0  0  0  0  0  0  0  0  0  0  0  0
    8.0171   -4.0663    1.3979 C   0  0  0  0  0  0  0  0  0  0  0  0
    8.1040   -5.0943    2.1315 O   0  0  0  0  0  0  0  0  0  0  0  0
   -0.1283    4.9926   -0.1472 C   0  0  0  0  0  0  0  0  0  0  0  0
   -0.4339    6.2020    0.0534 O   0  0  0  0  0  0  0  0  0  0  0  0
   -0.9564    4.1914   -1.0003 N   0  0  0  0  0  0  0  0  0  0  0  0
   -2.1869    3.5384   -0.5251 C   0  0  2  0  0  0  0  0  0  0  0  0
   -3.0895    3.1865   -1.7047 C   0  0  0  0  0  0  0  0  0  0  0  0
   -2.9231    4.3894    0.4755 C   0  0  0  0  0  0  0  0  0  0  0  0
   -2.8373    4.1114    1.7020 O   0  0  0  0  0  0  0  0  0  0  0  0
   -3.6271    5.5666    0.0679 N   0  0  0  0  0  0  0  0  0  0  0  0
   -5.0905    5.5998   -0.0563 C   0  0  2  0  0  0  0  0  0  0  0  0
   -5.5737    7.0328   -0.3178 C   0  0  0  0  0  0  0  0  0  0  0  0
   -5.7527    5.0671    1.1986 C   0  0  0  0  0  0  0  0  0  0  0  0
   -5.3336    5.4488    2.3276 O   0  0  0  0  0  0  0  0  0  0  0  0
   -6.8131    4.1053    1.1381 N   0  0  0  0  0  0  0  0  0  0  0  0
   -7.7505    3.9905    0.0184 C   0  0  2  0  0  0  0  0  0  0  0  0
   -9.1776    3.7720    0.5340 C   0  0  0  0  0  0  0  0  0  0  0  0
   -7.3418    2.8658   -0.8969 C   0  0  0  0  0  0  0  0  0  0  0  0
   -7.1175    3.1121   -2.1151 O   0  0  0  0  0  0  0  0  0  0  0  0
   -7.1441    1.5381   -0.3803 N   0  0  0  0  0  0  0  0  0  0  0  0
   -6.5436    0.4761   -1.2072 C   0  0  2  0  0  0  0  0  0  0  0  0
   -7.5334   -0.0530   -2.2538 C   0  0  0  0  0  0  0  0  0  0  0  0
   -5.9760   -0.6242   -0.3378 C   0  0  0  0  0  0  0  0  0  0  0  0
   -4.7206   -0.6647   -0.1941 O   0  0  0  0  0  0  0  0  0  0  0  0
   -6.7725   -1.5990    0.3644 N   0  0  0  0  0  0  0  0  0  0  0  0
   -8.2126   -1.5114    0.6323 C   0  0  2  0  0  0  0  0  0  0  0  0
   -8.4767   -1.7607    2.1149 C   0  0  0  0  0  0  0  0  0  0  0  0
   -8.9700   -2.5156   -0.1943 C   0  0  0  0  0  0  0  0  0  0  0  0
   -9.9941   -2.1490   -0.8344 O   0  0  0  0  0  0  0  0  0  0  0  0
   -8.5971   -3.8984   -0.1816 N   0  0  0  0  0  0  0  0  0  0  0  0
   -7.6591   -4.4297   -1.1698 C   0  0  2  0  0  0  0  0  0  0  0  0
   -8.4263   -4.8930   -2.4177 C   0  0  0  0  0  0  0  0  0  0  0  0
   -6.8473   -5.5365   -0.5465 C   0  0  0  0  0  0  0  0  0  0  0  0
   -6.9099   -6.7133   -0.9953 O   0  0  0  0  0  0  0  0  0  0  0  0
   -5.9919   -5.2430    0.5679 N   0  0  0  0  0  0  0  0  0  0  0  0
   -4.5253   -5.2789    0.4824 C   0  0  1  0  0  0  0  0  0  0  0  0
   -4.0050   -6.6926    0.3765 C   0  0  0  0  0  0  0  0  0  0  0  0
   -3.1523   -7.2226    1.3917 N   0  0  0  0  0  0  0  0  0  0  0  0
   -4.2580   -7.3823   -0.6469 O   0  0  0  0  0  0  0  0  0  0  0  0
   -4.0380   -4.4052   -0.6949 C   0  0  0  0  0  0  0  0  0  0  0  0
   -2.2096   -4.2888   -0.7800 S   0  0  0  0  0  0  0  0  0  0  0  0
   -2.0225   -3.0325    0.5446 C   0  0  0  0  0  0  0  0  0  0  0  0
    8.6130   -5.8630   -3.3437 H   0  0  0  0  0  0  0  0  0  0  0  0
    7.6695   -6.9865   -2.3059 H   0  0  0  0  0  0  0  0  0  0  0  0
    6.8532   -6.1253   -3.6765 H   0  0  0  0  0  0  0  0  0  0  0  0
    6.9006   -6.0780   -0.2494 H   0  0  0  0  0  0  0  0  0  0  0  0
    6.8951   -3.0239   -0.1353 H   0  0  0  0  0  0  0  0  0  0  0  0
    5.4804   -5.1279    1.6069 H   0  0  0  0  0  0  0  0  0  0  0  0
    5.4713   -3.3496    1.8880 H   0  0  0  0  0  0  0  0  0  0  0  0
    3.2349   -4.2263    2.2447 H   0  0  0  0  0  0  0  0  0  0  0  0
    2.4301   -5.2692    1.0249 H   0  0  0  0  0  0  0  0  0  0  0  0
    0.1992   -4.6327    0.6368 H   0  0  0  0  0  0  0  0  0  0  0  0
   -1.0707   -0.5444    1.0147 H   0  0  0  0  0  0  0  0  0  0  0  0
    3.0588   -1.5813    1.6139 H   0  0  0  0  0  0  0  0  0  0  0  0
    0.8530    0.7874    2.6091 H   0  0  0  0  0  0  0  0  0  0  0  0
    2.4370    0.6986    1.7510 H   0  0  0  0  0  0  0  0  0  0  0  0
   -0.0734    3.3121    1.9018 H   0  0  0  0  0  0  0  0  0  0  0  0
    1.6843    3.1065    2.0723 H   0  0  0  0  0  0  0  0  0  0  0  0
    1.4999    5.2339    1.1835 H   0  0  0  0  0  0  0  0  0  0  0  0
    1.9641    3.5890   -1.3501 H   0  0  0  0  0  0  0  0  0  0  0  0
    5.4385    5.0728    0.0364 H   0  0  0  0  0  0  0  0  0  0  0  0
    5.4202    3.6610    1.9451 H   0  0  0  0  0  0  0  0  0  0  0  0
    3.8927    4.5873    2.0452 H   0  0  0  0  0  0  0  0  0  0  0  0
    3.8810    2.8734    1.4671 H   0  0  0  0  0  0  0  0  0  0  0  0
    4.3422    2.4149   -0.9777 H   0  0  0  0  0  0  0  0  0  0  0  0
    8.2921    3.1027   -1.8835 H   0  0  0  0  0  0  0  0  0  0  0  0
    6.9336    5.8223   -1.4226 H   0  0  0  0  0  0  0  0  0  0  0  0
    8.7091    5.5357   -1.4526 H   0  0  0  0  0  0  0  0  0  0  0  0
    7.7153    5.1924   -2.9184 H   0  0  0  0  0  0  0  0  0  0  0  0
    7.5520    4.3952    0.7185 H   0  0  0  0  0  0  0  0  0  0  0  0
    8.7054    0.6859   -0.4036 H   0  0  0  0  0  0  0  0  0  0  0  0
   10.2176    2.2765   -1.3425 H   0  0  0  0  0  0  0  0  0  0  0  0
   10.5785    3.0490    0.2615 H   0  0  0  0  0  0  0  0  0  0  0  0
   11.2563    1.4424   -0.1827 H   0  0  0  0  0  0  0  0  0  0  0  0
    9.9617    1.2074    2.3287 H   0  0  0  0  0  0  0  0  0  0  0  0
    8.0860   -1.3383    0.6490 H   0  0  0  0  0  0  0  0  0  0  0  0
    9.6408   -1.2522   -1.2458 H   0  0  0  0  0  0  0  0  0  0  0  0
   10.8024   -2.3815   -0.4302 H   0  0  0  0  0  0  0  0  0  0  0  0
    9.2210   -2.9817   -1.0246 H   0  0  0  0  0  0  0  0  0  0  0  0
    9.6155   -3.1404    2.4185 H   0  0  0  0  0  0  0  0  0  0  0  0
   -0.5200    3.8419   -1.8850 H   0  0  0  0  0  0  0  0  0  0  0  0
   -1.9077    2.5819   -0.0267 H   0  0  0  0  0  0  0  0  0  0  0  0
   -4.0309    2.7211   -1.3438 H   0  0  0  0  0  0  0  0  0  0  0  0
   -3.3434    4.0990   -2.2894 H   0  0  0  0  0  0  0  0  0  0  0  0
   -2.5805    2.4671   -2.3805 H   0  0  0  0  0  0  0  0  0  0  0  0
   -3.0714    6.4481   -0.0614 H   0  0  0  0  0  0  0  0  0  0  0  0
   -5.3768    4.9762   -0.9259 H   0  0  0  0  0  0  0  0  0  0  0  0
   -5.1818    7.3924   -1.2928 H   0  0  0  0  0  0  0  0  0  0  0  0
   -6.6832    7.0688   -0.3496 H   0  0  0  0  0  0  0  0  0  0  0  0
   -5.2241    7.7172    0.4821 H   0  0  0  0  0  0  0  0  0  0  0  0
   -6.9314    3.4600    1.9595 H   0  0  0  0  0  0  0  0  0  0  0  0
   -7.7697    4.9420   -0.5567 H   0  0  0  0  0  0  0  0  0  0  0  0
   -9.4719    4.6326    1.1803 H   0  0  0  0  0  0  0  0  0  0  0  0
   -9.2596    2.8333    1.1359 H   0  0  0  0  0  0  0  0  0  0  0  0
   -9.8959    3.7214   -0.3202 H   0  0  0  0  0  0  0  0  0  0  0  0
   -7.0946    1.4369    0.6498 H   0  0  0  0  0  0  0  0  0  0  0  0
   -5.6891    0.9124   -1.7676 H   0  0  0  0  0  0  0  0  0  0  0  0
   -7.5915    0.6597   -3.1066 H   0  0  0  0  0  0  0  0  0  0  0  0
   -7.1954   -1.0367   -2.6531 H   0  0  0  0  0  0  0  0  0  0  0  0
   -8.5565   -0.1537   -1.8364 H   0  0  0  0  0  0  0  0  0  0  0  0
   -6.2589   -2.4157    0.7764 H   0  0  0  0  0  0  0  0  0  0  0  0
   -8.5873   -0.4892    0.4127 H   0  0  0  0  0  0  0  0  0  0  0  0
   -9.5590   -1.6575    2.3253 H   0  0  0  0  0  0  0  0  0  0  0  0
   -7.9285   -1.0110    2.7285 H   0  0  0  0  0  0  0  0  0  0  0  0
   -8.1410   -2.7755    2.4159 H   0  0  0  0  0  0  0  0  0  0  0  0
   -9.2710   -4.5595    0.2639 H   0  0  0  0  0  0  0  0  0  0  0  0
   -6.9531   -3.6282   -1.4799 H   0  0  0  0  0  0  0  0  0  0  0  0
   -9.2172   -5.6165   -2.1401 H   0  0  0  0  0  0  0  0  0  0  0  0
   -7.7296   -5.3678   -3.1371 H   0  0  0  0  0  0  0  0  0  0  0  0
   -8.9032   -4.0163   -2.9124 H   0  0  0  0  0  0  0  0  0  0  0  0
   -6.4203   -4.7708    1.3960 H   0  0  0  0  0  0  0  0  0  0  0  0
   -4.1363   -4.8376    1.4204 H   0  0  0  0  0  0  0  0  0  0  0  0
   -2.9871   -6.6887    2.2799 H   0  0  0  0  0  0  0  0  0  0  0  0
   -2.6996   -8.1524    1.2639 H   0  0  0  0  0  0  0  0  0  0  0  0
   -4.3953   -4.8482   -1.6534 H   0  0  0  0  0  0  0  0  0  0  0  0
   -4.4713   -3.3878   -0.6180 H   0  0  0  0  0  0  0  0  0  0  0  0
   -2.6302   -2.1453    0.2640 H   0  0  0  0  0  0  0  0  0  0  0  0
   -2.4109   -3.4170    1.5061 H   0  0  0  0  0  0  0  0  0  0  0  0
  1  2  1  0
  2  3  2  0
  2  4  1  0
  4  5  1  0
  5  6  1  0
  6  7  1  0
  7  8  1  0
  8  9  1  0
  9 10  2  0
 10 11  1  0
 11 12  2  0
 12 13  1  0
 13 14  2  0
 13 15  1  0
 15 16  1  0
 16 17  1  0
 17 18  1  0
 18 19  1  0
 19 20  1  0
 20 21  2  0
 20 22  1  0
 22 23  1  0
 22 24  1  0
 24 25  1  0
 25 26  2  0
 25 27  1  0
 27 28  1  0
 27 29  1  0
 29 30  1  0
 30 31  2  0
 30 32  1  0
 32 33  1  0
 32 34  1  0
 34 35  1  0
 35 36  2  0
 35 37  1  0
 37 38  1  0
 37 39  1  0
 39 40  1  0
 40 41  2  0
 18 42  1  0
 42 43  2  0
 42 44  1  0
 44 45  1  0
 45 46  1  0
 45 47  1  0
 47 48  2  0
 47 49  1  0
 49 50  1  0
 50 51  1  0
 50 52  1  0
 52 53  2  0
 52 54  1  0
 54 55  1  0
 55 56  1  0
 55 57  1  0
 57 58  2  0
 57 59  1  0
 59 60  1  0
 60 61  1  0
 60 62  1  0
 62 63  2  0
 62 64  1  0
 64 65  1  0
 65 66  1  0
 65 67  1  0
 67 68  2  0
 67 69  1  0
 69 70  1  0
 70 71  1  0
 70 72  1  0
 72 73  2  0
 72 74  1  0
 74 75  1  0
 75 76  1  0
 76 77  1  0
 76 78  2  0
 75 79  1  0
 79 80  1  0
 80 81  1  0
 40  5  1  0
 14  9  1  0
 81 11  1  0
  1 82  1  0
  1 83  1  0
  1 84  1  0
  4 85  1  0
  5 86  1  6
  6 87  1  0
  6 88  1  0
  8 89  1  0
  8 90  1  0
 10 91  1  0
 12 92  1  0
 14 93  1  0
 15 94  1  0
 15 95  1  0
 17 96  1  0
 17 97  1  0
 18 98  1  1
 19 99  1  0
 22100  1  1
 23101  1  0
 23102  1  0
 23103  1  0
 24104  1  0
 27105  1  6
 28106  1  0
 28107  1  0
 28108  1  0
 29109  1  0
 32110  1  6
 33111  1  0
 33112  1  0
 33113  1  0
 34114  1  0
 37115  1  6
 38116  1  0
 38117  1  0
 38118  1  0
 39119  1  0
 44120  1  0
 45121  1  1
 46122  1  0
 46123  1  0
 46124  1  0
 49125  1  0
 50126  1  6
 51127  1  0
 51128  1  0
 51129  1  0
 54130  1  0
 55131  1  6
 56132  1  0
 56133  1  0
 56134  1  0
 59135  1  0
 60136  1  6
 61137  1  0
 61138  1  0
 61139  1  0
 64140  1  0
 65141  1  6
 66142  1  0
 66143  1  0
 66144  1  0
 69145  1  0
 70146  1  6
 71147  1  0
 71148  1  0
 71149  1  0
 74150  1  0
 75151  1  1
 77152  1  0
 77153  1  0
 79154  1  0
 79155  1  0
 81156  1  0
 81157  1  0
M  END
