
     RDKit          3D

147149  0  0  0  0  0  0  0  0999 V2000
    7.7560    7.5222   -0.8704 C   0  0  0  0  0  0  0  0  0  0  0  0
    7.4946    6.2334   -0.1591 C   0  0  0  0  0  0  0  0  0  0  0  0
    8.1558    5.9503    0.8772 O   0  0  0  0  0  0  0  0  0  0  0  0
    6.4940    5.3266   -0.6577 N   0  0  0  0  0  0  0  0  0  0  0  0
    6.1188    4.0881    0.0347 C   0  0  1  0  0  0  0  0  0  0  0  0
    4.6271    4.1337    0.3962 C   0  0  0  0  0  0  0  0  0  0  0  0
    4.1250    2.6352    1.3211 S   0  0  0  0  0  0  0  0  0  0  0  0
    2.5196    3.2761    1.9082 C   0  0  0  0  0  0  0  0  0  0  0  0
    1.4542    3.0774    0.8640 C   0  0  0  0  0  0  0  0  0  0  0  0
    1.0123    4.1589    0.0897 C   0  0  0  0  0  0  0  0  0  0  0  0
   -0.0445    4.0084   -0.8279 C   0  0  0  0  0  0  0  0  0  0  0  0
   -0.6182    2.7383   -1.0017 C   0  0  0  0  0  0  0  0  0  0  0  0
   -0.2242    1.6630   -0.1921 C   0  0  0  0  0  0  0  0  0  0  0  0
    0.8243    1.8354    0.7275 C   0  0  0  0  0  0  0  0  0  0  0  0
   -0.9778    0.3631   -0.2694 C   0  0  0  0  0  0  0  0  0  0  0  0
   -0.5569   -0.5395   -1.7993 S   0  0  0  0  0  0  0  0  0  0  0  0
    0.7169   -1.6455   -1.0834 C   0  0  0  0  0  0  0  0  0  0  0  0
    0.1017   -2.9798   -0.5835 C   0  0  1  0  0  0  0  0  0  0  0  0
    0.9232   -4.1140   -1.0353 N   0  0  0  0  0  0  0  0  0  0  0  0
    2.0390   -4.6731   -0.3167 C   0  0  0  0  0  0  0  0  0  0  0  0
    2.2225   -5.9163   -0.3739 O   0  0  0  0  0  0  0  0  0  0  0  0
    2.9915   -3.8188    0.4965 C   0  0  1  0  0  0  0  0  0  0  0  0
    3.2153   -4.4152    1.8882 C   0  0  0  0  0  0  0  0  0  0  0  0
    4.2724   -3.6250   -0.1926 N   0  0  0  0  0  0  0  0  0  0  0  0
    5.1341   -4.7014   -0.5750 C   0  0  0  0  0  0  0  0  0  0  0  0
    4.7227   -5.5873   -1.3735 O   0  0  0  0  0  0  0  0  0  0  0  0
    6.5609   -4.7138   -0.1035 C   0  0  1  0  0  0  0  0  0  0  0  0
    7.0247   -6.1290    0.2434 C   0  0  0  0  0  0  0  0  0  0  0  0
    7.4260   -4.1491   -1.1381 N   0  0  0  0  0  0  0  0  0  0  0  0
    8.6032   -3.3657   -0.8710 C   0  0  0  0  0  0  0  0  0  0  0  0
    9.4217   -3.1633   -1.8126 O   0  0  0  0  0  0  0  0  0  0  0  0
    8.8316   -2.7127    0.4766 C   0  0  1  0  0  0  0  0  0  0  0  0
   10.2749   -2.2250    0.6693 C   0  0  0  0  0  0  0  0  0  0  0  0
    7.8802   -1.6134    0.6866 N   0  0  0  0  0  0  0  0  0  0  0  0
    7.8705   -0.4054   -0.0906 C   0  0  0  0  0  0  0  0  0  0  0  0
    8.4114   -0.3800   -1.2340 O   0  0  0  0  0  0  0  0  0  0  0  0
    7.1611    0.8243    0.4247 C   0  0  1  0  0  0  0  0  0  0  0  0
    7.5731    1.1285    1.8705 C   0  0  0  0  0  0  0  0  0  0  0  0
    7.4743    1.9879   -0.4074 N   0  0  0  0  0  0  0  0  0  0  0  0
    6.4616    2.9062   -0.8286 C   0  0  0  0  0  0  0  0  0  0  0  0
    5.9208    2.7676   -1.9609 O   0  0  0  0  0  0  0  0  0  0  0  0
   -0.1377   -3.0532    0.9146 C   0  0  0  0  0  0  0  0  0  0  0  0
    0.3503   -2.1767    1.6777 O   0  0  0  0  0  0  0  0  0  0  0  0
   -0.8351   -4.1589    1.5165 N   0  0  0  0  0  0  0  0  0  0  0  0
   -2.0392   -4.8143    0.9754 C   0  0  2  0  0  0  0  0  0  0  0  0
   -1.6985   -5.7684   -0.1727 C   0  0  0  0  0  0  0  0  0  0  0  0
   -3.1089   -3.8111    0.6191 C   0  0  0  0  0  0  0  0  0  0  0  0
   -3.1378   -2.6865    1.1936 O   0  0  0  0  0  0  0  0  0  0  0  0
   -4.1682   -4.1694   -0.2741 N   0  0  0  0  0  0  0  0  0  0  0  0
   -5.5574   -4.2243    0.1872 C   0  0  2  0  0  0  0  0  0  0  0  0
   -5.7142   -5.3560    1.2121 C   0  0  0  0  0  0  0  0  0  0  0  0
   -6.4926   -4.4778   -0.9729 C   0  0  0  0  0  0  0  0  0  0  0  0
   -6.2313   -5.4246   -1.7715 O   0  0  0  0  0  0  0  0  0  0  0  0
   -7.7226   -3.7527   -1.1553 N   0  0  0  0  0  0  0  0  0  0  0  0
   -8.0368   -2.4432   -0.5643 C   0  0  2  0  0  0  0  0  0  0  0  0
   -8.6999   -2.6338    0.8036 C   0  0  0  0  0  0  0  0  0  0  0  0
   -8.9654   -1.6895   -1.4829 C   0  0  0  0  0  0  0  0  0  0  0  0
  -10.0298   -2.2390   -1.8820 O   0  0  0  0  0  0  0  0  0  0  0  0
   -8.6464   -0.3721   -1.9516 N   0  0  0  0  0  0  0  0  0  0  0  0
   -8.4381    0.7494   -1.0226 C   0  0  2  0  0  0  0  0  0  0  0  0
   -9.7958    1.1793   -0.4573 C   0  0  0  0  0  0  0  0  0  0  0  0
   -7.7300    1.9008   -1.7157 C   0  0  0  0  0  0  0  0  0  0  0  0
   -7.5035    1.8278   -2.9555 O   0  0  0  0  0  0  0  0  0  0  0  0
   -7.3210    3.0981   -1.0227 N   0  0  0  0  0  0  0  0  0  0  0  0
   -7.2725    3.2798    0.4316 C   0  0  2  0  0  0  0  0  0  0  0  0
   -8.0738    4.5178    0.8343 C   0  0  0  0  0  0  0  0  0  0  0  0
   -5.8456    3.3899    0.9106 C   0  0  0  0  0  0  0  0  0  0  0  0
   -5.3627    2.4734    1.6233 O   0  0  0  0  0  0  0  0  0  0  0  0
   -5.0704    4.5762    0.6887 N   0  0  0  0  0  0  0  0  0  0  0  0
   -4.5206    4.9192   -0.6254 C   0  0  1  0  0  0  0  0  0  0  0  0
   -5.2053    6.1550   -1.1481 C   0  0  0  0  0  0  0  0  0  0  0  0
   -5.2254    7.3639   -0.3830 N   0  0  0  0  0  0  0  0  0  0  0  0
   -5.7891    6.1221   -2.2641 O   0  0  0  0  0  0  0  0  0  0  0  0
   -3.0012    5.1213   -0.5156 C   0  0  0  0  0  0  0  0  0  0  0  0
   -2.2475    5.1478   -2.1844 S   0  0  0  0  0  0  0  0  0  0  0  0
   -0.4996    5.2108   -1.6299 C   0  0  0  0  0  0  0  0  0  0  0  0
    6.8274    8.1307   -0.8957 H   0  0  0  0  0  0  0  0  0  0  0  0
    8.5564    8.0958   -0.3526 H   0  0  0  0  0  0  0  0  0  0  0  0
    8.0829    7.3081   -1.9103 H   0  0  0  0  0  0  0  0  0  0  0  0
    5.9924    5.5822   -1.5406 H   0  0  0  0  0  0  0  0  0  0  0  0
    6.6904    4.0053    0.9841 H   0  0  0  0  0  0  0  0  0  0  0  0
    4.0114    4.2257   -0.5230 H   0  0  0  0  0  0  0  0  0  0  0  0
    4.4643    5.0254    1.0344 H   0  0  0  0  0  0  0  0  0  0  0  0
    2.2365    2.7296    2.8362 H   0  0  0  0  0  0  0  0  0  0  0  0
    2.6046    4.3438    2.1960 H   0  0  0  0  0  0  0  0  0  0  0  0
    1.4656    5.1363    0.2257 H   0  0  0  0  0  0  0  0  0  0  0  0
   -1.4108    2.5883   -1.7201 H   0  0  0  0  0  0  0  0  0  0  0  0
    1.1261    1.0043    1.3602 H   0  0  0  0  0  0  0  0  0  0  0  0
   -2.0698    0.5823   -0.2851 H   0  0  0  0  0  0  0  0  0  0  0  0
   -0.8092   -0.2586    0.6322 H   0  0  0  0  0  0  0  0  0  0  0  0
    1.4271   -1.8638   -1.9119 H   0  0  0  0  0  0  0  0  0  0  0  0
    1.3089   -1.1147   -0.3114 H   0  0  0  0  0  0  0  0  0  0  0  0
   -0.8922   -3.0729   -1.0660 H   0  0  0  0  0  0  0  0  0  0  0  0
    0.5439   -4.6889   -1.8153 H   0  0  0  0  0  0  0  0  0  0  0  0
    2.5487   -2.8174    0.6500 H   0  0  0  0  0  0  0  0  0  0  0  0
    2.2460   -4.5251    2.4176 H   0  0  0  0  0  0  0  0  0  0  0  0
    3.8679   -3.7383    2.4823 H   0  0  0  0  0  0  0  0  0  0  0  0
    3.7059   -5.4089    1.8153 H   0  0  0  0  0  0  0  0  0  0  0  0
    4.7120   -2.6805   -0.1033 H   0  0  0  0  0  0  0  0  0  0  0  0
    6.6033   -4.1044    0.8211 H   0  0  0  0  0  0  0  0  0  0  0  0
    6.3957   -6.5452    1.0623 H   0  0  0  0  0  0  0  0  0  0  0  0
    6.9676   -6.7965   -0.6416 H   0  0  0  0  0  0  0  0  0  0  0  0
    8.0807   -6.1028    0.5970 H   0  0  0  0  0  0  0  0  0  0  0  0
    7.2997   -4.4939   -2.1176 H   0  0  0  0  0  0  0  0  0  0  0  0
    8.6692   -3.4769    1.2746 H   0  0  0  0  0  0  0  0  0  0  0  0
   10.5590   -1.4910   -0.1139 H   0  0  0  0  0  0  0  0  0  0  0  0
   10.9745   -3.0910    0.6275 H   0  0  0  0  0  0  0  0  0  0  0  0
   10.3758   -1.7347    1.6644 H   0  0  0  0  0  0  0  0  0  0  0  0
    7.1983   -1.7092    1.4750 H   0  0  0  0  0  0  0  0  0  0  0  0
    6.0658    0.6243    0.4018 H   0  0  0  0  0  0  0  0  0  0  0  0
    8.6782    1.2456    1.9428 H   0  0  0  0  0  0  0  0  0  0  0  0
    7.0919    2.0676    2.2203 H   0  0  0  0  0  0  0  0  0  0  0  0
    7.2460    0.3194    2.5580 H   0  0  0  0  0  0  0  0  0  0  0  0
    8.4783    2.2697   -0.5333 H   0  0  0  0  0  0  0  0  0  0  0  0
   -0.6001   -4.3717    2.5124 H   0  0  0  0  0  0  0  0  0  0  0  0
   -2.4622   -5.4459    1.7881 H   0  0  0  0  0  0  0  0  0  0  0  0
   -1.6218   -5.2446   -1.1452 H   0  0  0  0  0  0  0  0  0  0  0  0
   -0.7428   -6.3009    0.0377 H   0  0  0  0  0  0  0  0  0  0  0  0
   -2.4995   -6.5331   -0.2717 H   0  0  0  0  0  0  0  0  0  0  0  0
   -3.9277   -4.3500   -1.2776 H   0  0  0  0  0  0  0  0  0  0  0  0
   -5.8060   -3.2722    0.6988 H   0  0  0  0  0  0  0  0  0  0  0  0
   -6.7772   -5.4471    1.5316 H   0  0  0  0  0  0  0  0  0  0  0  0
   -5.3865   -6.3232    0.7704 H   0  0  0  0  0  0  0  0  0  0  0  0
   -5.0970   -5.1463    2.1101 H   0  0  0  0  0  0  0  0  0  0  0  0
   -8.4536   -4.2245   -1.7420 H   0  0  0  0  0  0  0  0  0  0  0  0
   -7.1041   -1.8526   -0.4490 H   0  0  0  0  0  0  0  0  0  0  0  0
   -9.6239   -3.2500    0.7020 H   0  0  0  0  0  0  0  0  0  0  0  0
   -8.0128   -3.1459    1.5042 H   0  0  0  0  0  0  0  0  0  0  0  0
   -8.9697   -1.6461    1.2364 H   0  0  0  0  0  0  0  0  0  0  0  0
   -9.0353   -0.1366   -2.8918 H   0  0  0  0  0  0  0  0  0  0  0  0
   -7.7853    0.4087   -0.1898 H   0  0  0  0  0  0  0  0  0  0  0  0
   -9.8262    2.2606   -0.1995 H   0  0  0  0  0  0  0  0  0  0  0  0
  -10.0272    0.6007    0.4678 H   0  0  0  0  0  0  0  0  0  0  0  0
  -10.6123    0.9974   -1.1963 H   0  0  0  0  0  0  0  0  0  0  0  0
   -7.0152    3.8962   -1.6193 H   0  0  0  0  0  0  0  0  0  0  0  0
   -7.7363    2.4117    0.9440 H   0  0  0  0  0  0  0  0  0  0  0  0
   -9.1252    4.4243    0.4886 H   0  0  0  0  0  0  0  0  0  0  0  0
   -8.0814    4.6251    1.9379 H   0  0  0  0  0  0  0  0  0  0  0  0
   -7.6429    5.4347    0.3832 H   0  0  0  0  0  0  0  0  0  0  0  0
   -4.7451    5.1047    1.5234 H   0  0  0  0  0  0  0  0  0  0  0  0
   -4.6962    4.0723   -1.3255 H   0  0  0  0  0  0  0  0  0  0  0  0
   -4.6436    7.4563    0.4803 H   0  0  0  0  0  0  0  0  0  0  0  0
   -5.9107    8.1126   -0.6107 H   0  0  0  0  0  0  0  0  0  0  0  0
   -2.5864    4.2800    0.0723 H   0  0  0  0  0  0  0  0  0  0  0  0
   -2.7634    6.0644    0.0170 H   0  0  0  0  0  0  0  0  0  0  0  0
    0.1439    5.2979   -2.5282 H   0  0  0  0  0  0  0  0  0  0  0  0
   -0.3681    6.1408   -1.0288 H   0  0  0  0  0  0  0  0  0  0  0  0
  1  2  1  0
  2  3  2  0
  2  4  1  0
  4  5  1  0
  5  6  1  0
  6  7  1  0
  7  8  1  0
  8  9  1  0
  9 10  2  0
 10 11  1  0
 11 12  2  0
 12 13  1  0
 13 14  2  0
 13 15  1  0
 15 16  1  0
 16 17  1  0
 17 18  1  0
 18 19  1  0
 19 20  1  0
 20 21  2  0
 20 22  1  0
 22 23  1  0
 22 24  1  0
 24 25  1  0
 25 26  2  0
 25 27  1  0
 27 28  1  0
 27 29  1  0
 29 30  1  0
 30 31  2  0
 30 32  1  0
 32 33  1  0
 32 34  1  0
 34 35  1  0
 35 36  2  0
 35 37  1  0
 37 38  1  0
 37 39  1  0
 39 40  1  0
 40 41  2  0
 18 42  1  0
 42 43  2  0
 42 44  1  0
 44 45  1  0
 45 46  1  0
 45 47  1  0
 47 48  2  0
 47 49  1  0
 49 50  1  0
 50 51  1  0
 50 52  1  0
 52 53  2  0
 52 54  1  0
 54 55  1  0
 55 56  1  0
 55 57  1  0
 57 58  2  0
 57 59  1  0
 59 60  1  0
 60 61  1  0
 60 62  1  0
 62 63  2  0
 62 64  1  0
 64 65  1  0
 65 66  1  0
 65 67  1  0
 67 68  2  0
 67 69  1  0
 69 70  1  0
 70 71  1  0
 71 72  1  0
 71 73  2  0
 70 74  1  0
 74 75  1  0
 75 76  1  0
 40  5  1  0
 14  9  1  0
 76 11  1  0
  1 77  1  0
  1 78  1  0
  1 79  1  0
  4 80  1  0
  5 81  1  1
  6 82  1  0
  6 83  1  0
  8 84  1  0
  8 85  1  0
 10 86  1  0
 12 87  1  0
 14 88  1  0
 15 89  1  0
 15 90  1  0
 17 91  1  0
 17 92  1  0
 18 93  1  6
 19 94  1  0
 22 95  1  1
 23 96  1  0
 23 97  1  0
 23 98  1  0
 24 99  1  0
 27100  1  1
 28101  1  0
 28102  1  0
 28103  1  0
 29104  1  0
 32105  1  1
 33106  1  0
 33107  1  0
 33108  1  0
 34109  1  0
 37110  1  1
 38111  1  0
 38112  1  0
 38113  1  0
 39114  1  0
 44115  1  0
 45116  1  1
 46117  1  0
 46118  1  0
 46119  1  0
 49120  1  0
 50121  1  1
 51122  1  0
 51123  1  0
 51124  1  0
 54125  1  0
 55126  1  1
 56127  1  0
 56128  1  0
 56129  1  0
 59130  1  0
 60131  1  1
 61132  1  0
 61133  1  0
 61134  1  0
 64135  1  0
 65136  1  1
 66137  1  0
 66138  1  0
 66139  1  0
 69140  1  0
 70141  1  6
 72142  1  0
 72143  1  0
 74144  1  0
 74145  1  0
 76146  1  0
 76147  1  0
M  END
