
     RDKit          3D

147149  0  0  0  0  0  0  0  0999 V2000
  -10.6380   -2.4811   -0.0031 C   0  0  0  0  0  0  0  0  0  0  0  0
   -9.7805   -1.6970    0.9381 C   0  0  0  0  0  0  0  0  0  0  0  0
  -10.1731   -1.5386    2.1226 O   0  0  0  0  0  0  0  0  0  0  0  0
   -8.5192   -1.1356    0.5432 N   0  0  0  0  0  0  0  0  0  0  0  0
   -7.9021   -1.3379   -0.7722 C   0  0  2  0  0  0  0  0  0  0  0  0
   -6.5184   -1.9673   -0.6012 C   0  0  0  0  0  0  0  0  0  0  0  0
   -6.6461   -3.6699    0.0618 S   0  0  0  0  0  0  0  0  0  0  0  0
   -6.0987   -3.3296    1.7742 C   0  0  0  0  0  0  0  0  0  0  0  0
   -4.6579   -2.8971    1.7959 C   0  0  0  0  0  0  0  0  0  0  0  0
   -3.6493   -3.7603    1.3213 C   0  0  0  0  0  0  0  0  0  0  0  0
   -2.3140   -3.3154    1.2267 C   0  0  0  0  0  0  0  0  0  0  0  0
   -2.0160   -1.9842    1.5544 C   0  0  0  0  0  0  0  0  0  0  0  0
   -3.0250   -1.1061    2.0093 C   0  0  0  0  0  0  0  0  0  0  0  0
   -4.3312   -1.5936    2.1869 C   0  0  0  0  0  0  0  0  0  0  0  0
   -2.6678    0.3327    2.3092 C   0  0  0  0  0  0  0  0  0  0  0  0
   -4.0802    1.4984    2.1450 S   0  0  0  0  0  0  0  0  0  0  0  0
   -4.1202    1.5788    0.3017 C   0  0  0  0  0  0  0  0  0  0  0  0
   -4.3686    3.0076   -0.2611 C   0  0  1  0  0  0  0  0  0  0  0  0
   -5.5304    3.0363   -1.1745 N   0  0  0  0  0  0  0  0  0  0  0  0
   -6.9101    3.1345   -0.7734 C   0  0  0  0  0  0  0  0  0  0  0  0
   -7.5846    4.1226   -1.1638 O   0  0  0  0  0  0  0  0  0  0  0  0
   -7.6094    2.0130   -0.0417 C   0  0  1  0  0  0  0  0  0  0  0  0
   -8.5828    2.5530    1.0071 C   0  0  0  0  0  0  0  0  0  0  0  0
   -8.3397    1.1882   -1.0047 N   0  0  0  0  0  0  0  0  0  0  0  0
   -7.7916   -0.0274   -1.5225 C   0  0  0  0  0  0  0  0  0  0  0  0
   -7.2689   -0.0224   -2.6742 O   0  0  0  0  0  0  0  0  0  0  0  0
   -4.4489    4.1063    0.7878 C   0  0  0  0  0  0  0  0  0  0  0  0
   -5.5515    4.3122    1.3626 O   0  0  0  0  0  0  0  0  0  0  0  0
   -3.3124    4.8895    1.2073 N   0  0  0  0  0  0  0  0  0  0  0  0
   -1.9658    4.8350    0.6213 C   0  0  2  0  0  0  0  0  0  0  0  0
   -1.2359    3.5508    1.0226 C   0  0  0  0  0  0  0  0  0  0  0  0
   -1.1496    6.0106    1.0904 C   0  0  0  0  0  0  0  0  0  0  0  0
   -0.8109    6.1091    2.3023 O   0  0  0  0  0  0  0  0  0  0  0  0
   -0.7087    6.9903    0.1538 N   0  0  0  0  0  0  0  0  0  0  0  0
    0.6975    7.0646   -0.2499 C   0  0  2  0  0  0  0  0  0  0  0  0
    1.2667    8.4443    0.1016 C   0  0  0  0  0  0  0  0  0  0  0  0
    0.8192    6.7854   -1.7332 C   0  0  0  0  0  0  0  0  0  0  0  0
   -0.0950    7.1746   -2.5123 O   0  0  0  0  0  0  0  0  0  0  0  0
    1.9235    6.0497   -2.2825 N   0  0  0  0  0  0  0  0  0  0  0  0
    3.3064    6.2226   -1.8207 C   0  0  2  0  0  0  0  0  0  0  0  0
    3.8667    7.5457   -2.3579 C   0  0  0  0  0  0  0  0  0  0  0  0
    4.1642    5.0730   -2.3060 C   0  0  0  0  0  0  0  0  0  0  0  0
    4.1138    4.7498   -3.5238 O   0  0  0  0  0  0  0  0  0  0  0  0
    4.9981    4.3013   -1.4204 N   0  0  0  0  0  0  0  0  0  0  0  0
    5.7891    4.8699   -0.3231 C   0  0  2  0  0  0  0  0  0  0  0  0
    7.0245    5.6037   -0.8625 C   0  0  0  0  0  0  0  0  0  0  0  0
    6.1844    3.7743    0.6410 C   0  0  0  0  0  0  0  0  0  0  0  0
    5.6478    3.7434    1.7805 O   0  0  0  0  0  0  0  0  0  0  0  0
    7.0951    2.7341    0.2379 N   0  0  0  0  0  0  0  0  0  0  0  0
    7.3610    1.5565    1.0685 C   0  0  2  0  0  0  0  0  0  0  0  0
    8.8706    1.2832    1.0807 C   0  0  0  0  0  0  0  0  0  0  0  0
    6.5932    0.3619    0.5546 C   0  0  0  0  0  0  0  0  0  0  0  0
    5.9022    0.4460   -0.4935 O   0  0  0  0  0  0  0  0  0  0  0  0
    6.6047   -0.8656    1.3047 N   0  0  0  0  0  0  0  0  0  0  0  0
    5.6701   -1.9712    1.0304 C   0  0  2  0  0  0  0  0  0  0  0  0
    5.1668   -2.5626    2.3476 C   0  0  0  0  0  0  0  0  0  0  0  0
    6.3435   -3.0361    0.2026 C   0  0  0  0  0  0  0  0  0  0  0  0
    7.6030   -3.1232    0.1892 O   0  0  0  0  0  0  0  0  0  0  0  0
    5.5445   -3.9585   -0.5568 N   0  0  0  0  0  0  0  0  0  0  0  0
    6.1033   -5.1716   -1.1497 C   0  0  2  0  0  0  0  0  0  0  0  0
    5.3342   -5.5495   -2.4239 C   0  0  0  0  0  0  0  0  0  0  0  0
    6.1366   -6.2922   -0.1404 C   0  0  0  0  0  0  0  0  0  0  0  0
    7.1155   -6.3681    0.6508 O   0  0  0  0  0  0  0  0  0  0  0  0
    5.1508   -7.3318   -0.1061 N   0  0  0  0  0  0  0  0  0  0  0  0
    3.7203   -7.0751    0.0851 C   0  0  2  0  0  0  0  0  0  0  0  0
    3.3099   -7.5951    1.4689 C   0  0  0  0  0  0  0  0  0  0  0  0
    2.9208   -7.7550   -1.0050 C   0  0  0  0  0  0  0  0  0  0  0  0
    3.4713   -8.6568   -1.7030 O   0  0  0  0  0  0  0  0  0  0  0  0
    1.5300   -7.4600   -1.2469 N   0  0  0  0  0  0  0  0  0  0  0  0
    0.8165   -6.2857   -0.7296 C   0  0  1  0  0  0  0  0  0  0  0  0
    1.0343   -5.1172   -1.6593 C   0  0  0  0  0  0  0  0  0  0  0  0
    0.6483   -5.1952   -3.0359 N   0  0  0  0  0  0  0  0  0  0  0  0
    1.5735   -4.0684   -1.2233 O   0  0  0  0  0  0  0  0  0  0  0  0
   -0.6938   -6.6025   -0.5833 C   0  0  0  0  0  0  0  0  0  0  0  0
   -1.4241   -5.9419    0.9671 S   0  0  0  0  0  0  0  0  0  0  0  0
   -1.2481   -4.1628    0.5758 C   0  0  0  0  0  0  0  0  0  0  0  0
  -10.0927   -3.3778   -0.3508 H   0  0  0  0  0  0  0  0  0  0  0  0
  -10.9375   -1.8464   -0.8671 H   0  0  0  0  0  0  0  0  0  0  0  0
  -11.5648   -2.8179    0.5226 H   0  0  0  0  0  0  0  0  0  0  0  0
   -7.9891   -0.5847    1.2546 H   0  0  0  0  0  0  0  0  0  0  0  0
   -8.5018   -2.0243   -1.4003 H   0  0  0  0  0  0  0  0  0  0  0  0
   -6.0348   -2.0666   -1.6017 H   0  0  0  0  0  0  0  0  0  0  0  0
   -5.8573   -1.3085    0.0019 H   0  0  0  0  0  0  0  0  0  0  0  0
   -6.2230   -4.2512    2.3696 H   0  0  0  0  0  0  0  0  0  0  0  0
   -6.7628   -2.5540    2.2166 H   0  0  0  0  0  0  0  0  0  0  0  0
   -3.9299   -4.7425    0.9741 H   0  0  0  0  0  0  0  0  0  0  0  0
   -1.0053   -1.6155    1.4062 H   0  0  0  0  0  0  0  0  0  0  0  0
   -5.1131   -0.9535    2.5715 H   0  0  0  0  0  0  0  0  0  0  0  0
   -1.8542    0.6595    1.6230 H   0  0  0  0  0  0  0  0  0  0  0  0
   -2.2683    0.4025    3.3446 H   0  0  0  0  0  0  0  0  0  0  0  0
   -3.1695    1.1864   -0.1243 H   0  0  0  0  0  0  0  0  0  0  0  0
   -4.8772    0.8604   -0.0734 H   0  0  0  0  0  0  0  0  0  0  0  0
   -3.4864    3.2329   -0.8966 H   0  0  0  0  0  0  0  0  0  0  0  0
   -5.3269    3.3344   -2.1571 H   0  0  0  0  0  0  0  0  0  0  0  0
   -6.8702    1.3968    0.4973 H   0  0  0  0  0  0  0  0  0  0  0  0
   -9.4237    3.0899    0.5216 H   0  0  0  0  0  0  0  0  0  0  0  0
   -9.0065    1.7103    1.5976 H   0  0  0  0  0  0  0  0  0  0  0  0
   -8.0603    3.2484    1.7016 H   0  0  0  0  0  0  0  0  0  0  0  0
   -9.0609    1.6656   -1.5970 H   0  0  0  0  0  0  0  0  0  0  0  0
   -3.5026    5.6158    1.9360 H   0  0  0  0  0  0  0  0  0  0  0  0
   -2.0403    4.8932   -0.4863 H   0  0  0  0  0  0  0  0  0  0  0  0
   -1.5728    2.6980    0.3998 H   0  0  0  0  0  0  0  0  0  0  0  0
   -1.4279    3.3160    2.0899 H   0  0  0  0  0  0  0  0  0  0  0  0
   -0.1418    3.6476    0.8676 H   0  0  0  0  0  0  0  0  0  0  0  0
   -1.4225    7.5936   -0.3186 H   0  0  0  0  0  0  0  0  0  0  0  0
    1.2667    6.2981    0.3144 H   0  0  0  0  0  0  0  0  0  0  0  0
    0.9564    8.7309    1.1279 H   0  0  0  0  0  0  0  0  0  0  0  0
    0.8995    9.2129   -0.6101 H   0  0  0  0  0  0  0  0  0  0  0  0
    2.3782    8.4094    0.0791 H   0  0  0  0  0  0  0  0  0  0  0  0
    1.7800    5.6537   -3.2409 H   0  0  0  0  0  0  0  0  0  0  0  0
    3.3187    6.2487   -0.7109 H   0  0  0  0  0  0  0  0  0  0  0  0
    4.0497    7.4836   -3.4554 H   0  0  0  0  0  0  0  0  0  0  0  0
    3.1369    8.3713   -2.1827 H   0  0  0  0  0  0  0  0  0  0  0  0
    4.8124    7.8063   -1.8443 H   0  0  0  0  0  0  0  0  0  0  0  0
    5.2347    3.3339   -1.7333 H   0  0  0  0  0  0  0  0  0  0  0  0
    5.1760    5.6047    0.2431 H   0  0  0  0  0  0  0  0  0  0  0  0
    7.6729    5.9338   -0.0293 H   0  0  0  0  0  0  0  0  0  0  0  0
    6.7051    6.5043   -1.4275 H   0  0  0  0  0  0  0  0  0  0  0  0
    7.5977    4.9521   -1.5467 H   0  0  0  0  0  0  0  0  0  0  0  0
    7.5046    2.7673   -0.7279 H   0  0  0  0  0  0  0  0  0  0  0  0
    7.0456    1.7469    2.1199 H   0  0  0  0  0  0  0  0  0  0  0  0
    9.1195    0.5929    1.9182 H   0  0  0  0  0  0  0  0  0  0  0  0
    9.2187    0.8088    0.1309 H   0  0  0  0  0  0  0  0  0  0  0  0
    9.4350    2.2243    1.2380 H   0  0  0  0  0  0  0  0  0  0  0  0
    7.2347   -0.9391    2.1375 H   0  0  0  0  0  0  0  0  0  0  0  0
    4.7878   -1.5862    0.4738 H   0  0  0  0  0  0  0  0  0  0  0  0
    4.6085   -1.7810    2.9086 H   0  0  0  0  0  0  0  0  0  0  0  0
    6.0237   -2.9081    2.9797 H   0  0  0  0  0  0  0  0  0  0  0  0
    4.4816   -3.4207    2.1633 H   0  0  0  0  0  0  0  0  0  0  0  0
    4.5021   -3.8658   -0.4924 H   0  0  0  0  0  0  0  0  0  0  0  0
    7.1554   -4.9826   -1.4792 H   0  0  0  0  0  0  0  0  0  0  0  0
    5.6311   -6.5563   -2.7863 H   0  0  0  0  0  0  0  0  0  0  0  0
    5.5532   -4.8136   -3.2237 H   0  0  0  0  0  0  0  0  0  0  0  0
    4.2366   -5.5417   -2.2472 H   0  0  0  0  0  0  0  0  0  0  0  0
    5.4896   -8.3080    0.0376 H   0  0  0  0  0  0  0  0  0  0  0  0
    3.5282   -5.9812    0.0503 H   0  0  0  0  0  0  0  0  0  0  0  0
    3.4570   -8.6939    1.5236 H   0  0  0  0  0  0  0  0  0  0  0  0
    3.9403   -7.1124    2.2503 H   0  0  0  0  0  0  0  0  0  0  0  0
    2.2506   -7.3677    1.6924 H   0  0  0  0  0  0  0  0  0  0  0  0
    1.0523   -8.0292   -1.9850 H   0  0  0  0  0  0  0  0  0  0  0  0
    1.2105   -6.0196    0.2705 H   0  0  0  0  0  0  0  0  0  0  0  0
    0.2423   -6.0680   -3.4374 H   0  0  0  0  0  0  0  0  0  0  0  0
    0.7828   -4.3648   -3.6544 H   0  0  0  0  0  0  0  0  0  0  0  0
   -0.8259   -7.7098   -0.5332 H   0  0  0  0  0  0  0  0  0  0  0  0
   -1.2810   -6.2540   -1.4625 H   0  0  0  0  0  0  0  0  0  0  0  0
   -0.2484   -3.8504    0.9591 H   0  0  0  0  0  0  0  0  0  0  0  0
   -1.2508   -3.9819   -0.5221 H   0  0  0  0  0  0  0  0  0  0  0  0
  1  2  1  0
  2  3  2  0
  2  4  1  0
  4  5  1  0
  5  6  1  0
  6  7  1  0
  7  8  1  0
  8  9  1  0
  9 10  1  0
 10 11  2  0
 11 12  1  0
 12 13  2  0
 13 14  1  0
 13 15  1  0
 15 16  1  0
 16 17  1  0
 17 18  1  0
 18 19  1  0
 19 20  1  0
 20 21  2  0
 20 22  1  0
 22 23  1  0
 22 24  1  0
 24 25  1  0
 25 26  2  0
 18 27  1  0
 27 28  2  0
 27 29  1  0
 29 30  1  0
 30 31  1  0
 30 32  1  0
 32 33  2  0
 32 34  1  0
 34 35  1  0
 35 36  1  0
 35 37  1  0
 37 38  2  0
 37 39  1  0
 39 40  1  0
 40 41  1  0
 40 42  1  0
 42 43  2  0
 42 44  1  0
 44 45  1  0
 45 46  1  0
 45 47  1  0
 47 48  2  0
 47 49  1  0
 49 50  1  0
 50 51  1  0
 50 52  1  0
 52 53  2  0
 52 54  1  0
 54 55  1  0
 55 56  1  0
 55 57  1  0
 57 58  2  0
 57 59  1  0
 59 60  1  0
 60 61  1  0
 60 62  1  0
 62 63  2  0
 62 64  1  0
 64 65  1  0
 65 66  1  0
 65 67  1  0
 67 68  2  0
 67 69  1  0
 69 70  1  0
 70 71  1  0
 71 72  1  0
 71 73  2  0
 70 74  1  0
 74 75  1  0
 75 76  1  0
 25  5  1  0
 14  9  2  0
 76 11  1  0
  1 77  1  0
  1 78  1  0
  1 79  1  0
  4 80  1  0
  5 81  1  6
  6 82  1  0
  6 83  1  0
  8 84  1  0
  8 85  1  0
 10 86  1  0
 12 87  1  0
 14 88  1  0
 15 89  1  0
 15 90  1  0
 17 91  1  0
 17 92  1  0
 18 93  1  6
 19 94  1  0
 22 95  1  1
 23 96  1  0
 23 97  1  0
 23 98  1  0
 24 99  1  0
 29100  1  0
 30101  1  6
 31102  1  0
 31103  1  0
 31104  1  0
 34105  1  0
 35106  1  1
 36107  1  0
 36108  1  0
 36109  1  0
 39110  1  0
 40111  1  1
 41112  1  0
 41113  1  0
 41114  1  0
 44115  1  0
 45116  1  1
 46117  1  0
 46118  1  0
 46119  1  0
 49120  1  0
 50121  1  1
 51122  1  0
 51123  1  0
 51124  1  0
 54125  1  0
 55126  1  6
 56127  1  0
 56128  1  0
 56129  1  0
 59130  1  0
 60131  1  6
 61132  1  0
 61133  1  0
 61134  1  0
 64135  1  0
 65136  1  1
 66137  1  0
 66138  1  0
 66139  1  0
 69140  1  0
 70141  1  1
 72142  1  0
 72143  1  0
 74144  1  0
 74145  1  0
 76146  1  0
 76147  1  0
M  END
