
     RDKit          3D

147149  0  0  0  0  0  0  0  0999 V2000
    6.4186   -6.9101   -0.2005 C   0  0  0  0  0  0  0  0  0  0  0  0
    6.6620   -5.4464   -0.3791 C   0  0  0  0  0  0  0  0  0  0  0  0
    6.8530   -4.7258    0.6385 O   0  0  0  0  0  0  0  0  0  0  0  0
    6.7272   -4.8765   -1.6979 N   0  0  0  0  0  0  0  0  0  0  0  0
    6.7542   -3.4286   -1.9599 C   0  0  1  0  0  0  0  0  0  0  0  0
    5.4478   -2.7749   -1.4773 C   0  0  0  0  0  0  0  0  0  0  0  0
    4.0159   -3.4607   -2.3962 S   0  0  0  0  0  0  0  0  0  0  0  0
    3.1303   -4.2021   -0.9756 C   0  0  0  0  0  0  0  0  0  0  0  0
    2.0346   -3.2853   -0.4946 C   0  0  0  0  0  0  0  0  0  0  0  0
    2.3528   -2.0603    0.1127 C   0  0  0  0  0  0  0  0  0  0  0  0
    1.3433   -1.1966    0.5725 C   0  0  0  0  0  0  0  0  0  0  0  0
    0.0000   -1.6084    0.4728 C   0  0  0  0  0  0  0  0  0  0  0  0
   -0.3307   -2.8143   -0.1594 C   0  0  0  0  0  0  0  0  0  0  0  0
    0.6875   -3.6470   -0.6466 C   0  0  0  0  0  0  0  0  0  0  0  0
   -1.7631   -3.2545   -0.2353 C   0  0  0  0  0  0  0  0  0  0  0  0
   -2.1712   -4.1608    1.2980 S   0  0  0  0  0  0  0  0  0  0  0  0
   -3.0559   -5.5611    0.5190 C   0  0  0  0  0  0  0  0  0  0  0  0
   -4.5004   -5.1779    0.1667 C   0  0  1  0  0  0  0  0  0  0  0  0
   -5.1455   -6.3123   -0.5870 C   0  0  0  0  0  0  0  0  0  0  0  0
   -5.5308   -7.5169    0.0776 N   0  0  0  0  0  0  0  0  0  0  0  0
   -5.3268   -6.2040   -1.8290 O   0  0  0  0  0  0  0  0  0  0  0  0
   -5.2660   -4.8733    1.3898 N   0  0  0  0  0  0  0  0  0  0  0  0
   -6.5807   -4.2850    1.4172 C   0  0  0  0  0  0  0  0  0  0  0  0
   -7.1117   -4.0468    2.5348 O   0  0  0  0  0  0  0  0  0  0  0  0
   -7.3766   -3.9987    0.1646 C   0  0  1  0  0  0  0  0  0  0  0  0
   -8.4680   -5.0641   -0.0022 C   0  0  0  0  0  0  0  0  0  0  0  0
   -7.9857   -2.6690    0.2477 N   0  0  0  0  0  0  0  0  0  0  0  0
   -7.2325   -1.4710   -0.0070 C   0  0  0  0  0  0  0  0  0  0  0  0
   -5.9748   -1.5253   -0.1237 O   0  0  0  0  0  0  0  0  0  0  0  0
   -7.9191   -0.1278   -0.1011 C   0  0  1  0  0  0  0  0  0  0  0  0
   -9.0761   -0.1732   -1.1053 C   0  0  0  0  0  0  0  0  0  0  0  0
   -8.4176    0.2591    1.2228 N   0  0  0  0  0  0  0  0  0  0  0  0
   -8.3764    1.5770    1.8070 C   0  0  0  0  0  0  0  0  0  0  0  0
   -9.1570    1.8156    2.7708 O   0  0  0  0  0  0  0  0  0  0  0  0
   -7.3900    2.6602    1.4003 C   0  0  1  0  0  0  0  0  0  0  0  0
   -8.1063    4.0144    1.3280 C   0  0  0  0  0  0  0  0  0  0  0  0
   -6.3138    2.7282    2.3949 N   0  0  0  0  0  0  0  0  0  0  0  0
   -4.9941    3.2369    2.1205 C   0  0  0  0  0  0  0  0  0  0  0  0
   -4.4446    3.9818    2.9775 O   0  0  0  0  0  0  0  0  0  0  0  0
   -4.2189    2.8976    0.8649 C   0  0  1  0  0  0  0  0  0  0  0  0
   -4.4008    1.4251    0.4366 C   0  0  0  0  0  0  0  0  0  0  0  0
   -4.5671    3.8297   -0.2228 N   0  0  0  0  0  0  0  0  0  0  0  0
   -3.7800    4.0645   -1.4090 C   0  0  0  0  0  0  0  0  0  0  0  0
   -4.1069    5.0155   -2.1687 O   0  0  0  0  0  0  0  0  0  0  0  0
   -2.6471    3.1587   -1.8287 C   0  0  1  0  0  0  0  0  0  0  0  0
   -3.1286    2.1774   -2.8985 C   0  0  0  0  0  0  0  0  0  0  0  0
   -1.5264    3.9399   -2.3693 N   0  0  0  0  0  0  0  0  0  0  0  0
   -0.1507    3.6427   -2.0632 C   0  0  0  0  0  0  0  0  0  0  0  0
    0.7095    3.6959   -2.9857 O   0  0  0  0  0  0  0  0  0  0  0  0
    0.2827    3.2953   -0.6609 C   0  0  1  0  0  0  0  0  0  0  0  0
    0.3631    1.7661   -0.4781 C   0  0  0  0  0  0  0  0  0  0  0  0
    0.4329    1.3697    1.3151 S   0  0  0  0  0  0  0  0  0  0  0  0
    1.7580    0.1078    1.2168 C   0  0  0  0  0  0  0  0  0  0  0  0
    1.5947    3.8903   -0.3639 N   0  0  0  0  0  0  0  0  0  0  0  0
    1.8911    5.2900   -0.5038 C   0  0  0  0  0  0  0  0  0  0  0  0
    0.9536    6.1205   -0.6416 O   0  0  0  0  0  0  0  0  0  0  0  0
    3.3222    5.7568   -0.4350 C   0  0  1  0  0  0  0  0  0  0  0  0
    3.6193    6.7552   -1.5527 C   0  0  0  0  0  0  0  0  0  0  0  0
    3.5987    6.3754    0.8614 N   0  0  0  0  0  0  0  0  0  0  0  0
    4.8019    6.1814    1.6436 C   0  0  0  0  0  0  0  0  0  0  0  0
    5.1368    7.0909    2.4535 O   0  0  0  0  0  0  0  0  0  0  0  0
    5.6285    4.9080    1.6318 C   0  0  1  0  0  0  0  0  0  0  0  0
    4.7939    3.7204    2.1398 C   0  0  0  0  0  0  0  0  0  0  0  0
    6.2479    4.6787    0.3159 N   0  0  0  0  0  0  0  0  0  0  0  0
    6.3446    3.4057   -0.3484 C   0  0  0  0  0  0  0  0  0  0  0  0
    5.6315    3.1978   -1.3610 O   0  0  0  0  0  0  0  0  0  0  0  0
    7.3114    2.3231    0.0829 C   0  0  1  0  0  0  0  0  0  0  0  0
    8.3021    2.7901    1.1613 C   0  0  0  0  0  0  0  0  0  0  0  0
    6.5710    1.1376    0.5348 N   0  0  0  0  0  0  0  0  0  0  0  0
    7.1252   -0.1804    0.6773 C   0  0  0  0  0  0  0  0  0  0  0  0
    6.4730   -1.0332    1.3429 O   0  0  0  0  0  0  0  0  0  0  0  0
    8.3974   -0.6183   -0.0153 C   0  0  1  0  0  0  0  0  0  0  0  0
    9.2875   -1.4229    0.9428 C   0  0  0  0  0  0  0  0  0  0  0  0
    8.0537   -1.3495   -1.2444 N   0  0  0  0  0  0  0  0  0  0  0  0
    7.9744   -2.7788   -1.3494 C   0  0  0  0  0  0  0  0  0  0  0  0
    8.9883   -3.4877   -1.0773 O   0  0  0  0  0  0  0  0  0  0  0  0
    5.4787   -7.0632    0.3696 H   0  0  0  0  0  0  0  0  0  0  0  0
    7.2696   -7.3623    0.3569 H   0  0  0  0  0  0  0  0  0  0  0  0
    6.3214   -7.4201   -1.1827 H   0  0  0  0  0  0  0  0  0  0  0  0
    6.7406   -5.5214   -2.5208 H   0  0  0  0  0  0  0  0  0  0  0  0
    6.8252   -3.2657   -3.0594 H   0  0  0  0  0  0  0  0  0  0  0  0
    5.3520   -2.8833   -0.3790 H   0  0  0  0  0  0  0  0  0  0  0  0
    5.4685   -1.6855   -1.6901 H   0  0  0  0  0  0  0  0  0  0  0  0
    2.6991   -5.1618   -1.3308 H   0  0  0  0  0  0  0  0  0  0  0  0
    3.8066   -4.4585   -0.1329 H   0  0  0  0  0  0  0  0  0  0  0  0
    3.3894   -1.7697    0.2289 H   0  0  0  0  0  0  0  0  0  0  0  0
   -0.7924   -0.9935    0.8722 H   0  0  0  0  0  0  0  0  0  0  0  0
    0.4280   -4.5837   -1.1170 H   0  0  0  0  0  0  0  0  0  0  0  0
   -1.9247   -3.8654   -1.1516 H   0  0  0  0  0  0  0  0  0  0  0  0
   -2.4298   -2.3679   -0.3179 H   0  0  0  0  0  0  0  0  0  0  0  0
   -2.5106   -5.9060   -0.3842 H   0  0  0  0  0  0  0  0  0  0  0  0
   -3.0536   -6.4127    1.2334 H   0  0  0  0  0  0  0  0  0  0  0  0
   -4.4649   -4.2711   -0.4785 H   0  0  0  0  0  0  0  0  0  0  0  0
   -5.9308   -8.3140   -0.4706 H   0  0  0  0  0  0  0  0  0  0  0  0
   -5.4508   -7.6045    1.1150 H   0  0  0  0  0  0  0  0  0  0  0  0
   -4.8457   -5.1013    2.3215 H   0  0  0  0  0  0  0  0  0  0  0  0
   -6.7397   -4.0386   -0.7429 H   0  0  0  0  0  0  0  0  0  0  0  0
   -9.0452   -4.8725   -0.9310 H   0  0  0  0  0  0  0  0  0  0  0  0
   -8.0126   -6.0748   -0.0826 H   0  0  0  0  0  0  0  0  0  0  0  0
   -9.1687   -5.0515    0.8594 H   0  0  0  0  0  0  0  0  0  0  0  0
   -8.9998   -2.5842    0.4760 H   0  0  0  0  0  0  0  0  0  0  0  0
   -7.1890    0.6003   -0.4886 H   0  0  0  0  0  0  0  0  0  0  0  0
   -9.8978   -0.8278   -0.7463 H   0  0  0  0  0  0  0  0  0  0  0  0
   -8.7163   -0.5439   -2.0888 H   0  0  0  0  0  0  0  0  0  0  0  0
   -9.4824    0.8512   -1.2412 H   0  0  0  0  0  0  0  0  0  0  0  0
   -9.0276   -0.4333    1.7123 H   0  0  0  0  0  0  0  0  0  0  0  0
   -6.9672    2.4794    0.3986 H   0  0  0  0  0  0  0  0  0  0  0  0
   -8.9247    3.9705    0.5767 H   0  0  0  0  0  0  0  0  0  0  0  0
   -7.3999    4.8168    1.0335 H   0  0  0  0  0  0  0  0  0  0  0  0
   -8.5358    4.2905    2.3190 H   0  0  0  0  0  0  0  0  0  0  0  0
   -6.6019    2.7273    3.3999 H   0  0  0  0  0  0  0  0  0  0  0  0
   -3.1456    3.0461    1.1137 H   0  0  0  0  0  0  0  0  0  0  0  0
   -4.8260    0.8095    1.2551 H   0  0  0  0  0  0  0  0  0  0  0  0
   -3.4216    0.9717    0.1782 H   0  0  0  0  0  0  0  0  0  0  0  0
   -5.0580    1.3457   -0.4462 H   0  0  0  0  0  0  0  0  0  0  0  0
   -5.3953    4.4523   -0.0934 H   0  0  0  0  0  0  0  0  0  0  0  0
   -2.3021    2.5787   -0.9594 H   0  0  0  0  0  0  0  0  0  0  0  0
   -3.4982    2.7263   -3.7935 H   0  0  0  0  0  0  0  0  0  0  0  0
   -3.9373    1.5299   -2.5058 H   0  0  0  0  0  0  0  0  0  0  0  0
   -2.2878    1.5221   -3.2120 H   0  0  0  0  0  0  0  0  0  0  0  0
   -1.7060    4.5271   -3.2156 H   0  0  0  0  0  0  0  0  0  0  0  0
   -0.4603    3.7153    0.0524 H   0  0  0  0  0  0  0  0  0  0  0  0
    1.2462    1.3753   -1.0230 H   0  0  0  0  0  0  0  0  0  0  0  0
   -0.5277    1.2588   -0.8947 H   0  0  0  0  0  0  0  0  0  0  0  0
    2.1090   -0.1046    2.2487 H   0  0  0  0  0  0  0  0  0  0  0  0
    2.6189    0.5422    0.6644 H   0  0  0  0  0  0  0  0  0  0  0  0
    2.3327    3.2830    0.0762 H   0  0  0  0  0  0  0  0  0  0  0  0
    3.9628    4.8764   -0.5924 H   0  0  0  0  0  0  0  0  0  0  0  0
    3.0153    7.6838   -1.4301 H   0  0  0  0  0  0  0  0  0  0  0  0
    4.6982    7.0343   -1.5297 H   0  0  0  0  0  0  0  0  0  0  0  0
    3.3978    6.3033   -2.5437 H   0  0  0  0  0  0  0  0  0  0  0  0
    2.9825    7.1711    1.1449 H   0  0  0  0  0  0  0  0  0  0  0  0
    6.4591    5.0496    2.3607 H   0  0  0  0  0  0  0  0  0  0  0  0
    4.1655    3.2969    1.3406 H   0  0  0  0  0  0  0  0  0  0  0  0
    4.1382    4.0342    2.9842 H   0  0  0  0  0  0  0  0  0  0  0  0
    5.4644    2.9266    2.5305 H   0  0  0  0  0  0  0  0  0  0  0  0
    6.4784    5.5213   -0.2590 H   0  0  0  0  0  0  0  0  0  0  0  0
    7.8903    2.0700   -0.8305 H   0  0  0  0  0  0  0  0  0  0  0  0
    9.0547    1.9997    1.3571 H   0  0  0  0  0  0  0  0  0  0  0  0
    7.7811    3.0083    2.1125 H   0  0  0  0  0  0  0  0  0  0  0  0
    8.8383    3.7025    0.8222 H   0  0  0  0  0  0  0  0  0  0  0  0
    5.5935    1.2694    0.8778 H   0  0  0  0  0  0  0  0  0  0  0  0
    9.0023    0.2592   -0.3082 H   0  0  0  0  0  0  0  0  0  0  0  0
    9.5559   -0.7968    1.8211 H   0  0  0  0  0  0  0  0  0  0  0  0
   10.2304   -1.7149    0.4317 H   0  0  0  0  0  0  0  0  0  0  0  0
    8.7660   -2.3359    1.3057 H   0  0  0  0  0  0  0  0  0  0  0  0
    7.6365   -0.7878   -2.0218 H   0  0  0  0  0  0  0  0  0  0  0  0
  1  2  1  0
  2  3  2  0
  2  4  1  0
  4  5  1  0
  5  6  1  0
  6  7  1  0
  7  8  1  0
  8  9  1  0
  9 10  2  0
 10 11  1  0
 11 12  2  0
 12 13  1  0
 13 14  2  0
 13 15  1  0
 15 16  1  0
 16 17  1  0
 17 18  1  0
 18 19  1  0
 19 20  1  0
 19 21  2  0
 18 22  1  0
 22 23  1  0
 23 24  2  0
 23 25  1  0
 25 26  1  0
 25 27  1  0
 27 28  1  0
 28 29  2  0
 28 30  1  0
 30 31  1  0
 30 32  1  0
 32 33  1  0
 33 34  2  0
 33 35  1  0
 35 36  1  0
 35 37  1  0
 37 38  1  0
 38 39  2  0
 38 40  1  0
 40 41  1  0
 40 42  1  0
 42 43  1  0
 43 44  2  0
 43 45  1  0
 45 46  1  0
 45 47  1  0
 47 48  1  0
 48 49  2  0
 48 50  1  0
 50 51  1  0
 51 52  1  0
 52 53  1  0
 50 54  1  0
 54 55  1  0
 55 56  2  0
 55 57  1  0
 57 58  1  0
 57 59  1  0
 59 60  1  0
 60 61  2  0
 60 62  1  0
 62 63  1  0
 62 64  1  0
 64 65  1  0
 65 66  2  0
 65 67  1  0
 67 68  1  0
 67 69  1  0
 69 70  1  0
 70 71  2  0
 70 72  1  0
 72 73  1  0
 72 74  1  0
 74 75  1  0
 75 76  2  0
 75  5  1  0
 14  9  1  0
 53 11  1  0
  1 77  1  0
  1 78  1  0
  1 79  1  0
  4 80  1  0
  5 81  1  6
  6 82  1  0
  6 83  1  0
  8 84  1  0
  8 85  1  0
 10 86  1  0
 12 87  1  0
 14 88  1  0
 15 89  1  0
 15 90  1  0
 17 91  1  0
 17 92  1  0
 18 93  1  6
 20 94  1  0
 20 95  1  0
 22 96  1  0
 25 97  1  6
 26 98  1  0
 26 99  1  0
 26100  1  0
 27101  1  0
 30102  1  6
 31103  1  0
 31104  1  0
 31105  1  0
 32106  1  0
 35107  1  6
 36108  1  0
 36109  1  0
 36110  1  0
 37111  1  0
 40112  1  1
 41113  1  0
 41114  1  0
 41115  1  0
 42116  1  0
 45117  1  1
 46118  1  0
 46119  1  0
 46120  1  0
 47121  1  0
 50122  1  1
 51123  1  0
 51124  1  0
 53125  1  0
 53126  1  0
 54127  1  0
 57128  1  6
 58129  1  0
 58130  1  0
 58131  1  0
 59132  1  0
 62133  1  1
 63134  1  0
 63135  1  0
 63136  1  0
 64137  1  0
 67138  1  6
 68139  1  0
 68140  1  0
 68141  1  0
 69142  1  0
 72143  1  6
 73144  1  0
 73145  1  0
 73146  1  0
 74147  1  0
M  END
