
     RDKit          3D

187189  0  0  0  0  0  0  0  0999 V2000
   10.3114    5.3797    2.2830 C   0  0  0  0  0  0  0  0  0  0  0  0
    9.6178    5.1954    0.9705 C   0  0  0  0  0  0  0  0  0  0  0  0
    9.6502    6.1323    0.1261 O   0  0  0  0  0  0  0  0  0  0  0  0
    8.9583    3.9517    0.6698 N   0  0  0  0  0  0  0  0  0  0  0  0
    8.2499    3.6783   -0.5903 C   0  0  1  0  0  0  0  0  0  0  0  0
    6.9354    4.4895   -0.6578 C   0  0  0  0  0  0  0  0  0  0  0  0
    5.6723    3.7959    0.4745 S   0  0  0  0  0  0  0  0  0  0  0  0
    5.2644    2.3204   -0.5298 C   0  0  0  0  0  0  0  0  0  0  0  0
    3.7844    2.0664   -0.4881 C   0  0  0  0  0  0  0  0  0  0  0  0
    2.8975    2.9773   -1.0840 C   0  0  0  0  0  0  0  0  0  0  0  0
    1.5151    2.7391   -1.0689 C   0  0  0  0  0  0  0  0  0  0  0  0
    1.0273    1.5682   -0.4723 C   0  0  0  0  0  0  0  0  0  0  0  0
    1.9014    0.6318    0.0938 C   0  0  0  0  0  0  0  0  0  0  0  0
    3.2789    0.8872    0.0851 C   0  0  0  0  0  0  0  0  0  0  0  0
    1.3668   -0.6646    0.6554 C   0  0  0  0  0  0  0  0  0  0  0  0
    1.7541   -0.7971    2.4357 S   0  0  0  0  0  0  0  0  0  0  0  0
    1.2167   -2.5361    2.6511 C   0  0  0  0  0  0  0  0  0  0  0  0
    2.1719   -3.5599    1.9894 C   0  0  1  0  0  0  0  0  0  0  0  0
    3.5730   -3.1622    2.1693 N   0  0  0  0  0  0  0  0  0  0  0  0
    4.4603   -2.8377    1.0896 C   0  0  0  0  0  0  0  0  0  0  0  0
    5.3102   -1.9217    1.2615 O   0  0  0  0  0  0  0  0  0  0  0  0
    4.5152   -3.6607   -0.1846 C   0  0  1  0  0  0  0  0  0  0  0  0
    4.5187   -2.7498   -1.4175 C   0  0  0  0  0  0  0  0  0  0  0  0
    5.6830   -4.5459   -0.2415 N   0  0  0  0  0  0  0  0  0  0  0  0
    6.8556   -4.3943    0.5748 C   0  0  0  0  0  0  0  0  0  0  0  0
    6.7573   -4.4831    1.8302 O   0  0  0  0  0  0  0  0  0  0  0  0
    8.2066   -4.0909   -0.0258 C   0  0  1  0  0  0  0  0  0  0  0  0
    8.4133   -4.7636   -1.3897 C   0  0  0  0  0  0  0  0  0  0  0  0
    8.3727   -2.6392   -0.1572 N   0  0  0  0  0  0  0  0  0  0  0  0
    9.3478   -1.9428    0.6380 C   0  0  0  0  0  0  0  0  0  0  0  0
    9.4108   -2.1665    1.8711 O   0  0  0  0  0  0  0  0  0  0  0  0
   10.4156   -1.0711    0.0077 C   0  0  1  0  0  0  0  0  0  0  0  0
   11.7665   -1.7890    0.1244 C   0  0  0  0  0  0  0  0  0  0  0  0
   10.1346   -0.8044   -1.4071 N   0  0  0  0  0  0  0  0  0  0  0  0
    9.8901    0.4961   -1.9689 C   0  0  0  0  0  0  0  0  0  0  0  0
    9.0789    0.5867   -2.9404 O   0  0  0  0  0  0  0  0  0  0  0  0
   10.5132    1.7607   -1.4087 C   0  0  1  0  0  0  0  0  0  0  0  0
   12.0440    1.6813   -1.3808 C   0  0  0  0  0  0  0  0  0  0  0  0
   10.1084    2.9283   -2.2083 N   0  0  0  0  0  0  0  0  0  0  0  0
    9.1439    3.9082   -1.7873 C   0  0  0  0  0  0  0  0  0  0  0  0
    9.0219    4.9615   -2.4720 O   0  0  0  0  0  0  0  0  0  0  0  0
    1.9703   -4.9308    2.5776 C   0  0  0  0  0  0  0  0  0  0  0  0
    2.3021   -5.1572    3.7702 O   0  0  0  0  0  0  0  0  0  0  0  0
    1.4472   -5.9971    1.7796 N   0  0  0  0  0  0  0  0  0  0  0  0
    0.0106   -6.1086    1.5253 C   0  0  2  0  0  0  0  0  0  0  0  0
   -0.6277   -6.9424    2.6491 C   0  0  0  0  0  0  0  0  0  0  0  0
   -0.2283   -6.7263    0.1617 C   0  0  0  0  0  0  0  0  0  0  0  0
    0.6692   -6.6654   -0.7191 O   0  0  0  0  0  0  0  0  0  0  0  0
   -1.4474   -7.4247   -0.1428 N   0  0  0  0  0  0  0  0  0  0  0  0
   -2.7652   -6.7980   -0.3860 C   0  0  2  0  0  0  0  0  0  0  0  0
   -2.8316   -5.3407    0.1074 C   0  0  0  0  0  0  0  0  0  0  0  0
   -3.8507   -7.6447    0.2559 C   0  0  0  0  0  0  0  0  0  0  0  0
   -3.5471   -8.3314    1.2719 O   0  0  0  0  0  0  0  0  0  0  0  0
   -5.1625   -7.8257   -0.3160 N   0  0  0  0  0  0  0  0  0  0  0  0
   -5.9993   -6.8188   -0.9924 C   0  0  2  0  0  0  0  0  0  0  0  0
   -5.4384   -6.4610   -2.3753 C   0  0  0  0  0  0  0  0  0  0  0  0
   -6.2325   -5.5999   -0.1217 C   0  0  0  0  0  0  0  0  0  0  0  0
   -5.8461   -5.6009    1.0788 O   0  0  0  0  0  0  0  0  0  0  0  0
   -6.8569   -4.4215   -0.6428 N   0  0  0  0  0  0  0  0  0  0  0  0
   -8.1223   -4.4491   -1.3793 C   0  0  2  0  0  0  0  0  0  0  0  0
   -8.0751   -3.4622   -2.5489 C   0  0  0  0  0  0  0  0  0  0  0  0
   -9.2764   -4.1292   -0.4584 C   0  0  0  0  0  0  0  0  0  0  0  0
  -10.1297   -5.0195   -0.2000 O   0  0  0  0  0  0  0  0  0  0  0  0
   -9.4707   -2.8044    0.0486 N   0  0  0  0  0  0  0  0  0  0  0  0
   -8.6914   -2.2743    1.1674 C   0  0  2  0  0  0  0  0  0  0  0  0
   -9.5877   -2.1132    2.3977 C   0  0  0  0  0  0  0  0  0  0  0  0
   -8.0157   -0.9851    0.7636 C   0  0  0  0  0  0  0  0  0  0  0  0
   -6.7624   -0.8869    0.8755 O   0  0  0  0  0  0  0  0  0  0  0  0
   -8.7432    0.0843    0.1478 N   0  0  0  0  0  0  0  0  0  0  0  0
   -9.6404    0.9577    0.9080 C   0  0  2  0  0  0  0  0  0  0  0  0
  -11.0440    0.9218    0.3017 C   0  0  0  0  0  0  0  0  0  0  0  0
   -9.1132    2.3716    0.9413 C   0  0  0  0  0  0  0  0  0  0  0  0
   -8.8139    2.8819    2.0600 O   0  0  0  0  0  0  0  0  0  0  0  0
   -8.9694    3.1457   -0.2648 N   0  0  0  0  0  0  0  0  0  0  0  0
   -8.9223    4.6163   -0.2450 C   0  0  2  0  0  0  0  0  0  0  0  0
   -9.4740    5.1799   -1.5541 C   0  0  0  0  0  0  0  0  0  0  0  0
   -7.5080    5.0894    0.0354 C   0  0  0  0  0  0  0  0  0  0  0  0
   -6.8844    4.6249    1.0349 O   0  0  0  0  0  0  0  0  0  0  0  0
   -6.8766    6.1050   -0.7531 N   0  0  0  0  0  0  0  0  0  0  0  0
   -5.9560    5.8087   -1.8526 C   0  0  2  0  0  0  0  0  0  0  0  0
   -5.2826    4.4353   -1.7230 C   0  0  0  0  0  0  0  0  0  0  0  0
   -4.9204    6.9020   -1.9983 C   0  0  0  0  0  0  0  0  0  0  0  0
   -4.9161    7.5905   -3.0532 O   0  0  0  0  0  0  0  0  0  0  0  0
   -3.8621    7.1018   -1.0413 N   0  0  0  0  0  0  0  0  0  0  0  0
   -4.0544    7.1234    0.4126 C   0  0  2  0  0  0  0  0  0  0  0  0
   -3.3984    8.3655    1.0167 C   0  0  0  0  0  0  0  0  0  0  0  0
   -3.4874    5.8736    1.0277 C   0  0  0  0  0  0  0  0  0  0  0  0
   -4.1672    5.2386    1.8801 O   0  0  0  0  0  0  0  0  0  0  0  0
   -2.2216    5.3510    0.6170 N   0  0  0  0  0  0  0  0  0  0  0  0
   -0.9720    5.7385    1.2812 C   0  0  1  0  0  0  0  0  0  0  0  0
   -1.1146    5.6125    2.7777 C   0  0  0  0  0  0  0  0  0  0  0  0
   -0.9550    6.7527    3.6226 N   0  0  0  0  0  0  0  0  0  0  0  0
   -1.4109    4.4964    3.2918 O   0  0  0  0  0  0  0  0  0  0  0  0
    0.1970    4.8719    0.7911 C   0  0  0  0  0  0  0  0  0  0  0  0
    0.6949    5.3739   -0.9021 S   0  0  0  0  0  0  0  0  0  0  0  0
    0.5602    3.7308   -1.6786 C   0  0  0  0  0  0  0  0  0  0  0  0
   11.3898    5.5635    2.1034 H   0  0  0  0  0  0  0  0  0  0  0  0
   10.2054    4.4789    2.9326 H   0  0  0  0  0  0  0  0  0  0  0  0
    9.8784    6.2553    2.8140 H   0  0  0  0  0  0  0  0  0  0  0  0
    8.9880    3.1823    1.3785 H   0  0  0  0  0  0  0  0  0  0  0  0
    7.9678    2.6034   -0.6122 H   0  0  0  0  0  0  0  0  0  0  0  0
    6.5271    4.4845   -1.6951 H   0  0  0  0  0  0  0  0  0  0  0  0
    7.1195    5.5466   -0.3771 H   0  0  0  0  0  0  0  0  0  0  0  0
    5.8264    1.4588   -0.1196 H   0  0  0  0  0  0  0  0  0  0  0  0
    5.5728    2.4275   -1.5903 H   0  0  0  0  0  0  0  0  0  0  0  0
    3.2863    3.8638   -1.5676 H   0  0  0  0  0  0  0  0  0  0  0  0
   -0.0367    1.3771   -0.4635 H   0  0  0  0  0  0  0  0  0  0  0  0
    3.9568    0.1707    0.5216 H   0  0  0  0  0  0  0  0  0  0  0  0
    0.2614   -0.7211    0.5264 H   0  0  0  0  0  0  0  0  0  0  0  0
    1.8147   -1.5078    0.0857 H   0  0  0  0  0  0  0  0  0  0  0  0
    1.1583   -2.7189    3.7475 H   0  0  0  0  0  0  0  0  0  0  0  0
    0.1882   -2.6587    2.2409 H   0  0  0  0  0  0  0  0  0  0  0  0
    1.9064   -3.6027    0.9130 H   0  0  0  0  0  0  0  0  0  0  0  0
    3.8812   -2.9057    3.1350 H   0  0  0  0  0  0  0  0  0  0  0  0
    3.6133   -4.3046   -0.2434 H   0  0  0  0  0  0  0  0  0  0  0  0
    3.6491   -2.0629   -1.3974 H   0  0  0  0  0  0  0  0  0  0  0  0
    5.4530   -2.1477   -1.4412 H   0  0  0  0  0  0  0  0  0  0  0  0
    4.4622   -3.3675   -2.3371 H   0  0  0  0  0  0  0  0  0  0  0  0
    5.7371   -5.2088   -1.0479 H   0  0  0  0  0  0  0  0  0  0  0  0
    8.9777   -4.5022    0.6619 H   0  0  0  0  0  0  0  0  0  0  0  0
    7.6897   -4.3889   -2.1400 H   0  0  0  0  0  0  0  0  0  0  0  0
    8.2988   -5.8654   -1.2947 H   0  0  0  0  0  0  0  0  0  0  0  0
    9.4411   -4.5535   -1.7531 H   0  0  0  0  0  0  0  0  0  0  0  0
    7.9617   -2.1553   -0.9869 H   0  0  0  0  0  0  0  0  0  0  0  0
   10.4672   -0.1239    0.5789 H   0  0  0  0  0  0  0  0  0  0  0  0
   12.5641   -1.2384   -0.4179 H   0  0  0  0  0  0  0  0  0  0  0  0
   11.7044   -2.8137   -0.2982 H   0  0  0  0  0  0  0  0  0  0  0  0
   12.0629   -1.8624    1.1926 H   0  0  0  0  0  0  0  0  0  0  0  0
   10.0400   -1.6212   -2.0531 H   0  0  0  0  0  0  0  0  0  0  0  0
   10.1695    1.8858   -0.3621 H   0  0  0  0  0  0  0  0  0  0  0  0
   12.4728    2.6821   -1.1705 H   0  0  0  0  0  0  0  0  0  0  0  0
   12.3851    1.0048   -0.5784 H   0  0  0  0  0  0  0  0  0  0  0  0
   12.4317    1.3206   -2.3588 H   0  0  0  0  0  0  0  0  0  0  0  0
   10.5374    3.0472   -3.1535 H   0  0  0  0  0  0  0  0  0  0  0  0
    2.0208   -6.8701    1.7322 H   0  0  0  0  0  0  0  0  0  0  0  0
   -0.4406   -5.0952    1.5347 H   0  0  0  0  0  0  0  0  0  0  0  0
   -1.7264   -6.9794    2.5364 H   0  0  0  0  0  0  0  0  0  0  0  0
   -0.2285   -7.9838    2.6328 H   0  0  0  0  0  0  0  0  0  0  0  0
   -0.4127   -6.4791    3.6309 H   0  0  0  0  0  0  0  0  0  0  0  0
   -1.3275   -8.3868   -0.5345 H   0  0  0  0  0  0  0  0  0  0  0  0
   -2.9209   -6.7986   -1.4811 H   0  0  0  0  0  0  0  0  0  0  0  0
   -2.8557   -5.2958    1.2165 H   0  0  0  0  0  0  0  0  0  0  0  0
   -1.9642   -4.7625   -0.2750 H   0  0  0  0  0  0  0  0  0  0  0  0
   -3.7289   -4.8327   -0.2885 H   0  0  0  0  0  0  0  0  0  0  0  0
   -5.6469   -8.7144   -0.0492 H   0  0  0  0  0  0  0  0  0  0  0  0
   -6.9966   -7.2806   -1.1624 H   0  0  0  0  0  0  0  0  0  0  0  0
   -5.0087   -7.3638   -2.8614 H   0  0  0  0  0  0  0  0  0  0  0  0
   -4.6660   -5.6679   -2.3127 H   0  0  0  0  0  0  0  0  0  0  0  0
   -6.2510   -6.0821   -3.0284 H   0  0  0  0  0  0  0  0  0  0  0  0
   -6.5091   -3.4989   -0.2935 H   0  0  0  0  0  0  0  0  0  0  0  0
   -8.2922   -5.4632   -1.8070 H   0  0  0  0  0  0  0  0  0  0  0  0
   -7.7794   -2.4538   -2.1970 H   0  0  0  0  0  0  0  0  0  0  0  0
   -9.0706   -3.3904   -3.0378 H   0  0  0  0  0  0  0  0  0  0  0  0
   -7.3374   -3.8064   -3.3027 H   0  0  0  0  0  0  0  0  0  0  0  0
  -10.3444   -2.2998   -0.2322 H   0  0  0  0  0  0  0  0  0  0  0  0
   -7.9027   -3.0058    1.4582 H   0  0  0  0  0  0  0  0  0  0  0  0
   -9.9210   -3.1126    2.7572 H   0  0  0  0  0  0  0  0  0  0  0  0
   -9.0380   -1.6115    3.2229 H   0  0  0  0  0  0  0  0  0  0  0  0
  -10.5000   -1.5325    2.1546 H   0  0  0  0  0  0  0  0  0  0  0  0
   -8.4593    0.3714   -0.8137 H   0  0  0  0  0  0  0  0  0  0  0  0
   -9.7158    0.6030    1.9570 H   0  0  0  0  0  0  0  0  0  0  0  0
  -11.7252    1.6039    0.8594 H   0  0  0  0  0  0  0  0  0  0  0  0
  -11.0292    1.2223   -0.7692 H   0  0  0  0  0  0  0  0  0  0  0  0
  -11.4617   -0.1090    0.3702 H   0  0  0  0  0  0  0  0  0  0  0  0
   -9.0938    2.6602   -1.1823 H   0  0  0  0  0  0  0  0  0  0  0  0
   -9.5767    4.9861    0.5790 H   0  0  0  0  0  0  0  0  0  0  0  0
   -9.5126    6.2906   -1.5198 H   0  0  0  0  0  0  0  0  0  0  0  0
   -8.8390    4.8617   -2.4105 H   0  0  0  0  0  0  0  0  0  0  0  0
  -10.5086    4.8056   -1.7217 H   0  0  0  0  0  0  0  0  0  0  0  0
   -7.2955    7.0650   -0.7061 H   0  0  0  0  0  0  0  0  0  0  0  0
   -6.5561    5.7865   -2.7895 H   0  0  0  0  0  0  0  0  0  0  0  0
   -4.7647    4.3312   -0.7480 H   0  0  0  0  0  0  0  0  0  0  0  0
   -6.0426    3.6265   -1.8067 H   0  0  0  0  0  0  0  0  0  0  0  0
   -4.5465    4.2945   -2.5407 H   0  0  0  0  0  0  0  0  0  0  0  0
   -2.9403    7.4214   -1.4204 H   0  0  0  0  0  0  0  0  0  0  0  0
   -5.1350    7.1853    0.6560 H   0  0  0  0  0  0  0  0  0  0  0  0
   -2.3290    8.4265    0.7372 H   0  0  0  0  0  0  0  0  0  0  0  0
   -3.9105    9.2742    0.6363 H   0  0  0  0  0  0  0  0  0  0  0  0
   -3.4877    8.3468    2.1234 H   0  0  0  0  0  0  0  0  0  0  0  0
   -2.2391    4.5354   -0.0321 H   0  0  0  0  0  0  0  0  0  0  0  0
   -0.7462    6.7961    1.0271 H   0  0  0  0  0  0  0  0  0  0  0  0
   -1.1088    6.6738    4.6552 H   0  0  0  0  0  0  0  0  0  0  0  0
   -0.7191    7.6893    3.2182 H   0  0  0  0  0  0  0  0  0  0  0  0
    1.0827    5.0131    1.4499 H   0  0  0  0  0  0  0  0  0  0  0  0
   -0.0967    3.7962    0.8493 H   0  0  0  0  0  0  0  0  0  0  0  0
   -0.4912    3.3813   -1.5966 H   0  0  0  0  0  0  0  0  0  0  0  0
    0.7933    3.8249   -2.7605 H   0  0  0  0  0  0  0  0  0  0  0  0
  1  2  1  0
  2  3  2  0
  2  4  1  0
  4  5  1  0
  5  6  1  0
  6  7  1  0
  7  8  1  0
  8  9  1  0
  9 10  2  0
 10 11  1  0
 11 12  2  0
 12 13  1  0
 13 14  2  0
 13 15  1  0
 15 16  1  0
 16 17  1  0
 17 18  1  0
 18 19  1  0
 19 20  1  0
 20 21  2  0
 20 22  1  0
 22 23  1  0
 22 24  1  0
 24 25  1  0
 25 26  2  0
 25 27  1  0
 27 28  1  0
 27 29  1  0
 29 30  1  0
 30 31  2  0
 30 32  1  0
 32 33  1  0
 32 34  1  0
 34 35  1  0
 35 36  2  0
 35 37  1  0
 37 38  1  0
 37 39  1  0
 39 40  1  0
 40 41  2  0
 18 42  1  0
 42 43  2  0
 42 44  1  0
 44 45  1  0
 45 46  1  0
 45 47  1  0
 47 48  2  0
 47 49  1  0
 49 50  1  0
 50 51  1  0
 50 52  1  0
 52 53  2  0
 52 54  1  0
 54 55  1  0
 55 56  1  0
 55 57  1  0
 57 58  2  0
 57 59  1  0
 59 60  1  0
 60 61  1  0
 60 62  1  0
 62 63  2  0
 62 64  1  0
 64 65  1  0
 65 66  1  0
 65 67  1  0
 67 68  2  0
 67 69  1  0
 69 70  1  0
 70 71  1  0
 70 72  1  0
 72 73  2  0
 72 74  1  0
 74 75  1  0
 75 76  1  0
 75 77  1  0
 77 78  2  0
 77 79  1  0
 79 80  1  0
 80 81  1  0
 80 82  1  0
 82 83  2  0
 82 84  1  0
 84 85  1  0
 85 86  1  0
 85 87  1  0
 87 88  2  0
 87 89  1  0
 89 90  1  0
 90 91  1  0
 91 92  1  0
 91 93  2  0
 90 94  1  0
 94 95  1  0
 95 96  1  0
 40  5  1  0
 14  9  1  0
 96 11  1  0
  1 97  1  0
  1 98  1  0
  1 99  1  0
  4100  1  0
  5101  1  1
  6102  1  0
  6103  1  0
  8104  1  0
  8105  1  0
 10106  1  0
 12107  1  0
 14108  1  0
 15109  1  0
 15110  1  0
 17111  1  0
 17112  1  0
 18113  1  6
 19114  1  0
 22115  1  6
 23116  1  0
 23117  1  0
 23118  1  0
 24119  1  0
 27120  1  1
 28121  1  0
 28122  1  0
 28123  1  0
 29124  1  0
 32125  1  1
 33126  1  0
 33127  1  0
 33128  1  0
 34129  1  0
 37130  1  1
 38131  1  0
 38132  1  0
 38133  1  0
 39134  1  0
 44135  1  0
 45136  1  6
 46137  1  0
 46138  1  0
 46139  1  0
 49140  1  0
 50141  1  6
 51142  1  0
 51143  1  0
 51144  1  0
 54145  1  0
 55146  1  6
 56147  1  0
 56148  1  0
 56149  1  0
 59150  1  0
 60151  1  6
 61152  1  0
 61153  1  0
 61154  1  0
 64155  1  0
 65156  1  1
 66157  1  0
 66158  1  0
 66159  1  0
 69160  1  0
 70161  1  1
 71162  1  0
 71163  1  0
 71164  1  0
 74165  1  0
 75166  1  1
 76167  1  0
 76168  1  0
 76169  1  0
 79170  1  0
 80171  1  6
 81172  1  0
 81173  1  0
 81174  1  0
 84175  1  0
 85176  1  6
 86177  1  0
 86178  1  0
 86179  1  0
 89180  1  0
 90181  1  1
 92182  1  0
 92183  1  0
 94184  1  0
 94185  1  0
 96186  1  0
 96187  1  0
M  END
