
     RDKit          3D

147149  0  0  0  0  0  0  0  0999 V2000
   11.9236   -2.0608    0.8962 C   0  0  0  0  0  0  0  0  0  0  0  0
   10.7781   -1.2570    0.3686 C   0  0  0  0  0  0  0  0  0  0  0  0
   10.9431   -0.5546   -0.6614 O   0  0  0  0  0  0  0  0  0  0  0  0
    9.5018   -1.2911    1.0259 N   0  0  0  0  0  0  0  0  0  0  0  0
    8.3453   -0.5151    0.5535 C   0  0  1  0  0  0  0  0  0  0  0  0
    7.0734   -0.9572    1.2943 C   0  0  0  0  0  0  0  0  0  0  0  0
    6.5307   -2.5967    0.6911 S   0  0  0  0  0  0  0  0  0  0  0  0
    4.9629   -2.6404    1.6305 C   0  0  0  0  0  0  0  0  0  0  0  0
    3.7915   -2.5522    0.6883 C   0  0  0  0  0  0  0  0  0  0  0  0
    2.8710   -3.6059    0.6090 C   0  0  0  0  0  0  0  0  0  0  0  0
    1.7451   -3.5152   -0.2222 C   0  0  0  0  0  0  0  0  0  0  0  0
    1.5301   -2.3431   -0.9644 C   0  0  0  0  0  0  0  0  0  0  0  0
    2.4474   -1.2768   -0.9121 C   0  0  0  0  0  0  0  0  0  0  0  0
    3.5716   -1.3918   -0.0678 C   0  0  0  0  0  0  0  0  0  0  0  0
    2.1214   -0.0058   -1.6652 C   0  0  0  0  0  0  0  0  0  0  0  0
    3.5894    1.0292   -2.0559 S   0  0  0  0  0  0  0  0  0  0  0  0
    3.4739    2.1323   -0.5919 C   0  0  0  0  0  0  0  0  0  0  0  0
    4.8780    2.4971   -0.0986 C   0  0  1  0  0  0  0  0  0  0  0  0
    5.5620    3.3439   -1.0812 N   0  0  0  0  0  0  0  0  0  0  0  0
    6.7003    2.9320   -1.8563 C   0  0  0  0  0  0  0  0  0  0  0  0
    6.9765    3.5882   -2.8995 O   0  0  0  0  0  0  0  0  0  0  0  0
    7.5590    1.7398   -1.4587 C   0  0  1  0  0  0  0  0  0  0  0  0
    8.6541    1.4686   -2.4995 C   0  0  0  0  0  0  0  0  0  0  0  0
    8.1755    1.9799   -0.1486 N   0  0  0  0  0  0  0  0  0  0  0  0
    8.5794    0.9606    0.7886 C   0  0  0  0  0  0  0  0  0  0  0  0
    9.1107    1.3201    1.8747 O   0  0  0  0  0  0  0  0  0  0  0  0
    4.8353    3.1762    1.2446 C   0  0  0  0  0  0  0  0  0  0  0  0
    5.1193    2.5156    2.2808 O   0  0  0  0  0  0  0  0  0  0  0  0
    4.5633    4.5805    1.3751 N   0  0  0  0  0  0  0  0  0  0  0  0
    3.2170    5.1356    1.5820 C   0  0  2  0  0  0  0  0  0  0  0  0
    2.3170    4.1826    2.3874 C   0  0  0  0  0  0  0  0  0  0  0  0
    2.6226    5.5863    0.2690 C   0  0  0  0  0  0  0  0  0  0  0  0
    3.3055    6.3433   -0.4701 O   0  0  0  0  0  0  0  0  0  0  0  0
    1.2967    5.2059   -0.1398 N   0  0  0  0  0  0  0  0  0  0  0  0
    0.2004    6.1444   -0.4377 C   0  0  2  0  0  0  0  0  0  0  0  0
    0.6843    7.5630   -0.7684 C   0  0  0  0  0  0  0  0  0  0  0  0
   -0.7610    6.1942    0.7185 C   0  0  0  0  0  0  0  0  0  0  0  0
   -0.3468    6.5344    1.8607 O   0  0  0  0  0  0  0  0  0  0  0  0
   -2.1671    5.9972    0.5137 N   0  0  0  0  0  0  0  0  0  0  0  0
   -2.8194    4.7252    0.1633 C   0  0  2  0  0  0  0  0  0  0  0  0
   -1.8438    3.5470    0.0097 C   0  0  0  0  0  0  0  0  0  0  0  0
   -3.6218    4.9139   -1.1012 C   0  0  0  0  0  0  0  0  0  0  0  0
   -2.9942    5.1225   -2.1764 O   0  0  0  0  0  0  0  0  0  0  0  0
   -5.0612    4.8881   -1.1460 N   0  0  0  0  0  0  0  0  0  0  0  0
   -6.0010    4.8974   -0.0146 C   0  0  2  0  0  0  0  0  0  0  0  0
   -5.8393    6.1538    0.8562 C   0  0  0  0  0  0  0  0  0  0  0  0
   -5.9476    3.6036    0.7588 C   0  0  0  0  0  0  0  0  0  0  0  0
   -5.7498    3.6054    2.0040 O   0  0  0  0  0  0  0  0  0  0  0  0
   -6.1604    2.3623    0.0775 N   0  0  0  0  0  0  0  0  0  0  0  0
   -7.4172    1.6045    0.1444 C   0  0  2  0  0  0  0  0  0  0  0  0
   -8.5878    2.4737   -0.3307 C   0  0  0  0  0  0  0  0  0  0  0  0
   -7.6663    1.0853    1.5490 C   0  0  0  0  0  0  0  0  0  0  0  0
   -7.8901    1.9182    2.4709 O   0  0  0  0  0  0  0  0  0  0  0  0
   -7.6526   -0.3172    1.8813 N   0  0  0  0  0  0  0  0  0  0  0  0
   -7.9379   -1.4171    0.9480 C   0  0  2  0  0  0  0  0  0  0  0  0
   -9.3504   -1.2610    0.3681 C   0  0  0  0  0  0  0  0  0  0  0  0
   -7.8692   -2.7478    1.6773 C   0  0  0  0  0  0  0  0  0  0  0  0
   -8.5682   -2.8970    2.7162 O   0  0  0  0  0  0  0  0  0  0  0  0
   -7.0588   -3.8554    1.2382 N   0  0  0  0  0  0  0  0  0  0  0  0
   -6.3376   -3.9475   -0.0406 C   0  0  2  0  0  0  0  0  0  0  0  0
   -7.3147   -4.0115   -1.2213 C   0  0  0  0  0  0  0  0  0  0  0  0
   -5.4764   -5.1884   -0.0622 C   0  0  0  0  0  0  0  0  0  0  0  0
   -6.0183   -6.3197    0.0804 O   0  0  0  0  0  0  0  0  0  0  0  0
   -4.0551   -5.0818   -0.2395 N   0  0  0  0  0  0  0  0  0  0  0  0
   -3.2978   -5.8608   -1.2268 C   0  0  2  0  0  0  0  0  0  0  0  0
   -3.8357   -5.6076   -2.6394 C   0  0  0  0  0  0  0  0  0  0  0  0
   -3.2792   -7.3480   -0.9096 C   0  0  0  0  0  0  0  0  0  0  0  0
   -4.3293   -8.0212   -1.0858 O   0  0  0  0  0  0  0  0  0  0  0  0
   -2.0915   -8.0461   -0.4877 N   0  0  0  0  0  0  0  0  0  0  0  0
   -0.8366   -7.3981   -0.0849 C   0  0  1  0  0  0  0  0  0  0  0  0
   -0.0873   -8.2998    0.8700 C   0  0  0  0  0  0  0  0  0  0  0  0
   -0.1766   -8.0851    2.2798 N   0  0  0  0  0  0  0  0  0  0  0  0
    0.5985   -9.2660    0.4335 O   0  0  0  0  0  0  0  0  0  0  0  0
    0.0228   -7.0697   -1.3302 C   0  0  0  0  0  0  0  0  0  0  0  0
    1.5587   -6.1560   -0.9228 S   0  0  0  0  0  0  0  0  0  0  0  0
    0.7576   -4.6433   -0.2662 C   0  0  0  0  0  0  0  0  0  0  0  0
   12.2699   -2.7733    0.1157 H   0  0  0  0  0  0  0  0  0  0  0  0
   12.7625   -1.3804    1.1637 H   0  0  0  0  0  0  0  0  0  0  0  0
   11.6242   -2.6331    1.7976 H   0  0  0  0  0  0  0  0  0  0  0  0
    9.3907   -1.9330    1.8416 H   0  0  0  0  0  0  0  0  0  0  0  0
    8.2109   -0.7188   -0.5308 H   0  0  0  0  0  0  0  0  0  0  0  0
    6.2633   -0.2255    1.1289 H   0  0  0  0  0  0  0  0  0  0  0  0
    7.2608   -1.0099    2.3857 H   0  0  0  0  0  0  0  0  0  0  0  0
    4.8937   -1.8232    2.3778 H   0  0  0  0  0  0  0  0  0  0  0  0
    4.9442   -3.6018    2.1891 H   0  0  0  0  0  0  0  0  0  0  0  0
    3.0300   -4.5056    1.1964 H   0  0  0  0  0  0  0  0  0  0  0  0
    0.6376   -2.2482   -1.5765 H   0  0  0  0  0  0  0  0  0  0  0  0
    4.2722   -0.5801    0.0136 H   0  0  0  0  0  0  0  0  0  0  0  0
    1.3511    0.5737   -1.1106 H   0  0  0  0  0  0  0  0  0  0  0  0
    1.6680   -0.2799   -2.6412 H   0  0  0  0  0  0  0  0  0  0  0  0
    2.9247    1.6285    0.2366 H   0  0  0  0  0  0  0  0  0  0  0  0
    2.9190    3.0411   -0.8889 H   0  0  0  0  0  0  0  0  0  0  0  0
    5.4187    1.5494    0.0421 H   0  0  0  0  0  0  0  0  0  0  0  0
    5.1222    4.2595   -1.3249 H   0  0  0  0  0  0  0  0  0  0  0  0
    6.8975    0.8504   -1.4255 H   0  0  0  0  0  0  0  0  0  0  0  0
    9.3624    2.3259   -2.5368 H   0  0  0  0  0  0  0  0  0  0  0  0
    9.2293    0.5543   -2.2411 H   0  0  0  0  0  0  0  0  0  0  0  0
    8.2080    1.3179   -3.5060 H   0  0  0  0  0  0  0  0  0  0  0  0
    8.3764    2.9716    0.1166 H   0  0  0  0  0  0  0  0  0  0  0  0
    5.3600    5.1546    1.7287 H   0  0  0  0  0  0  0  0  0  0  0  0
    3.3231    6.0549    2.1966 H   0  0  0  0  0  0  0  0  0  0  0  0
    1.3562    4.6783    2.6316 H   0  0  0  0  0  0  0  0  0  0  0  0
    2.1079    3.2514    1.8276 H   0  0  0  0  0  0  0  0  0  0  0  0
    2.8174    3.9174    3.3425 H   0  0  0  0  0  0  0  0  0  0  0  0
    1.0348    4.1975   -0.0468 H   0  0  0  0  0  0  0  0  0  0  0  0
   -0.3337    5.7775   -1.3388 H   0  0  0  0  0  0  0  0  0  0  0  0
    1.3336    7.5435   -1.6667 H   0  0  0  0  0  0  0  0  0  0  0  0
   -0.1877    8.2117   -0.9969 H   0  0  0  0  0  0  0  0  0  0  0  0
    1.2385    8.0042    0.0901 H   0  0  0  0  0  0  0  0  0  0  0  0
   -2.7871    6.7782    0.8153 H   0  0  0  0  0  0  0  0  0  0  0  0
   -3.4821    4.4519    1.0051 H   0  0  0  0  0  0  0  0  0  0  0  0
   -1.2142    3.4443    0.9232 H   0  0  0  0  0  0  0  0  0  0  0  0
   -2.4210    2.6023   -0.1125 H   0  0  0  0  0  0  0  0  0  0  0  0
   -1.1935    3.6652   -0.8814 H   0  0  0  0  0  0  0  0  0  0  0  0
   -5.4893    4.9534   -2.0977 H   0  0  0  0  0  0  0  0  0  0  0  0
   -7.0244    4.9636   -0.4415 H   0  0  0  0  0  0  0  0  0  0  0  0
   -5.7881    7.0605    0.2134 H   0  0  0  0  0  0  0  0  0  0  0  0
   -4.9331    6.1126    1.4902 H   0  0  0  0  0  0  0  0  0  0  0  0
   -6.7190    6.2558    1.5299 H   0  0  0  0  0  0  0  0  0  0  0  0
   -5.4331    2.0570   -0.6093 H   0  0  0  0  0  0  0  0  0  0  0  0
   -7.3335    0.7538   -0.5684 H   0  0  0  0  0  0  0  0  0  0  0  0
   -9.5289    1.8828   -0.3590 H   0  0  0  0  0  0  0  0  0  0  0  0
   -8.3845    2.8515   -1.3594 H   0  0  0  0  0  0  0  0  0  0  0  0
   -8.7435    3.3411    0.3413 H   0  0  0  0  0  0  0  0  0  0  0  0
   -7.5500   -0.5367    2.8972 H   0  0  0  0  0  0  0  0  0  0  0  0
   -7.1939   -1.3908    0.1281 H   0  0  0  0  0  0  0  0  0  0  0  0
   -9.3912   -0.4302   -0.3603 H   0  0  0  0  0  0  0  0  0  0  0  0
   -9.6646   -2.1803   -0.1652 H   0  0  0  0  0  0  0  0  0  0  0  0
  -10.0815   -1.0593    1.1799 H   0  0  0  0  0  0  0  0  0  0  0  0
   -7.0206   -4.6769    1.8802 H   0  0  0  0  0  0  0  0  0  0  0  0
   -5.6788   -3.0595   -0.1629 H   0  0  0  0  0  0  0  0  0  0  0  0
   -7.8619   -3.0586   -1.3403 H   0  0  0  0  0  0  0  0  0  0  0  0
   -6.7602   -4.1862   -2.1693 H   0  0  0  0  0  0  0  0  0  0  0  0
   -8.0491   -4.8301   -1.0784 H   0  0  0  0  0  0  0  0  0  0  0  0
   -3.6020   -4.2116    0.1124 H   0  0  0  0  0  0  0  0  0  0  0  0
   -2.2690   -5.4581   -1.2207 H   0  0  0  0  0  0  0  0  0  0  0  0
   -3.1999   -6.1376   -3.3819 H   0  0  0  0  0  0  0  0  0  0  0  0
   -4.8812   -5.9649   -2.7378 H   0  0  0  0  0  0  0  0  0  0  0  0
   -3.8054   -4.5184   -2.8630 H   0  0  0  0  0  0  0  0  0  0  0  0
   -2.1843   -9.0743   -0.3430 H   0  0  0  0  0  0  0  0  0  0  0  0
   -1.0942   -6.4715    0.4607 H   0  0  0  0  0  0  0  0  0  0  0  0
    0.3413   -8.7129    2.9373 H   0  0  0  0  0  0  0  0  0  0  0  0
   -0.7601   -7.3128    2.6679 H   0  0  0  0  0  0  0  0  0  0  0  0
    0.3126   -8.0144   -1.8355 H   0  0  0  0  0  0  0  0  0  0  0  0
   -0.5513   -6.4858   -2.0772 H   0  0  0  0  0  0  0  0  0  0  0  0
    0.4038   -4.8289    0.7709 H   0  0  0  0  0  0  0  0  0  0  0  0
   -0.1171   -4.3666   -0.8933 H   0  0  0  0  0  0  0  0  0  0  0  0
  1  2  1  0
  2  3  2  0
  2  4  1  0
  4  5  1  0
  5  6  1  0
  6  7  1  0
  7  8  1  0
  8  9  1  0
  9 10  1  0
 10 11  2  0
 11 12  1  0
 12 13  2  0
 13 14  1  0
 13 15  1  0
 15 16  1  0
 16 17  1  0
 17 18  1  0
 18 19  1  0
 19 20  1  0
 20 21  2  0
 20 22  1  0
 22 23  1  0
 22 24  1  0
 24 25  1  0
 25 26  2  0
 18 27  1  0
 27 28  2  0
 27 29  1  0
 29 30  1  0
 30 31  1  0
 30 32  1  0
 32 33  2  0
 32 34  1  0
 34 35  1  0
 35 36  1  0
 35 37  1  0
 37 38  2  0
 37 39  1  0
 39 40  1  0
 40 41  1  0
 40 42  1  0
 42 43  2  0
 42 44  1  0
 44 45  1  0
 45 46  1  0
 45 47  1  0
 47 48  2  0
 47 49  1  0
 49 50  1  0
 50 51  1  0
 50 52  1  0
 52 53  2  0
 52 54  1  0
 54 55  1  0
 55 56  1  0
 55 57  1  0
 57 58  2  0
 57 59  1  0
 59 60  1  0
 60 61  1  0
 60 62  1  0
 62 63  2  0
 62 64  1  0
 64 65  1  0
 65 66  1  0
 65 67  1  0
 67 68  2  0
 67 69  1  0
 69 70  1  0
 70 71  1  0
 71 72  1  0
 71 73  2  0
 70 74  1  0
 74 75  1  0
 75 76  1  0
 25  5  1  0
 14  9  2  0
 76 11  1  0
  1 77  1  0
  1 78  1  0
  1 79  1  0
  4 80  1  0
  5 81  1  6
  6 82  1  0
  6 83  1  0
  8 84  1  0
  8 85  1  0
 10 86  1  0
 12 87  1  0
 14 88  1  0
 15 89  1  0
 15 90  1  0
 17 91  1  0
 17 92  1  0
 18 93  1  1
 19 94  1  0
 22 95  1  1
 23 96  1  0
 23 97  1  0
 23 98  1  0
 24 99  1  0
 29100  1  0
 30101  1  1
 31102  1  0
 31103  1  0
 31104  1  0
 34105  1  0
 35106  1  6
 36107  1  0
 36108  1  0
 36109  1  0
 39110  1  0
 40111  1  1
 41112  1  0
 41113  1  0
 41114  1  0
 44115  1  0
 45116  1  6
 46117  1  0
 46118  1  0
 46119  1  0
 49120  1  0
 50121  1  6
 51122  1  0
 51123  1  0
 51124  1  0
 54125  1  0
 55126  1  6
 56127  1  0
 56128  1  0
 56129  1  0
 59130  1  0
 60131  1  6
 61132  1  0
 61133  1  0
 61134  1  0
 64135  1  0
 65136  1  6
 66137  1  0
 66138  1  0
 66139  1  0
 69140  1  0
 70141  1  1
 72142  1  0
 72143  1  0
 74144  1  0
 74145  1  0
 76146  1  0
 76147  1  0
M  END
