
     RDKit          3D

177179  0  0  0  0  0  0  0  0999 V2000
    8.0369   -5.7220   -2.2570 C   0  0  0  0  0  0  0  0  0  0  0  0
    8.1328   -6.4179   -0.9283 C   0  0  0  0  0  0  0  0  0  0  0  0
    8.0641   -7.6779   -0.9175 O   0  0  0  0  0  0  0  0  0  0  0  0
    8.2940   -5.7284    0.3298 N   0  0  0  0  0  0  0  0  0  0  0  0
    8.2600   -4.2740    0.5677 C   0  0  2  0  0  0  0  0  0  0  0  0
    6.9483   -3.6210    0.0679 C   0  0  0  0  0  0  0  0  0  0  0  0
    5.4968   -4.7269    0.2548 S   0  0  0  0  0  0  0  0  0  0  0  0
    4.2929   -3.6220   -0.5751 C   0  0  0  0  0  0  0  0  0  0  0  0
    3.2624   -3.1472    0.4135 C   0  0  0  0  0  0  0  0  0  0  0  0
    2.3306   -4.0570    0.9416 C   0  0  0  0  0  0  0  0  0  0  0  0
    1.3643   -3.6285    1.8658 C   0  0  0  0  0  0  0  0  0  0  0  0
    1.3568   -2.2930    2.2841 C   0  0  0  0  0  0  0  0  0  0  0  0
    2.2774   -1.3734    1.7590 C   0  0  0  0  0  0  0  0  0  0  0  0
    3.2280   -1.8045    0.8223 C   0  0  0  0  0  0  0  0  0  0  0  0
    2.1862    0.0691    2.1588 C   0  0  0  0  0  0  0  0  0  0  0  0
    0.6875    0.8087    1.4268 S   0  0  0  0  0  0  0  0  0  0  0  0
    1.3944    1.1896   -0.2236 C   0  0  0  0  0  0  0  0  0  0  0  0
    1.5026    2.7075   -0.4143 C   0  0  1  0  0  0  0  0  0  0  0  0
    2.0900    3.0110   -1.7248 N   0  0  0  0  0  0  0  0  0  0  0  0
    3.4850    3.2663   -1.9524 C   0  0  0  0  0  0  0  0  0  0  0  0
    3.8163    3.9310   -2.9740 O   0  0  0  0  0  0  0  0  0  0  0  0
    4.5718    2.6646   -1.0897 C   0  0  1  0  0  0  0  0  0  0  0  0
    5.1173    1.4063   -1.7764 C   0  0  0  0  0  0  0  0  0  0  0  0
    5.6579    3.6296   -0.8787 N   0  0  0  0  0  0  0  0  0  0  0  0
    6.8261    3.2908   -0.1189 C   0  0  0  0  0  0  0  0  0  0  0  0
    6.6959    2.6575    0.9604 O   0  0  0  0  0  0  0  0  0  0  0  0
    8.2163    3.5522   -0.6550 C   0  0  1  0  0  0  0  0  0  0  0  0
    8.2261    4.4675   -1.8797 C   0  0  0  0  0  0  0  0  0  0  0  0
    9.0661    4.1330    0.3927 N   0  0  0  0  0  0  0  0  0  0  0  0
   10.3029    3.5571    0.8573 C   0  0  0  0  0  0  0  0  0  0  0  0
   11.1490    4.3197    1.4097 O   0  0  0  0  0  0  0  0  0  0  0  0
   10.6156    2.0787    0.6921 C   0  0  1  0  0  0  0  0  0  0  0  0
   12.0032    1.7069    1.2444 C   0  0  0  0  0  0  0  0  0  0  0  0
    9.5735    1.2775    1.3521 N   0  0  0  0  0  0  0  0  0  0  0  0
    9.6458   -0.1485    1.4898 C   0  0  0  0  0  0  0  0  0  0  0  0
    9.8196   -0.6253    2.6465 O   0  0  0  0  0  0  0  0  0  0  0  0
    9.3000   -1.0961    0.3614 C   0  0  1  0  0  0  0  0  0  0  0  0
    9.6243   -0.5508   -1.0302 C   0  0  0  0  0  0  0  0  0  0  0  0
   10.0031   -2.3654    0.5552 N   0  0  0  0  0  0  0  0  0  0  0  0
    9.5235   -3.6155    0.0390 C   0  0  0  0  0  0  0  0  0  0  0  0
   10.2679   -4.2441   -0.7620 O   0  0  0  0  0  0  0  0  0  0  0  0
    0.1372    3.3408   -0.3077 C   0  0  0  0  0  0  0  0  0  0  0  0
   -0.7754    3.0257   -1.1186 O   0  0  0  0  0  0  0  0  0  0  0  0
   -0.1538    4.2365    0.7640 N   0  0  0  0  0  0  0  0  0  0  0  0
    0.2775    5.6307    0.7051 C   0  0  2  0  0  0  0  0  0  0  0  0
    0.5677    6.1677    2.1046 C   0  0  0  0  0  0  0  0  0  0  0  0
   -0.7533    6.4714   -0.0016 C   0  0  0  0  0  0  0  0  0  0  0  0
   -0.3607    7.4129   -0.7431 O   0  0  0  0  0  0  0  0  0  0  0  0
   -2.1545    6.1625    0.0507 N   0  0  0  0  0  0  0  0  0  0  0  0
   -2.9751    6.4857    1.2272 C   0  0  2  0  0  0  0  0  0  0  0  0
   -3.2101    5.2619    2.1275 C   0  0  0  0  0  0  0  0  0  0  0  0
   -4.2843    7.1311    0.8193 C   0  0  0  0  0  0  0  0  0  0  0  0
   -4.5149    8.3026    1.2232 O   0  0  0  0  0  0  0  0  0  0  0  0
   -5.2764    6.4952   -0.0141 N   0  0  0  0  0  0  0  0  0  0  0  0
   -5.2946    5.0906   -0.4331 C   0  0  2  0  0  0  0  0  0  0  0  0
   -5.7716    4.9852   -1.8838 C   0  0  0  0  0  0  0  0  0  0  0  0
   -6.1661    4.2873    0.4963 C   0  0  0  0  0  0  0  0  0  0  0  0
   -5.7206    3.2169    0.9920 O   0  0  0  0  0  0  0  0  0  0  0  0
   -7.4617    4.7505    0.8827 N   0  0  0  0  0  0  0  0  0  0  0  0
   -8.6347    4.5798    0.0244 C   0  0  2  0  0  0  0  0  0  0  0  0
   -9.2888    5.9366   -0.2351 C   0  0  0  0  0  0  0  0  0  0  0  0
   -9.6089    3.6317    0.6760 C   0  0  0  0  0  0  0  0  0  0  0  0
  -10.2528    4.0067    1.6944 O   0  0  0  0  0  0  0  0  0  0  0  0
   -9.8481    2.3131    0.1550 N   0  0  0  0  0  0  0  0  0  0  0  0
   -8.8344    1.5104   -0.5301 C   0  0  2  0  0  0  0  0  0  0  0  0
   -9.1518    1.4658   -2.0295 C   0  0  0  0  0  0  0  0  0  0  0  0
   -8.7746    0.1425    0.1105 C   0  0  0  0  0  0  0  0  0  0  0  0
   -8.5757    0.0673    1.3552 O   0  0  0  0  0  0  0  0  0  0  0  0
   -8.9762   -1.0623   -0.6471 N   0  0  0  0  0  0  0  0  0  0  0  0
   -9.9647   -2.0764   -0.2653 C   0  0  2  0  0  0  0  0  0  0  0  0
  -11.3614   -1.4449   -0.1629 C   0  0  0  0  0  0  0  0  0  0  0  0
   -9.5636   -2.7888    1.0153 C   0  0  0  0  0  0  0  0  0  0  0  0
  -10.1391   -2.4776    2.0973 O   0  0  0  0  0  0  0  0  0  0  0  0
   -8.5558   -3.8146    1.0555 N   0  0  0  0  0  0  0  0  0  0  0  0
   -7.9423   -4.4509   -0.1174 C   0  0  2  0  0  0  0  0  0  0  0  0
   -8.9167   -5.4441   -0.7674 C   0  0  0  0  0  0  0  0  0  0  0  0
   -6.6983   -5.2010    0.2970 C   0  0  0  0  0  0  0  0  0  0  0  0
   -6.8090   -6.1842    1.0809 O   0  0  0  0  0  0  0  0  0  0  0  0
   -5.4057   -4.8238   -0.2129 N   0  0  0  0  0  0  0  0  0  0  0  0
   -4.3942   -5.7855   -0.6838 C   0  0  2  0  0  0  0  0  0  0  0  0
   -5.0162   -6.8257   -1.6225 C   0  0  0  0  0  0  0  0  0  0  0  0
   -3.6696   -6.4735    0.4614 C   0  0  0  0  0  0  0  0  0  0  0  0
   -4.3548   -7.0380    1.3586 O   0  0  0  0  0  0  0  0  0  0  0  0
   -2.2388   -6.6214    0.5210 N   0  0  0  0  0  0  0  0  0  0  0  0
   -1.2214   -5.8605   -0.2191 C   0  0  1  0  0  0  0  0  0  0  0  0
   -1.2995   -6.1328   -1.7026 C   0  0  0  0  0  0  0  0  0  0  0  0
   -1.2376   -7.4787   -2.1762 N   0  0  0  0  0  0  0  0  0  0  0  0
   -1.4159   -5.1891   -2.5285 O   0  0  0  0  0  0  0  0  0  0  0  0
   -1.2532   -4.3595    0.1491 C   0  0  0  0  0  0  0  0  0  0  0  0
   -1.3592   -4.0875    1.9653 S   0  0  0  0  0  0  0  0  0  0  0  0
    0.3450   -4.5883    2.4166 C   0  0  0  0  0  0  0  0  0  0  0  0
    7.0067   -5.8394   -2.6500 H   0  0  0  0  0  0  0  0  0  0  0  0
    8.7470   -6.1911   -2.9685 H   0  0  0  0  0  0  0  0  0  0  0  0
    8.2759   -4.6489   -2.2067 H   0  0  0  0  0  0  0  0  0  0  0  0
    8.3730   -6.3315    1.1822 H   0  0  0  0  0  0  0  0  0  0  0  0
    8.2803   -4.1295    1.6699 H   0  0  0  0  0  0  0  0  0  0  0  0
    7.0411   -3.2868   -0.9850 H   0  0  0  0  0  0  0  0  0  0  0  0
    6.7206   -2.7380    0.6926 H   0  0  0  0  0  0  0  0  0  0  0  0
    3.7858   -4.1918   -1.3819 H   0  0  0  0  0  0  0  0  0  0  0  0
    4.7925   -2.7574   -1.0634 H   0  0  0  0  0  0  0  0  0  0  0  0
    2.3609   -5.0978    0.6325 H   0  0  0  0  0  0  0  0  0  0  0  0
    0.6180   -1.9609    3.0030 H   0  0  0  0  0  0  0  0  0  0  0  0
    3.9417   -1.1002    0.4131 H   0  0  0  0  0  0  0  0  0  0  0  0
    2.0979    0.1292    3.2663 H   0  0  0  0  0  0  0  0  0  0  0  0
    3.0900    0.6487    1.8691 H   0  0  0  0  0  0  0  0  0  0  0  0
    0.7240    0.7610   -1.0002 H   0  0  0  0  0  0  0  0  0  0  0  0
    2.3870    0.7200   -0.3632 H   0  0  0  0  0  0  0  0  0  0  0  0
    2.1387    3.1315    0.3926 H   0  0  0  0  0  0  0  0  0  0  0  0
    1.4462    3.1171   -2.5440 H   0  0  0  0  0  0  0  0  0  0  0  0
    4.1732    2.3689   -0.0976 H   0  0  0  0  0  0  0  0  0  0  0  0
    5.8417    0.8854   -1.1145 H   0  0  0  0  0  0  0  0  0  0  0  0
    4.2899    0.6972   -2.0078 H   0  0  0  0  0  0  0  0  0  0  0  0
    5.6336    1.6769   -2.7235 H   0  0  0  0  0  0  0  0  0  0  0  0
    5.5695    4.6149   -1.2289 H   0  0  0  0  0  0  0  0  0  0  0  0
    8.6128    2.5777   -0.9875 H   0  0  0  0  0  0  0  0  0  0  0  0
    7.8255    5.4720   -1.6220 H   0  0  0  0  0  0  0  0  0  0  0  0
    9.2672    4.5872   -2.2488 H   0  0  0  0  0  0  0  0  0  0  0  0
    7.6221    4.0219   -2.7002 H   0  0  0  0  0  0  0  0  0  0  0  0
    8.8224    5.0921    0.7235 H   0  0  0  0  0  0  0  0  0  0  0  0
   10.6399    1.8697   -0.3956 H   0  0  0  0  0  0  0  0  0  0  0  0
   12.2555    0.6680    0.9519 H   0  0  0  0  0  0  0  0  0  0  0  0
   12.0115    1.7798    2.3518 H   0  0  0  0  0  0  0  0  0  0  0  0
   12.7884    2.3688    0.8245 H   0  0  0  0  0  0  0  0  0  0  0  0
    8.9759    1.7602    2.0604 H   0  0  0  0  0  0  0  0  0  0  0  0
    8.2095   -1.2450    0.4064 H   0  0  0  0  0  0  0  0  0  0  0  0
    9.0204    0.3524   -1.2358 H   0  0  0  0  0  0  0  0  0  0  0  0
    9.3628   -1.3054   -1.7987 H   0  0  0  0  0  0  0  0  0  0  0  0
   10.7088   -0.3248   -1.1225 H   0  0  0  0  0  0  0  0  0  0  0  0
   11.0358   -2.2964    0.6585 H   0  0  0  0  0  0  0  0  0  0  0  0
   -0.9223    3.9656    1.4118 H   0  0  0  0  0  0  0  0  0  0  0  0
    1.2309    5.6863    0.1303 H   0  0  0  0  0  0  0  0  0  0  0  0
    0.9367    7.2123    2.0419 H   0  0  0  0  0  0  0  0  0  0  0  0
   -0.3394    6.1461    2.7387 H   0  0  0  0  0  0  0  0  0  0  0  0
    1.3521    5.5434    2.5878 H   0  0  0  0  0  0  0  0  0  0  0  0
   -2.6242    6.1476   -0.8824 H   0  0  0  0  0  0  0  0  0  0  0  0
   -2.4277    7.2355    1.8432 H   0  0  0  0  0  0  0  0  0  0  0  0
   -3.3184    4.3310    1.5427 H   0  0  0  0  0  0  0  0  0  0  0  0
   -4.1163    5.4032    2.7566 H   0  0  0  0  0  0  0  0  0  0  0  0
   -2.3598    5.1237    2.8218 H   0  0  0  0  0  0  0  0  0  0  0  0
   -6.1383    7.0562   -0.2073 H   0  0  0  0  0  0  0  0  0  0  0  0
   -4.2720    4.6657   -0.4268 H   0  0  0  0  0  0  0  0  0  0  0  0
   -6.7421    5.4992   -2.0304 H   0  0  0  0  0  0  0  0  0  0  0  0
   -5.8736    3.9201   -2.1819 H   0  0  0  0  0  0  0  0  0  0  0  0
   -5.0300    5.4633   -2.5564 H   0  0  0  0  0  0  0  0  0  0  0  0
   -7.5939    5.0760    1.8654 H   0  0  0  0  0  0  0  0  0  0  0  0
   -8.3295    4.1714   -0.9609 H   0  0  0  0  0  0  0  0  0  0  0  0
   -9.5991    6.4165    0.7170 H   0  0  0  0  0  0  0  0  0  0  0  0
  -10.1826    5.8143   -0.8839 H   0  0  0  0  0  0  0  0  0  0  0  0
   -8.5740    6.6099   -0.7513 H   0  0  0  0  0  0  0  0  0  0  0  0
  -10.7772    1.8723    0.3506 H   0  0  0  0  0  0  0  0  0  0  0  0
   -7.8323    1.9710   -0.4048 H   0  0  0  0  0  0  0  0  0  0  0  0
   -9.2577    2.4943   -2.4303 H   0  0  0  0  0  0  0  0  0  0  0  0
   -8.3267    0.9710   -2.5853 H   0  0  0  0  0  0  0  0  0  0  0  0
  -10.1016    0.9224   -2.2120 H   0  0  0  0  0  0  0  0  0  0  0  0
   -8.5635   -1.1343   -1.6030 H   0  0  0  0  0  0  0  0  0  0  0  0
  -10.0351   -2.8118   -1.0865 H   0  0  0  0  0  0  0  0  0  0  0  0
  -11.4099   -0.6936    0.6566 H   0  0  0  0  0  0  0  0  0  0  0  0
  -12.1244   -2.2289    0.0271 H   0  0  0  0  0  0  0  0  0  0  0  0
  -11.6205   -0.9376   -1.1164 H   0  0  0  0  0  0  0  0  0  0  0  0
   -8.2428   -4.1146    2.0067 H   0  0  0  0  0  0  0  0  0  0  0  0
   -7.6630   -3.6700   -0.8589 H   0  0  0  0  0  0  0  0  0  0  0  0
   -9.8441   -4.9561   -1.1172 H   0  0  0  0  0  0  0  0  0  0  0  0
   -9.2043   -6.2360   -0.0430 H   0  0  0  0  0  0  0  0  0  0  0  0
   -8.4321   -5.9240   -1.6442 H   0  0  0  0  0  0  0  0  0  0  0  0
   -5.2771   -3.8270   -0.4935 H   0  0  0  0  0  0  0  0  0  0  0  0
   -3.6722   -5.2189   -1.2931 H   0  0  0  0  0  0  0  0  0  0  0  0
   -5.7437   -7.4702   -1.0841 H   0  0  0  0  0  0  0  0  0  0  0  0
   -4.2250   -7.4723   -2.0529 H   0  0  0  0  0  0  0  0  0  0  0  0
   -5.5438   -6.3128   -2.4556 H   0  0  0  0  0  0  0  0  0  0  0  0
   -1.8734   -7.3138    1.2155 H   0  0  0  0  0  0  0  0  0  0  0  0
   -0.2223   -6.2415    0.0851 H   0  0  0  0  0  0  0  0  0  0  0  0
   -1.1068   -8.2711   -1.5101 H   0  0  0  0  0  0  0  0  0  0  0  0
   -1.3528   -7.6853   -3.1932 H   0  0  0  0  0  0  0  0  0  0  0  0
   -2.1330   -3.8666   -0.3106 H   0  0  0  0  0  0  0  0  0  0  0  0
   -0.3469   -3.8621   -0.2517 H   0  0  0  0  0  0  0  0  0  0  0  0
    0.4165   -4.5798    3.5255 H   0  0  0  0  0  0  0  0  0  0  0  0
    0.5408   -5.6305    2.0967 H   0  0  0  0  0  0  0  0  0  0  0  0
  1  2  1  0
  2  3  2  0
  2  4  1  0
  4  5  1  0
  5  6  1  0
  6  7  1  0
  7  8  1  0
  8  9  1  0
  9 10  2  0
 10 11  1  0
 11 12  2  0
 12 13  1  0
 13 14  2  0
 13 15  1  0
 15 16  1  0
 16 17  1  0
 17 18  1  0
 18 19  1  0
 19 20  1  0
 20 21  2  0
 20 22  1  0
 22 23  1  0
 22 24  1  0
 24 25  1  0
 25 26  2  0
 25 27  1  0
 27 28  1  0
 27 29  1  0
 29 30  1  0
 30 31  2  0
 30 32  1  0
 32 33  1  0
 32 34  1  0
 34 35  1  0
 35 36  2  0
 35 37  1  0
 37 38  1  0
 37 39  1  0
 39 40  1  0
 40 41  2  0
 18 42  1  0
 42 43  2  0
 42 44  1  0
 44 45  1  0
 45 46  1  0
 45 47  1  0
 47 48  2  0
 47 49  1  0
 49 50  1  0
 50 51  1  0
 50 52  1  0
 52 53  2  0
 52 54  1  0
 54 55  1  0
 55 56  1  0
 55 57  1  0
 57 58  2  0
 57 59  1  0
 59 60  1  0
 60 61  1  0
 60 62  1  0
 62 63  2  0
 62 64  1  0
 64 65  1  0
 65 66  1  0
 65 67  1  0
 67 68  2  0
 67 69  1  0
 69 70  1  0
 70 71  1  0
 70 72  1  0
 72 73  2  0
 72 74  1  0
 74 75  1  0
 75 76  1  0
 75 77  1  0
 77 78  2  0
 77 79  1  0
 79 80  1  0
 80 81  1  0
 80 82  1  0
 82 83  2  0
 82 84  1  0
 84 85  1  0
 85 86  1  0
 86 87  1  0
 86 88  2  0
 85 89  1  0
 89 90  1  0
 90 91  1  0
 40  5  1  0
 14  9  1  0
 91 11  1  0
  1 92  1  0
  1 93  1  0
  1 94  1  0
  4 95  1  0
  5 96  1  1
  6 97  1  0
  6 98  1  0
  8 99  1  0
  8100  1  0
 10101  1  0
 12102  1  0
 14103  1  0
 15104  1  0
 15105  1  0
 17106  1  0
 17107  1  0
 18108  1  1
 19109  1  0
 22110  1  1
 23111  1  0
 23112  1  0
 23113  1  0
 24114  1  0
 27115  1  6
 28116  1  0
 28117  1  0
 28118  1  0
 29119  1  0
 32120  1  6
 33121  1  0
 33122  1  0
 33123  1  0
 34124  1  0
 37125  1  6
 38126  1  0
 38127  1  0
 38128  1  0
 39129  1  0
 44130  1  0
 45131  1  6
 46132  1  0
 46133  1  0
 46134  1  0
 49135  1  0
 50136  1  1
 51137  1  0
 51138  1  0
 51139  1  0
 54140  1  0
 55141  1  6
 56142  1  0
 56143  1  0
 56144  1  0
 59145  1  0
 60146  1  6
 61147  1  0
 61148  1  0
 61149  1  0
 64150  1  0
 65151  1  6
 66152  1  0
 66153  1  0
 66154  1  0
 69155  1  0
 70156  1  6
 71157  1  0
 71158  1  0
 71159  1  0
 74160  1  0
 75161  1  6
 76162  1  0
 76163  1  0
 76164  1  0
 79165  1  0
 80166  1  6
 81167  1  0
 81168  1  0
 81169  1  0
 84170  1  0
 85171  1  1
 87172  1  0
 87173  1  0
 89174  1  0
 89175  1  0
 91176  1  0
 91177  1  0
M  END
