
     RDKit          3D

177179  0  0  0  0  0  0  0  0999 V2000
   -7.9605    8.0283   -0.9365 C   0  0  0  0  0  0  0  0  0  0  0  0
   -7.9825    6.5384   -0.8667 C   0  0  0  0  0  0  0  0  0  0  0  0
   -7.6654    5.8631   -1.8818 O   0  0  0  0  0  0  0  0  0  0  0  0
   -8.3555    5.8834    0.3543 N   0  0  0  0  0  0  0  0  0  0  0  0
   -8.1674    4.4400    0.5679 C   0  0  1  0  0  0  0  0  0  0  0  0
   -6.9241    4.2198    1.4551 C   0  0  0  0  0  0  0  0  0  0  0  0
   -6.0807    2.6405    1.0517 S   0  0  0  0  0  0  0  0  0  0  0  0
   -5.4026    3.1711   -0.5684 C   0  0  0  0  0  0  0  0  0  0  0  0
   -3.9503    2.8086   -0.6513 C   0  0  0  0  0  0  0  0  0  0  0  0
   -2.9586    3.7443   -0.3119 C   0  0  0  0  0  0  0  0  0  0  0  0
   -1.6037    3.3922   -0.3791 C   0  0  0  0  0  0  0  0  0  0  0  0
   -1.2510    2.0931   -0.7621 C   0  0  0  0  0  0  0  0  0  0  0  0
   -2.2358    1.1337   -1.0343 C   0  0  0  0  0  0  0  0  0  0  0  0
   -3.5856    1.5027   -0.9975 C   0  0  0  0  0  0  0  0  0  0  0  0
   -1.8579   -0.2956   -1.2507 C   0  0  0  0  0  0  0  0  0  0  0  0
   -1.4717   -1.0577    0.3655 S   0  0  0  0  0  0  0  0  0  0  0  0
   -3.0247   -2.0171    0.5640 C   0  0  0  0  0  0  0  0  0  0  0  0
   -3.0933   -3.3758   -0.1894 C   0  0  1  0  0  0  0  0  0  0  0  0
   -4.2216   -3.3442   -1.1298 N   0  0  0  0  0  0  0  0  0  0  0  0
   -5.2292   -4.3542   -1.3210 C   0  0  0  0  0  0  0  0  0  0  0  0
   -5.8405   -4.3756   -2.4310 O   0  0  0  0  0  0  0  0  0  0  0  0
   -5.6627   -5.3486   -0.2679 C   0  0  1  0  0  0  0  0  0  0  0  0
   -4.6831   -6.5208   -0.1129 C   0  0  0  0  0  0  0  0  0  0  0  0
   -5.9422   -4.7039    1.0179 N   0  0  0  0  0  0  0  0  0  0  0  0
   -7.2533   -4.4275    1.5606 C   0  0  0  0  0  0  0  0  0  0  0  0
   -7.3266   -3.8784    2.7005 O   0  0  0  0  0  0  0  0  0  0  0  0
   -8.5357   -4.8592    0.8795 C   0  0  1  0  0  0  0  0  0  0  0  0
   -8.8065   -6.3319    1.2046 C   0  0  0  0  0  0  0  0  0  0  0  0
   -9.6673   -4.0391    1.3509 N   0  0  0  0  0  0  0  0  0  0  0  0
   -9.9391   -2.6939    0.9154 C   0  0  0  0  0  0  0  0  0  0  0  0
  -10.8870   -2.0645    1.4674 O   0  0  0  0  0  0  0  0  0  0  0  0
   -9.2086   -2.0641   -0.2471 C   0  0  1  0  0  0  0  0  0  0  0  0
   -9.9010   -2.3676   -1.5811 C   0  0  0  0  0  0  0  0  0  0  0  0
   -9.0163   -0.6233   -0.0497 N   0  0  0  0  0  0  0  0  0  0  0  0
  -10.0239    0.3850   -0.2739 C   0  0  0  0  0  0  0  0  0  0  0  0
  -11.2390    0.0703   -0.3552 O   0  0  0  0  0  0  0  0  0  0  0  0
   -9.6166    1.8405   -0.3987 C   0  0  1  0  0  0  0  0  0  0  0  0
  -10.2752    2.4838   -1.6127 C   0  0  0  0  0  0  0  0  0  0  0  0
   -9.9721    2.5759    0.8182 N   0  0  0  0  0  0  0  0  0  0  0  0
   -9.4016    3.8383    1.2213 C   0  0  0  0  0  0  0  0  0  0  0  0
   -9.9145    4.4556    2.2003 O   0  0  0  0  0  0  0  0  0  0  0  0
   -1.8422   -3.7862   -0.9429 C   0  0  0  0  0  0  0  0  0  0  0  0
   -1.5226   -3.1878   -1.9967 O   0  0  0  0  0  0  0  0  0  0  0  0
   -1.1248   -4.9816   -0.6043 N   0  0  0  0  0  0  0  0  0  0  0  0
   -0.0336   -5.0562    0.3796 C   0  0  2  0  0  0  0  0  0  0  0  0
   -0.5740   -4.8042    1.7799 C   0  0  0  0  0  0  0  0  0  0  0  0
    1.0842   -4.0876    0.0358 C   0  0  0  0  0  0  0  0  0  0  0  0
    0.8293   -2.8544    0.0072 O   0  0  0  0  0  0  0  0  0  0  0  0
    2.4321   -4.4882   -0.2741 N   0  0  0  0  0  0  0  0  0  0  0  0
    3.0213   -5.8302   -0.1300 C   0  0  2  0  0  0  0  0  0  0  0  0
    3.1676   -6.1953    1.3562 C   0  0  0  0  0  0  0  0  0  0  0  0
    4.3573   -5.8522   -0.8650 C   0  0  0  0  0  0  0  0  0  0  0  0
    4.3495   -5.8183   -2.1160 O   0  0  0  0  0  0  0  0  0  0  0  0
    5.6088   -5.7453   -0.1547 N   0  0  0  0  0  0  0  0  0  0  0  0
    6.6925   -4.8218   -0.5355 C   0  0  2  0  0  0  0  0  0  0  0  0
    6.1511   -3.4619   -0.9952 C   0  0  0  0  0  0  0  0  0  0  0  0
    7.5863   -5.4306   -1.5871 C   0  0  0  0  0  0  0  0  0  0  0  0
    7.1596   -6.3414   -2.3503 O   0  0  0  0  0  0  0  0  0  0  0  0
    8.9303   -4.9655   -1.7436 N   0  0  0  0  0  0  0  0  0  0  0  0
   10.0343   -5.2580   -0.8116 C   0  0  2  0  0  0  0  0  0  0  0  0
    9.7257   -6.4530    0.1084 C   0  0  0  0  0  0  0  0  0  0  0  0
   10.4178   -4.0359    0.0079 C   0  0  0  0  0  0  0  0  0  0  0  0
   11.2701   -4.1530    0.9371 O   0  0  0  0  0  0  0  0  0  0  0  0
    9.8661   -2.7480   -0.2992 N   0  0  0  0  0  0  0  0  0  0  0  0
    9.7686   -1.6804    0.7122 C   0  0  2  0  0  0  0  0  0  0  0  0
    8.6461   -2.0203    1.7001 C   0  0  0  0  0  0  0  0  0  0  0  0
    9.5601   -0.3089    0.0962 C   0  0  0  0  0  0  0  0  0  0  0  0
    9.2867   -0.1969   -1.1255 O   0  0  0  0  0  0  0  0  0  0  0  0
    9.6718    0.8740    0.9042 N   0  0  0  0  0  0  0  0  0  0  0  0
    9.6764    2.2195    0.3109 C   0  0  2  0  0  0  0  0  0  0  0  0
   11.0270    2.4776   -0.3740 C   0  0  0  0  0  0  0  0  0  0  0  0
    9.4239    3.3181    1.3380 C   0  0  0  0  0  0  0  0  0  0  0  0
    9.6590    3.0984    2.5560 O   0  0  0  0  0  0  0  0  0  0  0  0
    8.9962    4.6397    0.9477 N   0  0  0  0  0  0  0  0  0  0  0  0
    8.4445    4.9796   -0.3684 C   0  0  2  0  0  0  0  0  0  0  0  0
    8.8448    6.4041   -0.7645 C   0  0  0  0  0  0  0  0  0  0  0  0
    6.9394    4.7654   -0.3583 C   0  0  0  0  0  0  0  0  0  0  0  0
    6.4853    3.6672   -0.7789 O   0  0  0  0  0  0  0  0  0  0  0  0
    6.0431    5.7688    0.1662 N   0  0  0  0  0  0  0  0  0  0  0  0
    4.6041    5.5887    0.4114 C   0  0  2  0  0  0  0  0  0  0  0  0
    4.3207    4.3687    1.2915 C   0  0  0  0  0  0  0  0  0  0  0  0
    3.8441    5.5114   -0.9004 C   0  0  0  0  0  0  0  0  0  0  0  0
    4.1751    4.6698   -1.7784 O   0  0  0  0  0  0  0  0  0  0  0  0
    2.7411    6.3968   -1.1708 N   0  0  0  0  0  0  0  0  0  0  0  0
    1.7460    6.7652   -0.1650 C   0  0  1  0  0  0  0  0  0  0  0  0
    2.1384    8.0594    0.5009 C   0  0  0  0  0  0  0  0  0  0  0  0
    2.4108    9.2261   -0.2729 N   0  0  0  0  0  0  0  0  0  0  0  0
    2.2383    8.1101    1.7541 O   0  0  0  0  0  0  0  0  0  0  0  0
    0.3449    6.8882   -0.7883 C   0  0  0  0  0  0  0  0  0  0  0  0
   -0.1828    5.3380   -1.6133 S   0  0  0  0  0  0  0  0  0  0  0  0
   -0.5414    4.4149   -0.0860 C   0  0  0  0  0  0  0  0  0  0  0  0
   -7.6399    8.3668   -1.9433 H   0  0  0  0  0  0  0  0  0  0  0  0
   -8.9738    8.4312   -0.7382 H   0  0  0  0  0  0  0  0  0  0  0  0
   -7.2450    8.4262   -0.1809 H   0  0  0  0  0  0  0  0  0  0  0  0
   -8.6110    6.4794    1.1773 H   0  0  0  0  0  0  0  0  0  0  0  0
   -8.0018    3.9615   -0.4060 H   0  0  0  0  0  0  0  0  0  0  0  0
   -7.1951    4.2176    2.5256 H   0  0  0  0  0  0  0  0  0  0  0  0
   -6.1943    5.0498    1.3296 H   0  0  0  0  0  0  0  0  0  0  0  0
   -5.5181    4.2709   -0.7161 H   0  0  0  0  0  0  0  0  0  0  0  0
   -5.9721    2.6695   -1.3752 H   0  0  0  0  0  0  0  0  0  0  0  0
   -3.2411    4.7430   -0.0115 H   0  0  0  0  0  0  0  0  0  0  0  0
   -0.2022    1.8233   -0.7986 H   0  0  0  0  0  0  0  0  0  0  0  0
   -4.3568    0.7732   -1.2058 H   0  0  0  0  0  0  0  0  0  0  0  0
   -0.9475   -0.3361   -1.8816 H   0  0  0  0  0  0  0  0  0  0  0  0
   -2.6646   -0.8407   -1.7708 H   0  0  0  0  0  0  0  0  0  0  0  0
   -3.1363   -2.2004    1.6562 H   0  0  0  0  0  0  0  0  0  0  0  0
   -3.8828   -1.3689    0.2931 H   0  0  0  0  0  0  0  0  0  0  0  0
   -3.2592   -4.1393    0.5757 H   0  0  0  0  0  0  0  0  0  0  0  0
   -4.2079   -2.5871   -1.8493 H   0  0  0  0  0  0  0  0  0  0  0  0
   -6.5944   -5.8261   -0.6555 H   0  0  0  0  0  0  0  0  0  0  0  0
   -3.6836   -6.2138    0.2466 H   0  0  0  0  0  0  0  0  0  0  0  0
   -4.5638   -7.0510   -1.0759 H   0  0  0  0  0  0  0  0  0  0  0  0
   -5.0883   -7.2489    0.6204 H   0  0  0  0  0  0  0  0  0  0  0  0
   -5.1450   -4.4539    1.6340 H   0  0  0  0  0  0  0  0  0  0  0  0
   -8.4596   -4.7663   -0.2212 H   0  0  0  0  0  0  0  0  0  0  0  0
   -7.9746   -6.9738    0.8379 H   0  0  0  0  0  0  0  0  0  0  0  0
   -9.7378   -6.6538    0.6945 H   0  0  0  0  0  0  0  0  0  0  0  0
   -8.9102   -6.4895    2.2997 H   0  0  0  0  0  0  0  0  0  0  0  0
  -10.3066   -4.4357    2.0806 H   0  0  0  0  0  0  0  0  0  0  0  0
   -8.1920   -2.5092   -0.3011 H   0  0  0  0  0  0  0  0  0  0  0  0
   -9.8373   -3.4511   -1.8077 H   0  0  0  0  0  0  0  0  0  0  0  0
   -9.4210   -1.8095   -2.3988 H   0  0  0  0  0  0  0  0  0  0  0  0
  -10.9773   -2.0989   -1.5463 H   0  0  0  0  0  0  0  0  0  0  0  0
   -8.0472   -0.2944    0.1958 H   0  0  0  0  0  0  0  0  0  0  0  0
   -8.5202    1.8616   -0.5501 H   0  0  0  0  0  0  0  0  0  0  0  0
  -11.3715    2.5833   -1.4566 H   0  0  0  0  0  0  0  0  0  0  0  0
   -9.8596    3.4988   -1.7950 H   0  0  0  0  0  0  0  0  0  0  0  0
  -10.1081    1.8715   -2.5202 H   0  0  0  0  0  0  0  0  0  0  0  0
  -10.7927    2.2418    1.3759 H   0  0  0  0  0  0  0  0  0  0  0  0
   -1.3202   -5.8338   -1.1803 H   0  0  0  0  0  0  0  0  0  0  0  0
    0.3549   -6.0958    0.3655 H   0  0  0  0  0  0  0  0  0  0  0  0
   -0.9107   -3.7488    1.8949 H   0  0  0  0  0  0  0  0  0  0  0  0
   -1.4402   -5.4700    1.9827 H   0  0  0  0  0  0  0  0  0  0  0  0
    0.2108   -5.0056    2.5473 H   0  0  0  0  0  0  0  0  0  0  0  0
    3.0658   -3.7129   -0.5773 H   0  0  0  0  0  0  0  0  0  0  0  0
    2.3652   -6.5800   -0.6171 H   0  0  0  0  0  0  0  0  0  0  0  0
    3.7019   -7.1679    1.4588 H   0  0  0  0  0  0  0  0  0  0  0  0
    2.1783   -6.3126    1.8280 H   0  0  0  0  0  0  0  0  0  0  0  0
    3.7324   -5.4049    1.8947 H   0  0  0  0  0  0  0  0  0  0  0  0
    5.7684   -6.3509    0.6899 H   0  0  0  0  0  0  0  0  0  0  0  0
    7.3050   -4.6326    0.3770 H   0  0  0  0  0  0  0  0  0  0  0  0
    5.5818   -3.5526   -1.9453 H   0  0  0  0  0  0  0  0  0  0  0  0
    6.9896   -2.7564   -1.1648 H   0  0  0  0  0  0  0  0  0  0  0  0
    5.4825   -3.0419   -0.2185 H   0  0  0  0  0  0  0  0  0  0  0  0
    9.1816   -4.5396   -2.6705 H   0  0  0  0  0  0  0  0  0  0  0  0
   10.9342   -5.5416   -1.4118 H   0  0  0  0  0  0  0  0  0  0  0  0
    8.9697   -6.1772    0.8797 H   0  0  0  0  0  0  0  0  0  0  0  0
   10.6499   -6.7893    0.6300 H   0  0  0  0  0  0  0  0  0  0  0  0
    9.3357   -7.3080   -0.4843 H   0  0  0  0  0  0  0  0  0  0  0  0
    9.7550   -2.5182   -1.3210 H   0  0  0  0  0  0  0  0  0  0  0  0
   10.7224   -1.6346    1.2720 H   0  0  0  0  0  0  0  0  0  0  0  0
    8.5894   -1.2637    2.5082 H   0  0  0  0  0  0  0  0  0  0  0  0
    7.6595   -2.0503    1.1760 H   0  0  0  0  0  0  0  0  0  0  0  0
    8.8209   -3.0124    2.1604 H   0  0  0  0  0  0  0  0  0  0  0  0
    9.6784    0.7541    1.9477 H   0  0  0  0  0  0  0  0  0  0  0  0
    8.8605    2.2538   -0.4341 H   0  0  0  0  0  0  0  0  0  0  0  0
   11.0219    3.4719   -0.8734 H   0  0  0  0  0  0  0  0  0  0  0  0
   11.8470    2.4485    0.3701 H   0  0  0  0  0  0  0  0  0  0  0  0
   11.2113    1.7068   -1.1468 H   0  0  0  0  0  0  0  0  0  0  0  0
    8.8833    5.3373    1.7146 H   0  0  0  0  0  0  0  0  0  0  0  0
    8.8724    4.3248   -1.1656 H   0  0  0  0  0  0  0  0  0  0  0  0
    9.9391    6.4321   -0.9454 H   0  0  0  0  0  0  0  0  0  0  0  0
    8.3304    6.7018   -1.7067 H   0  0  0  0  0  0  0  0  0  0  0  0
    8.6127    7.1365    0.0327 H   0  0  0  0  0  0  0  0  0  0  0  0
    6.4549    6.6799    0.4739 H   0  0  0  0  0  0  0  0  0  0  0  0
    4.2433    6.4776    0.9750 H   0  0  0  0  0  0  0  0  0  0  0  0
    4.5331    3.4170    0.7672 H   0  0  0  0  0  0  0  0  0  0  0  0
    3.2600    4.3677    1.6077 H   0  0  0  0  0  0  0  0  0  0  0  0
    4.9545    4.4244    2.2021 H   0  0  0  0  0  0  0  0  0  0  0  0
    2.5126    6.5521   -2.1804 H   0  0  0  0  0  0  0  0  0  0  0  0
    1.6963    5.9657    0.5996 H   0  0  0  0  0  0  0  0  0  0  0  0
    2.7654   10.0887    0.1895 H   0  0  0  0  0  0  0  0  0  0  0  0
    2.2891    9.2280   -1.3143 H   0  0  0  0  0  0  0  0  0  0  0  0
   -0.4092    7.1765   -0.0236 H   0  0  0  0  0  0  0  0  0  0  0  0
    0.3372    7.6895   -1.5580 H   0  0  0  0  0  0  0  0  0  0  0  0
    0.3888    3.9132    0.2586 H   0  0  0  0  0  0  0  0  0  0  0  0
   -0.8905    5.0808    0.7214 H   0  0  0  0  0  0  0  0  0  0  0  0
  1  2  1  0
  2  3  2  0
  2  4  1  0
  4  5  1  0
  5  6  1  0
  6  7  1  0
  7  8  1  0
  8  9  1  0
  9 10  2  0
 10 11  1  0
 11 12  2  0
 12 13  1  0
 13 14  2  0
 13 15  1  0
 15 16  1  0
 16 17  1  0
 17 18  1  0
 18 19  1  0
 19 20  1  0
 20 21  2  0
 20 22  1  0
 22 23  1  0
 22 24  1  0
 24 25  1  0
 25 26  2  0
 25 27  1  0
 27 28  1  0
 27 29  1  0
 29 30  1  0
 30 31  2  0
 30 32  1  0
 32 33  1  0
 32 34  1  0
 34 35  1  0
 35 36  2  0
 35 37  1  0
 37 38  1  0
 37 39  1  0
 39 40  1  0
 40 41  2  0
 18 42  1  0
 42 43  2  0
 42 44  1  0
 44 45  1  0
 45 46  1  0
 45 47  1  0
 47 48  2  0
 47 49  1  0
 49 50  1  0
 50 51  1  0
 50 52  1  0
 52 53  2  0
 52 54  1  0
 54 55  1  0
 55 56  1  0
 55 57  1  0
 57 58  2  0
 57 59  1  0
 59 60  1  0
 60 61  1  0
 60 62  1  0
 62 63  2  0
 62 64  1  0
 64 65  1  0
 65 66  1  0
 65 67  1  0
 67 68  2  0
 67 69  1  0
 69 70  1  0
 70 71  1  0
 70 72  1  0
 72 73  2  0
 72 74  1  0
 74 75  1  0
 75 76  1  0
 75 77  1  0
 77 78  2  0
 77 79  1  0
 79 80  1  0
 80 81  1  0
 80 82  1  0
 82 83  2  0
 82 84  1  0
 84 85  1  0
 85 86  1  0
 86 87  1  0
 86 88  2  0
 85 89  1  0
 89 90  1  0
 90 91  1  0
 40  5  1  0
 14  9  1  0
 91 11  1  0
  1 92  1  0
  1 93  1  0
  1 94  1  0
  4 95  1  0
  5 96  1  6
  6 97  1  0
  6 98  1  0
  8 99  1  0
  8100  1  0
 10101  1  0
 12102  1  0
 14103  1  0
 15104  1  0
 15105  1  0
 17106  1  0
 17107  1  0
 18108  1  1
 19109  1  0
 22110  1  6
 23111  1  0
 23112  1  0
 23113  1  0
 24114  1  0
 27115  1  6
 28116  1  0
 28117  1  0
 28118  1  0
 29119  1  0
 32120  1  6
 33121  1  0
 33122  1  0
 33123  1  0
 34124  1  0
 37125  1  6
 38126  1  0
 38127  1  0
 38128  1  0
 39129  1  0
 44130  1  0
 45131  1  1
 46132  1  0
 46133  1  0
 46134  1  0
 49135  1  0
 50136  1  6
 51137  1  0
 51138  1  0
 51139  1  0
 54140  1  0
 55141  1  1
 56142  1  0
 56143  1  0
 56144  1  0
 59145  1  0
 60146  1  6
 61147  1  0
 61148  1  0
 61149  1  0
 64150  1  0
 65151  1  1
 66152  1  0
 66153  1  0
 66154  1  0
 69155  1  0
 70156  1  6
 71157  1  0
 71158  1  0
 71159  1  0
 74160  1  0
 75161  1  6
 76162  1  0
 76163  1  0
 76164  1  0
 79165  1  0
 80166  1  1
 81167  1  0
 81168  1  0
 81169  1  0
 84170  1  0
 85171  1  1
 87172  1  0
 87173  1  0
 89174  1  0
 89175  1  0
 91176  1  0
 91177  1  0
M  END
