
     RDKit          3D

167169  0  0  0  0  0  0  0  0999 V2000
   -9.1991    4.4455    2.9833 C   0  0  0  0  0  0  0  0  0  0  0  0
   -8.3709    4.4662    1.7378 C   0  0  0  0  0  0  0  0  0  0  0  0
   -8.2299    5.5561    1.1276 O   0  0  0  0  0  0  0  0  0  0  0  0
   -7.7727    3.2566    1.2413 N   0  0  0  0  0  0  0  0  0  0  0  0
   -6.8564    3.1911    0.0984 C   0  0  2  0  0  0  0  0  0  0  0  0
   -5.5655    4.0047    0.3543 C   0  0  0  0  0  0  0  0  0  0  0  0
   -4.8882    3.7867    2.0445 S   0  0  0  0  0  0  0  0  0  0  0  0
   -4.1407    2.1359    1.8164 C   0  0  0  0  0  0  0  0  0  0  0  0
   -2.9522    2.1790    0.8900 C   0  0  0  0  0  0  0  0  0  0  0  0
   -2.9237    1.3566   -0.2455 C   0  0  0  0  0  0  0  0  0  0  0  0
   -1.7577    1.2541   -1.0232 C   0  0  0  0  0  0  0  0  0  0  0  0
   -0.6582    2.0729   -0.7211 C   0  0  0  0  0  0  0  0  0  0  0  0
   -0.6888    2.9270    0.3945 C   0  0  0  0  0  0  0  0  0  0  0  0
   -1.8360    2.9713    1.2016 C   0  0  0  0  0  0  0  0  0  0  0  0
    0.4913    3.8135    0.6774 C   0  0  0  0  0  0  0  0  0  0  0  0
    0.3618    5.3343   -0.3395 S   0  0  0  0  0  0  0  0  0  0  0  0
    2.1579    5.6430   -0.5702 C   0  0  0  0  0  0  0  0  0  0  0  0
    2.7901    6.3823    0.6355 C   0  0  1  0  0  0  0  0  0  0  0  0
    3.4502    5.4918    1.6609 C   0  0  0  0  0  0  0  0  0  0  0  0
    4.0255    6.0775    2.8339 N   0  0  0  0  0  0  0  0  0  0  0  0
    3.4893    4.2401    1.5152 O   0  0  0  0  0  0  0  0  0  0  0  0
    3.7300    7.4195    0.1849 N   0  0  0  0  0  0  0  0  0  0  0  0
    4.9221    7.2350   -0.6051 C   0  0  0  0  0  0  0  0  0  0  0  0
    5.5531    8.2588   -0.9860 O   0  0  0  0  0  0  0  0  0  0  0  0
    5.4631    5.8763   -0.9913 C   0  0  1  0  0  0  0  0  0  0  0  0
    5.3993    5.7001   -2.5108 C   0  0  0  0  0  0  0  0  0  0  0  0
    6.8419    5.7187   -0.5224 N   0  0  0  0  0  0  0  0  0  0  0  0
    7.3479    4.4392   -0.1396 C   0  0  0  0  0  0  0  0  0  0  0  0
    7.1072    4.0064    1.0218 O   0  0  0  0  0  0  0  0  0  0  0  0
    8.0915    3.5698   -1.1324 C   0  0  1  0  0  0  0  0  0  0  0  0
    8.9031    4.4259   -2.1139 C   0  0  0  0  0  0  0  0  0  0  0  0
    8.9976    2.6463   -0.4335 N   0  0  0  0  0  0  0  0  0  0  0  0
    9.6410    1.5225   -1.0538 C   0  0  0  0  0  0  0  0  0  0  0  0
   10.7103    1.0840   -0.5443 O   0  0  0  0  0  0  0  0  0  0  0  0
    9.0658    0.8377   -2.2801 C   0  0  1  0  0  0  0  0  0  0  0  0
   10.1611    0.1814   -3.1353 C   0  0  0  0  0  0  0  0  0  0  0  0
    8.0270   -0.1609   -1.9626 N   0  0  0  0  0  0  0  0  0  0  0  0
    7.6469   -0.5918   -0.6521 C   0  0  0  0  0  0  0  0  0  0  0  0
    6.4337   -0.5098   -0.3168 O   0  0  0  0  0  0  0  0  0  0  0  0
    8.6357   -1.2659    0.2685 C   0  0  1  0  0  0  0  0  0  0  0  0
    8.6906   -0.5950    1.6426 C   0  0  0  0  0  0  0  0  0  0  0  0
    8.3554   -2.7084    0.3796 N   0  0  0  0  0  0  0  0  0  0  0  0
    7.0802   -3.2689    0.7278 C   0  0  0  0  0  0  0  0  0  0  0  0
    6.4327   -3.8982   -0.1517 O   0  0  0  0  0  0  0  0  0  0  0  0
    6.5443   -3.2012    2.1348 C   0  0  1  0  0  0  0  0  0  0  0  0
    5.2741   -2.3414    2.2074 C   0  0  0  0  0  0  0  0  0  0  0  0
    6.3442   -4.5628    2.6575 N   0  0  0  0  0  0  0  0  0  0  0  0
    5.0754   -5.1701    2.9358 C   0  0  0  0  0  0  0  0  0  0  0  0
    4.8195   -5.5431    4.1146 O   0  0  0  0  0  0  0  0  0  0  0  0
    4.1312   -5.5368    1.8200 C   0  0  1  0  0  0  0  0  0  0  0  0
    4.3166   -7.0120    1.4564 C   0  0  0  0  0  0  0  0  0  0  0  0
    2.7444   -5.2953    2.2232 N   0  0  0  0  0  0  0  0  0  0  0  0
    1.9586   -4.2680    1.6097 C   0  0  0  0  0  0  0  0  0  0  0  0
    2.0992   -3.0731    1.9869 O   0  0  0  0  0  0  0  0  0  0  0  0
    0.8651   -4.5983    0.6299 C   0  0  1  0  0  0  0  0  0  0  0  0
    1.1237   -5.9105   -0.1119 C   0  0  0  0  0  0  0  0  0  0  0  0
   -0.4142   -4.6681    1.3335 N   0  0  0  0  0  0  0  0  0  0  0  0
   -1.3931   -3.6242    1.2718 C   0  0  0  0  0  0  0  0  0  0  0  0
   -1.7860   -3.0982    2.3490 O   0  0  0  0  0  0  0  0  0  0  0  0
   -2.0427   -3.1949   -0.0267 C   0  0  1  0  0  0  0  0  0  0  0  0
   -1.5419   -1.8227   -0.4906 C   0  0  0  0  0  0  0  0  0  0  0  0
   -2.5397   -1.2747   -1.9243 S   0  0  0  0  0  0  0  0  0  0  0  0
   -1.6862    0.3223   -2.2085 C   0  0  0  0  0  0  0  0  0  0  0  0
   -1.8446   -4.1917   -1.0852 N   0  0  0  0  0  0  0  0  0  0  0  0
   -2.8790   -4.9783   -1.7080 C   0  0  0  0  0  0  0  0  0  0  0  0
   -2.6643   -5.4168   -2.8761 O   0  0  0  0  0  0  0  0  0  0  0  0
   -4.1704   -5.3916   -1.0296 C   0  0  1  0  0  0  0  0  0  0  0  0
   -3.9610   -5.8814    0.4069 C   0  0  0  0  0  0  0  0  0  0  0  0
   -5.1745   -4.3168   -1.0705 N   0  0  0  0  0  0  0  0  0  0  0  0
   -6.4543   -4.5344   -1.6810 C   0  0  0  0  0  0  0  0  0  0  0  0
   -6.5197   -5.0978   -2.8084 O   0  0  0  0  0  0  0  0  0  0  0  0
   -7.7391   -4.1732   -0.9630 C   0  0  1  0  0  0  0  0  0  0  0  0
   -8.5443   -5.4453   -0.6871 C   0  0  0  0  0  0  0  0  0  0  0  0
   -7.4700   -3.4899    0.3132 N   0  0  0  0  0  0  0  0  0  0  0  0
   -8.0176   -2.2229    0.7395 C   0  0  0  0  0  0  0  0  0  0  0  0
   -7.7347   -1.8104    1.8979 O   0  0  0  0  0  0  0  0  0  0  0  0
   -8.9441   -1.3988   -0.1308 C   0  0  1  0  0  0  0  0  0  0  0  0
  -10.3443   -2.0188   -0.1627 C   0  0  0  0  0  0  0  0  0  0  0  0
   -9.0546   -0.0184    0.3666 N   0  0  0  0  0  0  0  0  0  0  0  0
   -9.3267    1.0934   -0.4997 C   0  0  0  0  0  0  0  0  0  0  0  0
  -10.2471    1.8983   -0.1805 O   0  0  0  0  0  0  0  0  0  0  0  0
   -8.5477    1.3189   -1.7723 C   0  0  1  0  0  0  0  0  0  0  0  0
   -9.3117    0.7203   -2.9682 C   0  0  0  0  0  0  0  0  0  0  0  0
   -8.3332    2.7566   -2.0011 N   0  0  0  0  0  0  0  0  0  0  0  0
   -7.5639    3.6452   -1.1692 C   0  0  0  0  0  0  0  0  0  0  0  0
   -7.5242    4.8665   -1.4929 O   0  0  0  0  0  0  0  0  0  0  0  0
   -8.7555    5.1209    3.7479 H   0  0  0  0  0  0  0  0  0  0  0  0
  -10.2304    4.7926    2.7518 H   0  0  0  0  0  0  0  0  0  0  0  0
   -9.2599    3.4204    3.4060 H   0  0  0  0  0  0  0  0  0  0  0  0
   -7.9546    2.3723    1.7648 H   0  0  0  0  0  0  0  0  0  0  0  0
   -6.5492    2.1361   -0.0434 H   0  0  0  0  0  0  0  0  0  0  0  0
   -5.7697    5.0947    0.2485 H   0  0  0  0  0  0  0  0  0  0  0  0
   -4.7994    3.7492   -0.4086 H   0  0  0  0  0  0  0  0  0  0  0  0
   -3.7934    1.7745    2.8085 H   0  0  0  0  0  0  0  0  0  0  0  0
   -4.9139    1.4200    1.4636 H   0  0  0  0  0  0  0  0  0  0  0  0
   -3.7949    0.7559   -0.4890 H   0  0  0  0  0  0  0  0  0  0  0  0
    0.2290    2.0376   -1.3451 H   0  0  0  0  0  0  0  0  0  0  0  0
   -1.8521    3.6147    2.0748 H   0  0  0  0  0  0  0  0  0  0  0  0
    1.4189    3.2452    0.4430 H   0  0  0  0  0  0  0  0  0  0  0  0
    0.5371    4.0978    1.7527 H   0  0  0  0  0  0  0  0  0  0  0  0
    2.2285    6.2909   -1.4665 H   0  0  0  0  0  0  0  0  0  0  0  0
    2.6820    4.6987   -0.8225 H   0  0  0  0  0  0  0  0  0  0  0  0
    1.9705    6.9049    1.1760 H   0  0  0  0  0  0  0  0  0  0  0  0
    4.0371    7.1144    2.9661 H   0  0  0  0  0  0  0  0  0  0  0  0
    4.4309    5.4639    3.5761 H   0  0  0  0  0  0  0  0  0  0  0  0
    3.5086    8.4024    0.4682 H   0  0  0  0  0  0  0  0  0  0  0  0
    4.8588    5.0722   -0.5403 H   0  0  0  0  0  0  0  0  0  0  0  0
    4.3587    5.8435   -2.8678 H   0  0  0  0  0  0  0  0  0  0  0  0
    6.0604    6.4367   -3.0167 H   0  0  0  0  0  0  0  0  0  0  0  0
    5.7241    4.6758   -2.7889 H   0  0  0  0  0  0  0  0  0  0  0  0
    7.3966    6.5553   -0.2291 H   0  0  0  0  0  0  0  0  0  0  0  0
    7.3221    2.9905   -1.6865 H   0  0  0  0  0  0  0  0  0  0  0  0
    9.4425    3.7865   -2.8410 H   0  0  0  0  0  0  0  0  0  0  0  0
    8.2470    5.1118   -2.6914 H   0  0  0  0  0  0  0  0  0  0  0  0
    9.6519    5.0328   -1.5627 H   0  0  0  0  0  0  0  0  0  0  0  0
    9.4005    2.9591    0.4784 H   0  0  0  0  0  0  0  0  0  0  0  0
    8.5943    1.6045   -2.9331 H   0  0  0  0  0  0  0  0  0  0  0  0
   10.9241    0.9420   -3.4199 H   0  0  0  0  0  0  0  0  0  0  0  0
   10.6587   -0.6409   -2.5753 H   0  0  0  0  0  0  0  0  0  0  0  0
    9.7219   -0.2351   -4.0656 H   0  0  0  0  0  0  0  0  0  0  0  0
    7.3934   -0.4406   -2.7519 H   0  0  0  0  0  0  0  0  0  0  0  0
    9.6455   -1.1710   -0.1766 H   0  0  0  0  0  0  0  0  0  0  0  0
    9.0854    0.4362    1.5444 H   0  0  0  0  0  0  0  0  0  0  0  0
    9.3665   -1.1600    2.3144 H   0  0  0  0  0  0  0  0  0  0  0  0
    7.6870   -0.5254    2.1035 H   0  0  0  0  0  0  0  0  0  0  0  0
    9.0201   -3.3502   -0.1013 H   0  0  0  0  0  0  0  0  0  0  0  0
    7.3036   -2.7136    2.7822 H   0  0  0  0  0  0  0  0  0  0  0  0
    4.8087   -2.4260    3.2108 H   0  0  0  0  0  0  0  0  0  0  0  0
    4.5423   -2.6512    1.4337 H   0  0  0  0  0  0  0  0  0  0  0  0
    5.5110   -1.2718    2.0351 H   0  0  0  0  0  0  0  0  0  0  0  0
    7.1889   -5.0408    3.0482 H   0  0  0  0  0  0  0  0  0  0  0  0
    4.3673   -4.9302    0.9192 H   0  0  0  0  0  0  0  0  0  0  0  0
    5.3612   -7.1953    1.1353 H   0  0  0  0  0  0  0  0  0  0  0  0
    3.6411   -7.2906    0.6203 H   0  0  0  0  0  0  0  0  0  0  0  0
    4.0834   -7.6607    2.3300 H   0  0  0  0  0  0  0  0  0  0  0  0
    2.2911   -5.9106    2.9405 H   0  0  0  0  0  0  0  0  0  0  0  0
    0.8427   -3.7845   -0.1246 H   0  0  0  0  0  0  0  0  0  0  0  0
    2.0934   -5.8586   -0.6511 H   0  0  0  0  0  0  0  0  0  0  0  0
    1.1359   -6.7700    0.5961 H   0  0  0  0  0  0  0  0  0  0  0  0
    0.3199   -6.0941   -0.8585 H   0  0  0  0  0  0  0  0  0  0  0  0
   -0.4992   -5.3595    2.1182 H   0  0  0  0  0  0  0  0  0  0  0  0
   -3.1111   -3.0816    0.1940 H   0  0  0  0  0  0  0  0  0  0  0  0
   -1.6477   -1.0921    0.3421 H   0  0  0  0  0  0  0  0  0  0  0  0
   -0.4721   -1.8745   -0.7811 H   0  0  0  0  0  0  0  0  0  0  0  0
   -2.1544    0.8187   -3.0875 H   0  0  0  0  0  0  0  0  0  0  0  0
   -0.6280    0.1085   -2.4625 H   0  0  0  0  0  0  0  0  0  0  0  0
   -0.9190   -4.1841   -1.5736 H   0  0  0  0  0  0  0  0  0  0  0  0
   -4.5540   -6.2728   -1.5886 H   0  0  0  0  0  0  0  0  0  0  0  0
   -4.8631   -6.4363    0.7413 H   0  0  0  0  0  0  0  0  0  0  0  0
   -3.8069   -5.0419    1.1136 H   0  0  0  0  0  0  0  0  0  0  0  0
   -3.0831   -6.5678    0.4624 H   0  0  0  0  0  0  0  0  0  0  0  0
   -5.0827   -3.5093   -0.4272 H   0  0  0  0  0  0  0  0  0  0  0  0
   -8.3271   -3.5272   -1.6480 H   0  0  0  0  0  0  0  0  0  0  0  0
   -7.8997   -6.2230   -0.2304 H   0  0  0  0  0  0  0  0  0  0  0  0
   -9.3767   -5.2271    0.0134 H   0  0  0  0  0  0  0  0  0  0  0  0
   -8.9775   -5.8343   -1.6285 H   0  0  0  0  0  0  0  0  0  0  0  0
   -6.9011   -4.0149    1.0176 H   0  0  0  0  0  0  0  0  0  0  0  0
   -8.5102   -1.3838   -1.1501 H   0  0  0  0  0  0  0  0  0  0  0  0
  -11.0099   -1.4134   -0.8127 H   0  0  0  0  0  0  0  0  0  0  0  0
  -10.3266   -3.0491   -0.5658 H   0  0  0  0  0  0  0  0  0  0  0  0
  -10.7810   -2.0438    0.8624 H   0  0  0  0  0  0  0  0  0  0  0  0
   -9.3259    0.1072    1.3691 H   0  0  0  0  0  0  0  0  0  0  0  0
   -7.5621    0.8115   -1.6972 H   0  0  0  0  0  0  0  0  0  0  0  0
   -9.5987   -0.3349   -2.7950 H   0  0  0  0  0  0  0  0  0  0  0  0
   -8.6658    0.7531   -3.8709 H   0  0  0  0  0  0  0  0  0  0  0  0
  -10.2378    1.2994   -3.1699 H   0  0  0  0  0  0  0  0  0  0  0  0
   -8.7835    3.1918   -2.8409 H   0  0  0  0  0  0  0  0  0  0  0  0
  1  2  1  0
  2  3  2  0
  2  4  1  0
  4  5  1  0
  5  6  1  0
  6  7  1  0
  7  8  1  0
  8  9  1  0
  9 10  2  0
 10 11  1  0
 11 12  2  0
 12 13  1  0
 13 14  2  0
 13 15  1  0
 15 16  1  0
 16 17  1  0
 17 18  1  0
 18 19  1  0
 19 20  1  0
 19 21  2  0
 18 22  1  0
 22 23  1  0
 23 24  2  0
 23 25  1  0
 25 26  1  0
 25 27  1  0
 27 28  1  0
 28 29  2  0
 28 30  1  0
 30 31  1  0
 30 32  1  0
 32 33  1  0
 33 34  2  0
 33 35  1  0
 35 36  1  0
 35 37  1  0
 37 38  1  0
 38 39  2  0
 38 40  1  0
 40 41  1  0
 40 42  1  0
 42 43  1  0
 43 44  2  0
 43 45  1  0
 45 46  1  0
 45 47  1  0
 47 48  1  0
 48 49  2  0
 48 50  1  0
 50 51  1  0
 50 52  1  0
 52 53  1  0
 53 54  2  0
 53 55  1  0
 55 56  1  0
 55 57  1  0
 57 58  1  0
 58 59  2  0
 58 60  1  0
 60 61  1  0
 61 62  1  0
 62 63  1  0
 60 64  1  0
 64 65  1  0
 65 66  2  0
 65 67  1  0
 67 68  1  0
 67 69  1  0
 69 70  1  0
 70 71  2  0
 70 72  1  0
 72 73  1  0
 72 74  1  0
 74 75  1  0
 75 76  2  0
 75 77  1  0
 77 78  1  0
 77 79  1  0
 79 80  1  0
 80 81  2  0
 80 82  1  0
 82 83  1  0
 82 84  1  0
 84 85  1  0
 85 86  2  0
 85  5  1  0
 14  9  1  0
 63 11  1  0
  1 87  1  0
  1 88  1  0
  1 89  1  0
  4 90  1  0
  5 91  1  6
  6 92  1  0
  6 93  1  0
  8 94  1  0
  8 95  1  0
 10 96  1  0
 12 97  1  0
 14 98  1  0
 15 99  1  0
 15100  1  0
 17101  1  0
 17102  1  0
 18103  1  1
 20104  1  0
 20105  1  0
 22106  1  0
 25107  1  1
 26108  1  0
 26109  1  0
 26110  1  0
 27111  1  0
 30112  1  6
 31113  1  0
 31114  1  0
 31115  1  0
 32116  1  0
 35117  1  6
 36118  1  0
 36119  1  0
 36120  1  0
 37121  1  0
 40122  1  6
 41123  1  0
 41124  1  0
 41125  1  0
 42126  1  0
 45127  1  1
 46128  1  0
 46129  1  0
 46130  1  0
 47131  1  0
 50132  1  6
 51133  1  0
 51134  1  0
 51135  1  0
 52136  1  0
 55137  1  6
 56138  1  0
 56139  1  0
 56140  1  0
 57141  1  0
 60142  1  1
 61143  1  0
 61144  1  0
 63145  1  0
 63146  1  0
 64147  1  0
 67148  1  6
 68149  1  0
 68150  1  0
 68151  1  0
 69152  1  0
 72153  1  6
 73154  1  0
 73155  1  0
 73156  1  0
 74157  1  0
 77158  1  6
 78159  1  0
 78160  1  0
 78161  1  0
 79162  1  0
 82163  1  1
 83164  1  0
 83165  1  0
 83166  1  0
 84167  1  0
M  END
