
     RDKit          3D

197199  0  0  0  0  0  0  0  0999 V2000
   10.2795    6.1288   -0.8172 C   0  0  0  0  0  0  0  0  0  0  0  0
    9.7760    4.8180   -1.3341 C   0  0  0  0  0  0  0  0  0  0  0  0
    9.4965    4.7089   -2.5594 O   0  0  0  0  0  0  0  0  0  0  0  0
    9.6030    3.6750   -0.4800 N   0  0  0  0  0  0  0  0  0  0  0  0
    9.8511    3.6868    0.9682 C   0  0  1  0  0  0  0  0  0  0  0  0
    8.7028    4.3620    1.7735 C   0  0  0  0  0  0  0  0  0  0  0  0
    7.1644    4.6295    0.8105 S   0  0  0  0  0  0  0  0  0  0  0  0
    6.1879    3.2889    1.5719 C   0  0  0  0  0  0  0  0  0  0  0  0
    4.8796    3.1512    0.8362 C   0  0  0  0  0  0  0  0  0  0  0  0
    4.6748    2.0766   -0.0406 C   0  0  0  0  0  0  0  0  0  0  0  0
    3.4765    1.9583   -0.7660 C   0  0  0  0  0  0  0  0  0  0  0  0
    2.5280    2.9944   -0.6813 C   0  0  0  0  0  0  0  0  0  0  0  0
    2.7301    4.0843    0.1740 C   0  0  0  0  0  0  0  0  0  0  0  0
    3.8971    4.1410    0.9534 C   0  0  0  0  0  0  0  0  0  0  0  0
    1.7921    5.2667    0.1230 C   0  0  0  0  0  0  0  0  0  0  0  0
    0.0704    4.7544    0.4944 S   0  0  0  0  0  0  0  0  0  0  0  0
   -0.6875    5.2800   -1.0898 C   0  0  0  0  0  0  0  0  0  0  0  0
   -1.3160    6.6824   -0.9701 C   0  0  1  0  0  0  0  0  0  0  0  0
   -0.2732    7.7660   -1.0320 C   0  0  0  0  0  0  0  0  0  0  0  0
   -0.1673    8.7360    0.0140 N   0  0  0  0  0  0  0  0  0  0  0  0
    0.5265    7.8173   -2.0112 O   0  0  0  0  0  0  0  0  0  0  0  0
   -2.2959    6.8815   -2.0446 N   0  0  0  0  0  0  0  0  0  0  0  0
   -3.6787    7.2382   -1.8548 C   0  0  0  0  0  0  0  0  0  0  0  0
   -4.4317    7.2587   -2.8654 O   0  0  0  0  0  0  0  0  0  0  0  0
   -4.2548    7.5971   -0.4917 C   0  0  1  0  0  0  0  0  0  0  0  0
   -5.6222    8.2827   -0.5892 C   0  0  0  0  0  0  0  0  0  0  0  0
   -4.3391    6.4361    0.4046 N   0  0  0  0  0  0  0  0  0  0  0  0
   -4.6185    5.1016   -0.0450 C   0  0  0  0  0  0  0  0  0  0  0  0
   -3.6729    4.2749   -0.1203 O   0  0  0  0  0  0  0  0  0  0  0  0
   -6.0306    4.6361   -0.3099 C   0  0  1  0  0  0  0  0  0  0  0  0
   -6.1398    4.1561   -1.7574 C   0  0  0  0  0  0  0  0  0  0  0  0
   -6.3566    3.5427    0.6142 N   0  0  0  0  0  0  0  0  0  0  0  0
   -7.6512    2.9407    0.7607 C   0  0  0  0  0  0  0  0  0  0  0  0
   -7.7308    1.6869    0.7978 O   0  0  0  0  0  0  0  0  0  0  0  0
   -8.9324    3.7370    0.8898 C   0  0  1  0  0  0  0  0  0  0  0  0
   -8.8045    4.8846    1.8917 C   0  0  0  0  0  0  0  0  0  0  0  0
   -9.3823    4.1973   -0.4273 N   0  0  0  0  0  0  0  0  0  0  0  0
   -9.9517    3.3218   -1.4203 C   0  0  0  0  0  0  0  0  0  0  0  0
   -9.8257    3.6239   -2.6442 O   0  0  0  0  0  0  0  0  0  0  0  0
  -10.7212    2.0728   -1.0361 C   0  0  1  0  0  0  0  0  0  0  0  0
  -12.1539    2.4445   -0.6410 C   0  0  0  0  0  0  0  0  0  0  0  0
  -10.7364    1.0959   -2.1263 N   0  0  0  0  0  0  0  0  0  0  0  0
  -10.5435   -0.3210   -1.9714 C   0  0  0  0  0  0  0  0  0  0  0  0
  -10.2101   -0.9932   -2.9844 O   0  0  0  0  0  0  0  0  0  0  0  0
  -10.8572   -1.0481   -0.6800 C   0  0  1  0  0  0  0  0  0  0  0  0
  -12.2867   -1.5793   -0.7076 C   0  0  0  0  0  0  0  0  0  0  0  0
   -9.9309   -2.1747   -0.4988 N   0  0  0  0  0  0  0  0  0  0  0  0
   -9.0536   -2.2377    0.6307 C   0  0  0  0  0  0  0  0  0  0  0  0
   -8.2403   -1.2929    0.8418 O   0  0  0  0  0  0  0  0  0  0  0  0
   -9.1444   -3.3704    1.6187 C   0  0  1  0  0  0  0  0  0  0  0  0
   -9.9140   -2.9159    2.8631 C   0  0  0  0  0  0  0  0  0  0  0  0
   -9.8141   -4.5338    1.0253 N   0  0  0  0  0  0  0  0  0  0  0  0
   -9.1927   -5.8012    0.7484 C   0  0  0  0  0  0  0  0  0  0  0  0
   -9.9313   -6.7721    0.4294 O   0  0  0  0  0  0  0  0  0  0  0  0
   -7.7056   -6.0218    0.8634 C   0  0  1  0  0  0  0  0  0  0  0  0
   -7.3309   -6.4219    2.2927 C   0  0  0  0  0  0  0  0  0  0  0  0
   -7.2802   -7.0714   -0.0621 N   0  0  0  0  0  0  0  0  0  0  0  0
   -6.2069   -6.8468   -0.9748 C   0  0  0  0  0  0  0  0  0  0  0  0
   -6.4038   -6.1404   -2.0070 O   0  0  0  0  0  0  0  0  0  0  0  0
   -4.8572   -7.4351   -0.6992 C   0  0  1  0  0  0  0  0  0  0  0  0
   -4.4798   -8.4371   -1.8003 C   0  0  0  0  0  0  0  0  0  0  0  0
   -3.8837   -6.3468   -0.5328 N   0  0  0  0  0  0  0  0  0  0  0  0
   -2.4936   -6.4852   -0.8637 C   0  0  0  0  0  0  0  0  0  0  0  0
   -2.1499   -6.6295   -2.0655 O   0  0  0  0  0  0  0  0  0  0  0  0
   -1.4301   -6.3712    0.1980 C   0  0  1  0  0  0  0  0  0  0  0  0
   -1.9372   -6.8034    1.5823 C   0  0  0  0  0  0  0  0  0  0  0  0
   -0.2916   -7.2201   -0.1718 N   0  0  0  0  0  0  0  0  0  0  0  0
    1.0109   -6.7891   -0.6112 C   0  0  0  0  0  0  0  0  0  0  0  0
    1.8378   -7.6787   -0.9554 O   0  0  0  0  0  0  0  0  0  0  0  0
    1.4603   -5.3398   -0.7041 C   0  0  1  0  0  0  0  0  0  0  0  0
    0.6758   -4.5592   -1.7711 C   0  0  0  0  0  0  0  0  0  0  0  0
    1.4084   -4.6738    0.6103 N   0  0  0  0  0  0  0  0  0  0  0  0
    2.0481   -3.4272    0.9304 C   0  0  0  0  0  0  0  0  0  0  0  0
    1.7256   -2.8438    2.0071 O   0  0  0  0  0  0  0  0  0  0  0  0
    3.1476   -2.8246    0.0833 C   0  0  1  0  0  0  0  0  0  0  0  0
    2.8871   -1.3339   -0.1865 C   0  0  0  0  0  0  0  0  0  0  0  0
    4.1153   -0.7152   -1.3893 S   0  0  0  0  0  0  0  0  0  0  0  0
    3.2601    0.8616   -1.7818 C   0  0  0  0  0  0  0  0  0  0  0  0
    4.4392   -3.0037    0.7558 N   0  0  0  0  0  0  0  0  0  0  0  0
    5.2431   -4.1628    0.5009 C   0  0  0  0  0  0  0  0  0  0  0  0
    4.7205   -5.3092    0.5861 O   0  0  0  0  0  0  0  0  0  0  0  0
    6.6764   -4.0348    0.0430 C   0  0  1  0  0  0  0  0  0  0  0  0
    6.7172   -3.8167   -1.4659 C   0  0  0  0  0  0  0  0  0  0  0  0
    7.3632   -2.9344    0.7361 N   0  0  0  0  0  0  0  0  0  0  0  0
    8.4073   -3.1426    1.6943 C   0  0  0  0  0  0  0  0  0  0  0  0
    8.2673   -2.6767    2.8599 O   0  0  0  0  0  0  0  0  0  0  0  0
    9.7142   -3.8151    1.3351 C   0  0  1  0  0  0  0  0  0  0  0  0
    9.7245   -5.2998    1.7069 C   0  0  0  0  0  0  0  0  0  0  0  0
   10.0287   -3.6302   -0.0891 N   0  0  0  0  0  0  0  0  0  0  0  0
   10.6265   -2.4459   -0.6383 C   0  0  0  0  0  0  0  0  0  0  0  0
   10.8133   -2.3913   -1.8833 O   0  0  0  0  0  0  0  0  0  0  0  0
   11.1038   -1.2961    0.2195 C   0  0  1  0  0  0  0  0  0  0  0  0
   12.5504   -1.5700    0.6677 C   0  0  0  0  0  0  0  0  0  0  0  0
   10.9530   -0.0323   -0.5188 N   0  0  0  0  0  0  0  0  0  0  0  0
   11.9431    1.0023   -0.6507 C   0  0  0  0  0  0  0  0  0  0  0  0
   12.3394    1.3125   -1.8095 O   0  0  0  0  0  0  0  0  0  0  0  0
   12.4895    1.7326    0.5600 C   0  0  1  0  0  0  0  0  0  0  0  0
   13.0426    3.1220    0.2013 C   0  0  0  0  0  0  0  0  0  0  0  0
   11.4845    1.8086    1.6345 N   0  0  0  0  0  0  0  0  0  0  0  0
   10.1389    2.2833    1.4505 C   0  0  0  0  0  0  0  0  0  0  0  0
    9.1833    1.5010    1.6863 O   0  0  0  0  0  0  0  0  0  0  0  0
   10.3524    6.8695   -1.6492 H   0  0  0  0  0  0  0  0  0  0  0  0
    9.5808    6.5288   -0.0514 H   0  0  0  0  0  0  0  0  0  0  0  0
   11.2916    5.9970   -0.3728 H   0  0  0  0  0  0  0  0  0  0  0  0
    9.3183    2.7761   -0.9321 H   0  0  0  0  0  0  0  0  0  0  0  0
   10.7734    4.2707    1.1692 H   0  0  0  0  0  0  0  0  0  0  0  0
    8.4926    3.8193    2.7223 H   0  0  0  0  0  0  0  0  0  0  0  0
    9.0520    5.3713    2.0785 H   0  0  0  0  0  0  0  0  0  0  0  0
    6.7535    2.3427    1.5247 H   0  0  0  0  0  0  0  0  0  0  0  0
    5.9857    3.5251    2.6401 H   0  0  0  0  0  0  0  0  0  0  0  0
    5.4597    1.3498   -0.1772 H   0  0  0  0  0  0  0  0  0  0  0  0
    1.6481    2.9631   -1.3126 H   0  0  0  0  0  0  0  0  0  0  0  0
    4.0727    4.9918    1.5987 H   0  0  0  0  0  0  0  0  0  0  0  0
    2.0828    6.0270    0.8827 H   0  0  0  0  0  0  0  0  0  0  0  0
    1.9008    5.7522   -0.8682 H   0  0  0  0  0  0  0  0  0  0  0  0
   -1.4877    4.5488   -1.3220 H   0  0  0  0  0  0  0  0  0  0  0  0
    0.0159    5.2196   -1.9482 H   0  0  0  0  0  0  0  0  0  0  0  0
   -1.8157    6.7374    0.0170 H   0  0  0  0  0  0  0  0  0  0  0  0
    0.5931    9.4557   -0.0203 H   0  0  0  0  0  0  0  0  0  0  0  0
   -0.8242    8.7301    0.8243 H   0  0  0  0  0  0  0  0  0  0  0  0
   -1.9709    6.7520   -3.0304 H   0  0  0  0  0  0  0  0  0  0  0  0
   -3.5680    8.3467   -0.0386 H   0  0  0  0  0  0  0  0  0  0  0  0
   -6.3559    7.6309   -1.1142 H   0  0  0  0  0  0  0  0  0  0  0  0
   -5.5319    9.2387   -1.1479 H   0  0  0  0  0  0  0  0  0  0  0  0
   -6.0086    8.5130    0.4282 H   0  0  0  0  0  0  0  0  0  0  0  0
   -3.8472    6.5144    1.3257 H   0  0  0  0  0  0  0  0  0  0  0  0
   -6.7234    5.4877   -0.1667 H   0  0  0  0  0  0  0  0  0  0  0  0
   -7.2003    3.9534   -2.0224 H   0  0  0  0  0  0  0  0  0  0  0  0
   -5.5486    3.2231   -1.9087 H   0  0  0  0  0  0  0  0  0  0  0  0
   -5.7708    4.9382   -2.4631 H   0  0  0  0  0  0  0  0  0  0  0  0
   -5.5655    2.9853    1.0129 H   0  0  0  0  0  0  0  0  0  0  0  0
   -9.7104    3.0816    1.3255 H   0  0  0  0  0  0  0  0  0  0  0  0
   -9.8040    5.3625    2.0278 H   0  0  0  0  0  0  0  0  0  0  0  0
   -8.4678    4.4919    2.8735 H   0  0  0  0  0  0  0  0  0  0  0  0
   -8.0900    5.6627    1.5536 H   0  0  0  0  0  0  0  0  0  0  0  0
   -9.0726    5.1443   -0.7516 H   0  0  0  0  0  0  0  0  0  0  0  0
  -10.2177    1.6271   -0.1646 H   0  0  0  0  0  0  0  0  0  0  0  0
  -12.7303    2.7443   -1.5368 H   0  0  0  0  0  0  0  0  0  0  0  0
  -12.6470    1.5723   -0.1713 H   0  0  0  0  0  0  0  0  0  0  0  0
  -12.1533    3.2734    0.1008 H   0  0  0  0  0  0  0  0  0  0  0  0
  -10.9412    1.4442   -3.0930 H   0  0  0  0  0  0  0  0  0  0  0  0
  -10.7793   -0.3752    0.1935 H   0  0  0  0  0  0  0  0  0  0  0  0
  -12.4210   -2.3073   -1.5379 H   0  0  0  0  0  0  0  0  0  0  0  0
  -13.0140   -0.7486   -0.8458 H   0  0  0  0  0  0  0  0  0  0  0  0
  -12.5194   -2.0946    0.2494 H   0  0  0  0  0  0  0  0  0  0  0  0
  -10.0385   -3.0232   -1.0967 H   0  0  0  0  0  0  0  0  0  0  0  0
   -8.1180   -3.6183    1.9531 H   0  0  0  0  0  0  0  0  0  0  0  0
   -9.3913   -2.0699    3.3563 H   0  0  0  0  0  0  0  0  0  0  0  0
  -10.9431   -2.5963    2.5814 H   0  0  0  0  0  0  0  0  0  0  0  0
   -9.9837   -3.7595    3.5890 H   0  0  0  0  0  0  0  0  0  0  0  0
  -10.8359   -4.4458    0.8239 H   0  0  0  0  0  0  0  0  0  0  0  0
   -7.1745   -5.0799    0.5993 H   0  0  0  0  0  0  0  0  0  0  0  0
   -7.6705   -5.6557    3.0240 H   0  0  0  0  0  0  0  0  0  0  0  0
   -6.2300   -6.5291    2.3710 H   0  0  0  0  0  0  0  0  0  0  0  0
   -7.7977   -7.3928    2.5541 H   0  0  0  0  0  0  0  0  0  0  0  0
   -7.5391   -8.0629    0.1430 H   0  0  0  0  0  0  0  0  0  0  0  0
   -4.9040   -7.9939    0.2603 H   0  0  0  0  0  0  0  0  0  0  0  0
   -4.4217   -7.9411   -2.7928 H   0  0  0  0  0  0  0  0  0  0  0  0
   -5.2434   -9.2451   -1.8446 H   0  0  0  0  0  0  0  0  0  0  0  0
   -3.5046   -8.9161   -1.5654 H   0  0  0  0  0  0  0  0  0  0  0  0
   -4.1308   -5.5984    0.1539 H   0  0  0  0  0  0  0  0  0  0  0  0
   -1.1352   -5.3099    0.2812 H   0  0  0  0  0  0  0  0  0  0  0  0
   -1.0881   -6.8225    2.3027 H   0  0  0  0  0  0  0  0  0  0  0  0
   -2.3840   -7.8246    1.5358 H   0  0  0  0  0  0  0  0  0  0  0  0
   -2.6918   -6.0870    1.9695 H   0  0  0  0  0  0  0  0  0  0  0  0
   -0.4614   -8.2539   -0.1682 H   0  0  0  0  0  0  0  0  0  0  0  0
    2.5186   -5.3797   -1.0348 H   0  0  0  0  0  0  0  0  0  0  0  0
   -0.2976   -4.1867   -1.3896 H   0  0  0  0  0  0  0  0  0  0  0  0
    0.4909   -5.1988   -2.6639 H   0  0  0  0  0  0  0  0  0  0  0  0
    1.2606   -3.6780   -2.1008 H   0  0  0  0  0  0  0  0  0  0  0  0
    0.8911   -5.1429    1.3877 H   0  0  0  0  0  0  0  0  0  0  0  0
    3.1965   -3.3139   -0.9085 H   0  0  0  0  0  0  0  0  0  0  0  0
    2.9598   -0.7398    0.7512 H   0  0  0  0  0  0  0  0  0  0  0  0
    1.8637   -1.2137   -0.6034 H   0  0  0  0  0  0  0  0  0  0  0  0
    2.1717    0.6758   -1.9229 H   0  0  0  0  0  0  0  0  0  0  0  0
    3.6571    1.2198   -2.7538 H   0  0  0  0  0  0  0  0  0  0  0  0
    4.8188   -2.2465    1.3703 H   0  0  0  0  0  0  0  0  0  0  0  0
    7.1875   -4.9962    0.2635 H   0  0  0  0  0  0  0  0  0  0  0  0
    6.1480   -2.9036   -1.7487 H   0  0  0  0  0  0  0  0  0  0  0  0
    7.7607   -3.6936   -1.8037 H   0  0  0  0  0  0  0  0  0  0  0  0
    6.2717   -4.6856   -1.9935 H   0  0  0  0  0  0  0  0  0  0  0  0
    6.9800   -1.9683    0.6352 H   0  0  0  0  0  0  0  0  0  0  0  0
   10.5167   -3.3508    1.9405 H   0  0  0  0  0  0  0  0  0  0  0  0
   10.7361   -5.7161    1.5000 H   0  0  0  0  0  0  0  0  0  0  0  0
    9.5060   -5.4284    2.7874 H   0  0  0  0  0  0  0  0  0  0  0  0
    8.9966   -5.8919    1.1133 H   0  0  0  0  0  0  0  0  0  0  0  0
    9.7549   -4.3863   -0.7517 H   0  0  0  0  0  0  0  0  0  0  0  0
   10.4662   -1.2289    1.1251 H   0  0  0  0  0  0  0  0  0  0  0  0
   13.2651   -1.3945   -0.1679 H   0  0  0  0  0  0  0  0  0  0  0  0
   12.8125   -0.9273    1.5292 H   0  0  0  0  0  0  0  0  0  0  0  0
   12.6651   -2.6225    1.0098 H   0  0  0  0  0  0  0  0  0  0  0  0
   10.0664    0.1009   -1.0593 H   0  0  0  0  0  0  0  0  0  0  0  0
   13.3551    1.1561    0.9393 H   0  0  0  0  0  0  0  0  0  0  0  0
   12.3431    3.6901   -0.4378 H   0  0  0  0  0  0  0  0  0  0  0  0
   13.9954    3.0087   -0.3581 H   0  0  0  0  0  0  0  0  0  0  0  0
   13.2524    3.6974    1.1269 H   0  0  0  0  0  0  0  0  0  0  0  0
   11.6513    1.2090    2.4760 H   0  0  0  0  0  0  0  0  0  0  0  0
  1  2  1  0
  2  3  2  0
  2  4  1  0
  4  5  1  0
  5  6  1  0
  6  7  1  0
  7  8  1  0
  8  9  1  0
  9 10  2  0
 10 11  1  0
 11 12  2  0
 12 13  1  0
 13 14  2  0
 13 15  1  0
 15 16  1  0
 16 17  1  0
 17 18  1  0
 18 19  1  0
 19 20  1  0
 19 21  2  0
 18 22  1  0
 22 23  1  0
 23 24  2  0
 23 25  1  0
 25 26  1  0
 25 27  1  0
 27 28  1  0
 28 29  2  0
 28 30  1  0
 30 31  1  0
 30 32  1  0
 32 33  1  0
 33 34  2  0
 33 35  1  0
 35 36  1  0
 35 37  1  0
 37 38  1  0
 38 39  2  0
 38 40  1  0
 40 41  1  0
 40 42  1  0
 42 43  1  0
 43 44  2  0
 43 45  1  0
 45 46  1  0
 45 47  1  0
 47 48  1  0
 48 49  2  0
 48 50  1  0
 50 51  1  0
 50 52  1  0
 52 53  1  0
 53 54  2  0
 53 55  1  0
 55 56  1  0
 55 57  1  0
 57 58  1  0
 58 59  2  0
 58 60  1  0
 60 61  1  0
 60 62  1  0
 62 63  1  0
 63 64  2  0
 63 65  1  0
 65 66  1  0
 65 67  1  0
 67 68  1  0
 68 69  2  0
 68 70  1  0
 70 71  1  0
 70 72  1  0
 72 73  1  0
 73 74  2  0
 73 75  1  0
 75 76  1  0
 76 77  1  0
 77 78  1  0
 75 79  1  0
 79 80  1  0
 80 81  2  0
 80 82  1  0
 82 83  1  0
 82 84  1  0
 84 85  1  0
 85 86  2  0
 85 87  1  0
 87 88  1  0
 87 89  1  0
 89 90  1  0
 90 91  2  0
 90 92  1  0
 92 93  1  0
 92 94  1  0
 94 95  1  0
 95 96  2  0
 95 97  1  0
 97 98  1  0
 97 99  1  0
 99100  1  0
100101  2  0
100  5  1  0
 14  9  1  0
 78 11  1  0
  1102  1  0
  1103  1  0
  1104  1  0
  4105  1  0
  5106  1  6
  6107  1  0
  6108  1  0
  8109  1  0
  8110  1  0
 10111  1  0
 12112  1  0
 14113  1  0
 15114  1  0
 15115  1  0
 17116  1  0
 17117  1  0
 18118  1  1
 20119  1  0
 20120  1  0
 22121  1  0
 25122  1  1
 26123  1  0
 26124  1  0
 26125  1  0
 27126  1  0
 30127  1  6
 31128  1  0
 31129  1  0
 31130  1  0
 32131  1  0
 35132  1  1
 36133  1  0
 36134  1  0
 36135  1  0
 37136  1  0
 40137  1  1
 41138  1  0
 41139  1  0
 41140  1  0
 42141  1  0
 45142  1  1
 46143  1  0
 46144  1  0
 46145  1  0
 47146  1  0
 50147  1  1
 51148  1  0
 51149  1  0
 51150  1  0
 52151  1  0
 55152  1  6
 56153  1  0
 56154  1  0
 56155  1  0
 57156  1  0
 60157  1  1
 61158  1  0
 61159  1  0
 61160  1  0
 62161  1  0
 65162  1  1
 66163  1  0
 66164  1  0
 66165  1  0
 67166  1  0
 70167  1  6
 71168  1  0
 71169  1  0
 71170  1  0
 72171  1  0
 75172  1  6
 76173  1  0
 76174  1  0
 78175  1  0
 78176  1  0
 79177  1  0
 82178  1  6
 83179  1  0
 83180  1  0
 83181  1  0
 84182  1  0
 87183  1  1
 88184  1  0
 88185  1  0
 88186  1  0
 89187  1  0
 92188  1  1
 93189  1  0
 93190  1  0
 93191  1  0
 94192  1  0
 97193  1  1
 98194  1  0
 98195  1  0
 98196  1  0
 99197  1  0
M  END
