
     RDKit          3D

127129  0  0  0  0  0  0  0  0999 V2000
   -2.6854   -5.6100    0.8565 C   0  0  0  0  0  0  0  0  0  0  0  0
   -2.8371   -5.5077   -0.6336 C   0  0  0  0  0  0  0  0  0  0  0  0
   -1.9317   -5.9890   -1.3642 O   0  0  0  0  0  0  0  0  0  0  0  0
   -4.0006   -4.8711   -1.2283 N   0  0  0  0  0  0  0  0  0  0  0  0
   -4.0313   -4.5000   -2.6579 C   0  0  2  0  0  0  0  0  0  0  0  0
   -2.9907   -3.3970   -2.9404 C   0  0  0  0  0  0  0  0  0  0  0  0
   -1.5820   -3.7689   -4.0295 S   0  0  0  0  0  0  0  0  0  0  0  0
   -1.0397   -2.0289   -4.3961 C   0  0  0  0  0  0  0  0  0  0  0  0
   -0.4662   -1.1927   -3.2224 C   0  0  0  0  0  0  0  0  0  0  0  0
   -1.2258   -0.9207   -2.1221 C   0  0  0  0  0  0  0  0  0  0  0  0
   -0.8438   -0.1645   -1.0415 C   0  0  0  0  0  0  0  0  0  0  0  0
   -0.2124    1.0808   -1.4238 C   0  0  0  0  0  0  0  0  0  0  0  0
    0.6411    0.9688   -2.7498 C   0  0  0  0  0  0  0  0  0  0  0  0
    0.5786   -0.3067   -3.4538 C   0  0  0  0  0  0  0  0  0  0  0  0
    1.1026    2.1258   -3.8315 C   0  0  0  0  0  0  0  0  0  0  0  0
    2.8875    1.7390   -4.3454 S   0  0  0  0  0  0  0  0  0  0  0  0
    3.5246    0.7138   -2.9130 C   0  0  0  0  0  0  0  0  0  0  0  0
    3.8297    1.4983   -1.5155 C   0  0  2  0  0  0  0  0  0  0  0  0
    2.4465    2.2524   -1.4650 N   0  0  0  0  0  0  0  0  0  0  0  0
    1.9666    3.6837   -1.2937 C   0  0  0  0  0  0  0  0  0  0  0  0
    2.8351    4.5569   -1.5605 O   0  0  0  0  0  0  0  0  0  0  0  0
    0.4005    4.2494   -0.9676 C   0  0  1  0  0  0  0  0  0  0  0  0
    0.3954    5.7334   -1.2056 C   0  0  0  0  0  0  0  0  0  0  0  0
   -0.8594    3.7033   -1.6480 N   0  0  0  0  0  0  0  0  0  0  0  0
   -2.1326    3.2379   -0.9976 C   0  0  0  0  0  0  0  0  0  0  0  0
   -2.2708    3.3488    0.2547 O   0  0  0  0  0  0  0  0  0  0  0  0
   -3.3110    2.6019   -1.8391 C   0  0  2  0  0  0  0  0  0  0  0  0
   -4.1501    3.6356   -2.6067 C   0  0  0  0  0  0  0  0  0  0  0  0
   -4.1793    1.4961   -1.2757 N   0  0  0  0  0  0  0  0  0  0  0  0
   -5.3139    1.6540   -0.3436 C   0  0  0  0  0  0  0  0  0  0  0  0
   -5.1365    2.4671    0.6225 O   0  0  0  0  0  0  0  0  0  0  0  0
   -6.7905    1.0123   -0.4202 C   0  0  1  0  0  0  0  0  0  0  0  0
   -7.9711    1.9755   -1.0596 C   0  0  0  0  0  0  0  0  0  0  0  0
   -6.8464   -0.3526   -0.9934 N   0  0  0  0  0  0  0  0  0  0  0  0
   -7.4455   -0.7441   -2.2664 C   0  0  0  0  0  0  0  0  0  0  0  0
   -8.2542    0.0093   -2.8615 O   0  0  0  0  0  0  0  0  0  0  0  0
   -6.9550   -1.9293   -3.0919 C   0  0  1  0  0  0  0  0  0  0  0  0
   -6.4905   -1.4247   -4.4841 C   0  0  0  0  0  0  0  0  0  0  0  0
   -5.8801   -2.7181   -2.4519 N   0  0  0  0  0  0  0  0  0  0  0  0
   -5.4257   -3.9848   -3.0033 C   0  0  0  0  0  0  0  0  0  0  0  0
   -6.2153   -4.6917   -3.6782 O   0  0  0  0  0  0  0  0  0  0  0  0
    3.6615    0.6604   -0.2651 C   0  0  0  0  0  0  0  0  0  0  0  0
    3.1377   -0.4597   -0.4242 O   0  0  0  0  0  0  0  0  0  0  0  0
    3.5678    1.2711    1.0753 N   0  0  0  0  0  0  0  0  0  0  0  0
    4.4014    2.2413    1.8466 C   0  0  1  0  0  0  0  0  0  0  0  0
    3.6789    2.5411    3.2010 C   0  0  0  0  0  0  0  0  0  0  0  0
    5.8534    1.5162    2.1298 C   0  0  0  0  0  0  0  0  0  0  0  0
    6.8947    2.3136    2.2225 O   0  0  0  0  0  0  0  0  0  0  0  0
    6.1056    0.0257    2.2301 N   0  0  0  0  0  0  0  0  0  0  0  0
    7.4671   -0.8051    2.3978 C   0  0  2  0  0  0  0  0  0  0  0  0
    7.0044   -2.4863    2.4993 C   0  0  0  0  0  0  0  0  0  0  0  0
    8.1518   -0.3435    3.7899 C   0  0  0  0  0  0  0  0  0  0  0  0
    9.4463    0.1486    3.8993 O   0  0  0  0  0  0  0  0  0  0  0  0
    7.3346   -0.5202    5.0103 N   0  0  0  0  0  0  0  0  0  0  0  0
    5.8663   -0.3151    5.4105 C   0  0  2  0  0  0  0  0  0  0  0  0
    5.8437   -0.2402    6.9840 C   0  0  0  0  0  0  0  0  0  0  0  0
    4.7511   -1.3324    4.8672 C   0  0  0  0  0  0  0  0  0  0  0  0
    4.6076   -2.4650    5.4371 O   0  0  0  0  0  0  0  0  0  0  0  0
    3.6546   -0.8880    3.9368 N   0  0  0  0  0  0  0  0  0  0  0  0
    2.2110   -1.4034    3.7530 C   0  0  1  0  0  0  0  0  0  0  0  0
    1.2688   -0.8133    4.7597 C   0  0  0  0  0  0  0  0  0  0  0  0
    1.7066   -0.1608    5.9448 N   0  0  0  0  0  0  0  0  0  0  0  0
    0.1244   -1.3254    4.7234 O   0  0  0  0  0  0  0  0  0  0  0  0
    1.5857   -1.2138    2.2177 C   0  0  0  0  0  0  0  0  0  0  0  0
   -0.2222   -1.9245    1.6023 S   0  0  0  0  0  0  0  0  0  0  0  0
   -1.3875   -0.7767    0.3871 C   0  0  0  0  0  0  0  0  0  0  0  0
   -3.4639   -5.0559    1.4190 H   0  0  0  0  0  0  0  0  0  0  0  0
   -1.6740   -5.2557    1.1305 H   0  0  0  0  0  0  0  0  0  0  0  0
   -2.7185   -6.6844    1.1270 H   0  0  0  0  0  0  0  0  0  0  0  0
   -4.8108   -4.6289   -0.6061 H   0  0  0  0  0  0  0  0  0  0  0  0
   -3.8386   -5.3929   -3.2796 H   0  0  0  0  0  0  0  0  0  0  0  0
   -2.5126   -3.1422   -1.9604 H   0  0  0  0  0  0  0  0  0  0  0  0
   -3.5069   -2.5132   -3.3651 H   0  0  0  0  0  0  0  0  0  0  0  0
   -0.2429   -2.0782   -5.1539 H   0  0  0  0  0  0  0  0  0  0  0  0
   -1.8713   -1.5128   -4.8758 H   0  0  0  0  0  0  0  0  0  0  0  0
   -2.2646   -1.1569   -2.1036 H   0  0  0  0  0  0  0  0  0  0  0  0
    0.0517    1.9672   -0.7254 H   0  0  0  0  0  0  0  0  0  0  0  0
    1.0523   -0.3744   -4.4183 H   0  0  0  0  0  0  0  0  0  0  0  0
    0.4924    1.8958   -4.7658 H   0  0  0  0  0  0  0  0  0  0  0  0
    0.9951    3.3198   -4.0323 H   0  0  0  0  0  0  0  0  0  0  0  0
    4.2988    0.0235   -3.3445 H   0  0  0  0  0  0  0  0  0  0  0  0
    2.8323   -0.1220   -2.7106 H   0  0  0  0  0  0  0  0  0  0  0  0
    4.8389    0.7830   -1.5829 H   0  0  0  0  0  0  0  0  0  0  0  0
    2.1162    2.6344   -0.5424 H   0  0  0  0  0  0  0  0  0  0  0  0
    0.2506    4.1431    0.1392 H   0  0  0  0  0  0  0  0  0  0  0  0
    1.1071    6.2648   -0.5451 H   0  0  0  0  0  0  0  0  0  0  0  0
   -0.6236    6.1529   -1.0127 H   0  0  0  0  0  0  0  0  0  0  0  0
    0.6476    5.9639   -2.2841 H   0  0  0  0  0  0  0  0  0  0  0  0
   -0.9629    3.7730   -2.6855 H   0  0  0  0  0  0  0  0  0  0  0  0
   -2.7641    2.0470   -2.5854 H   0  0  0  0  0  0  0  0  0  0  0  0
   -4.6145    4.3654   -1.9208 H   0  0  0  0  0  0  0  0  0  0  0  0
   -4.9311    3.1282   -3.2409 H   0  0  0  0  0  0  0  0  0  0  0  0
   -3.4783    4.2048   -3.2855 H   0  0  0  0  0  0  0  0  0  0  0  0
   -3.7917    0.5157   -1.3928 H   0  0  0  0  0  0  0  0  0  0  0  0
   -7.0803    0.8888    0.6388 H   0  0  0  0  0  0  0  0  0  0  0  0
   -8.9203    1.4195   -1.0731 H   0  0  0  0  0  0  0  0  0  0  0  0
   -7.6565    2.3537   -2.0660 H   0  0  0  0  0  0  0  0  0  0  0  0
   -8.0850    2.8889   -0.4285 H   0  0  0  0  0  0  0  0  0  0  0  0
   -6.3707   -1.1015   -0.4135 H   0  0  0  0  0  0  0  0  0  0  0  0
   -7.8450   -2.6117   -3.2330 H   0  0  0  0  0  0  0  0  0  0  0  0
   -6.2809   -2.2800   -5.1323 H   0  0  0  0  0  0  0  0  0  0  0  0
   -7.2957   -0.8077   -4.9431 H   0  0  0  0  0  0  0  0  0  0  0  0
   -5.5784   -0.8157   -4.3673 H   0  0  0  0  0  0  0  0  0  0  0  0
   -5.2371   -2.2169   -1.8061 H   0  0  0  0  0  0  0  0  0  0  0  0
    2.5860    1.2456    1.3552 H   0  0  0  0  0  0  0  0  0  0  0  0
    4.1820    3.3854    1.4247 H   0  0  0  0  0  0  0  0  0  0  0  0
    3.7606    3.6132    3.4677 H   0  0  0  0  0  0  0  0  0  0  0  0
    2.5896    2.3656    3.1372 H   0  0  0  0  0  0  0  0  0  0  0  0
    4.1068    1.9687    4.0629 H   0  0  0  0  0  0  0  0  0  0  0  0
    5.4286   -0.6457    1.7907 H   0  0  0  0  0  0  0  0  0  0  0  0
    8.0124   -0.5585    1.5235 H   0  0  0  0  0  0  0  0  0  0  0  0
    7.0852   -3.2250    3.3820 H   0  0  0  0  0  0  0  0  0  0  0  0
    5.9242   -2.6372    2.2583 H   0  0  0  0  0  0  0  0  0  0  0  0
    7.5122   -2.9982    1.6558 H   0  0  0  0  0  0  0  0  0  0  0  0
    7.9751   -0.7820    5.7977 H   0  0  0  0  0  0  0  0  0  0  0  0
    5.4940    0.6669    5.0663 H   0  0  0  0  0  0  0  0  0  0  0  0
    4.9649    0.2496    7.4366 H   0  0  0  0  0  0  0  0  0  0  0  0
    6.6960    0.4019    7.3296 H   0  0  0  0  0  0  0  0  0  0  0  0
    6.0462   -1.2260    7.4888 H   0  0  0  0  0  0  0  0  0  0  0  0
    3.8874   -0.0947    3.3417 H   0  0  0  0  0  0  0  0  0  0  0  0
    2.1359   -2.5042    3.9923 H   0  0  0  0  0  0  0  0  0  0  0  0
    1.3641   -0.4698    6.8635 H   0  0  0  0  0  0  0  0  0  0  0  0
    2.5386    0.4594    5.9144 H   0  0  0  0  0  0  0  0  0  0  0  0
    1.3951   -0.1737    2.0734 H   0  0  0  0  0  0  0  0  0  0  0  0
    2.3877   -1.5218    1.4938 H   0  0  0  0  0  0  0  0  0  0  0  0
   -2.4844   -1.4876    0.1863 H   0  0  0  0  0  0  0  0  0  0  0  0
   -1.7002    0.0994    0.9874 H   0  0  0  0  0  0  0  0  0  0  0  0
  1  2  1  0
  2  3  2  0
  2  4  1  0
  4  5  1  0
  5  6  1  0
  6  7  1  0
  7  8  1  0
  8  9  1  0
  9 10  2  0
 10 11  1  0
 11 12  2  0
 12 13  1  0
 13 14  2  0
 13 15  1  0
 15 16  1  0
 16 17  1  0
 17 18  1  0
 18 19  1  0
 19 20  1  0
 20 21  2  0
 20 22  1  0
 22 23  1  0
 22 24  1  0
 24 25  1  0
 25 26  2  0
 25 27  1  0
 27 28  1  0
 27 29  1  0
 29 30  1  0
 30 31  2  0
 30 32  1  0
 32 33  1  0
 32 34  1  0
 34 35  1  0
 35 36  2  0
 35 37  1  0
 37 38  1  0
 37 39  1  0
 39 40  1  0
 40 41  2  0
 18 42  1  0
 42 43  2  0
 42 44  1  0
 44 45  1  0
 45 46  1  0
 45 47  1  0
 47 48  2  0
 47 49  1  0
 49 50  1  0
 50 51  1  0
 50 52  1  0
 52 53  2  0
 52 54  1  0
 54 55  1  0
 55 56  1  0
 55 57  1  0
 57 58  2  0
 57 59  1  0
 59 60  1  0
 60 61  1  0
 61 62  1  0
 61 63  2  0
 60 64  1  0
 64 65  1  0
 65 66  1  0
 40  5  1  0
 14  9  1  0
 66 11  1  0
  1 67  1  0
  1 68  1  0
  1 69  1  0
  4 70  1  0
  5 71  1  6
  6 72  1  0
  6 73  1  0
  8 74  1  0
  8 75  1  0
 10 76  1  0
 12 77  1  0
 14 78  1  0
 15 79  1  0
 15 80  1  0
 17 81  1  0
 17 82  1  0
 18 83  1  1
 19 84  1  0
 22 85  1  1
 23 86  1  0
 23 87  1  0
 23 88  1  0
 24 89  1  0
 27 90  1  1
 28 91  1  0
 28 92  1  0
 28 93  1  0
 29 94  1  0
 32 95  1  1
 33 96  1  0
 33 97  1  0
 33 98  1  0
 34 99  1  0
 37100  1  6
 38101  1  0
 38102  1  0
 38103  1  0
 39104  1  0
 44105  1  0
 45106  1  1
 46107  1  0
 46108  1  0
 46109  1  0
 49110  1  0
 50111  1  6
 51112  1  0
 51113  1  0
 51114  1  0
 54115  1  0
 55116  1  6
 56117  1  0
 56118  1  0
 56119  1  0
 59120  1  0
 60121  1  1
 62122  1  0
 62123  1  0
 64124  1  0
 64125  1  0
 66126  1  0
 66127  1  0
M  END
