
     RDKit          3D

127129  0  0  0  0  0  0  0  0999 V2000
   -6.1688   -7.3891    1.1455 C   0  0  0  0  0  0  0  0  0  0  0  0
   -6.0109   -5.9068    1.1268 C   0  0  0  0  0  0  0  0  0  0  0  0
   -6.7543   -5.2011    1.8605 O   0  0  0  0  0  0  0  0  0  0  0  0
   -5.0371   -5.2961    0.2681 N   0  0  0  0  0  0  0  0  0  0  0  0
   -4.6448   -3.8849    0.3865 C   0  0  1  0  0  0  0  0  0  0  0  0
   -3.1120   -3.7053    0.5655 C   0  0  0  0  0  0  0  0  0  0  0  0
   -2.0974   -5.2339    0.3409 S   0  0  0  0  0  0  0  0  0  0  0  0
   -1.7142   -5.0037   -1.4317 C   0  0  0  0  0  0  0  0  0  0  0  0
   -0.4914   -4.1519   -1.6044 C   0  0  0  0  0  0  0  0  0  0  0  0
    0.7812   -4.7056   -1.4198 C   0  0  0  0  0  0  0  0  0  0  0  0
    1.9340   -3.9124   -1.5570 C   0  0  0  0  0  0  0  0  0  0  0  0
    1.7934   -2.5465   -1.8565 C   0  0  0  0  0  0  0  0  0  0  0  0
    0.5246   -1.9820   -2.0425 C   0  0  0  0  0  0  0  0  0  0  0  0
   -0.6121   -2.7988   -1.9375 C   0  0  0  0  0  0  0  0  0  0  0  0
    0.3708   -0.5170   -2.3520 C   0  0  0  0  0  0  0  0  0  0  0  0
   -0.6356    0.3118   -1.0657 S   0  0  0  0  0  0  0  0  0  0  0  0
    0.7392    0.8634    0.0231 C   0  0  0  0  0  0  0  0  0  0  0  0
    0.8705    2.4009    0.0957 C   0  0  2  0  0  0  0  0  0  0  0  0
   -0.3799    3.0433    0.5301 N   0  0  0  0  0  0  0  0  0  0  0  0
   -0.4008    4.4297    0.9132 C   0  0  0  0  0  0  0  0  0  0  0  0
    0.6360    4.9522    1.4039 O   0  0  0  0  0  0  0  0  0  0  0  0
   -1.6460    5.2750    0.7288 C   0  0  1  0  0  0  0  0  0  0  0  0
   -1.2561    6.7517    0.5404 C   0  0  0  0  0  0  0  0  0  0  0  0
   -2.4010    4.8311   -0.4493 N   0  0  0  0  0  0  0  0  0  0  0  0
   -3.7669    5.2065   -0.7017 C   0  0  0  0  0  0  0  0  0  0  0  0
   -4.1229    5.4174   -1.8929 O   0  0  0  0  0  0  0  0  0  0  0  0
   -4.7963    5.3136    0.3974 C   0  0  1  0  0  0  0  0  0  0  0  0
   -4.8429    6.7263    0.9891 C   0  0  0  0  0  0  0  0  0  0  0  0
   -6.1256    4.9913   -0.1430 N   0  0  0  0  0  0  0  0  0  0  0  0
   -6.8024    3.7243   -0.0362 C   0  0  0  0  0  0  0  0  0  0  0  0
   -7.9063    3.5868   -0.6356 O   0  0  0  0  0  0  0  0  0  0  0  0
   -6.2844    2.5883    0.8192 C   0  0  1  0  0  0  0  0  0  0  0  0
   -6.7601    2.7735    2.2585 C   0  0  0  0  0  0  0  0  0  0  0  0
   -6.7645    1.3023    0.3007 N   0  0  0  0  0  0  0  0  0  0  0  0
   -5.8776    0.2006    0.0735 C   0  0  0  0  0  0  0  0  0  0  0  0
   -4.8962    0.0036    0.8491 O   0  0  0  0  0  0  0  0  0  0  0  0
   -6.1045   -0.7252   -1.0887 C   0  0  1  0  0  0  0  0  0  0  0  0
   -5.0124   -0.4875   -2.1465 C   0  0  0  0  0  0  0  0  0  0  0  0
   -6.1739   -2.1141   -0.6114 N   0  0  0  0  0  0  0  0  0  0  0  0
   -5.1570   -3.1053   -0.7952 C   0  0  0  0  0  0  0  0  0  0  0  0
   -4.7378   -3.3668   -1.9530 O   0  0  0  0  0  0  0  0  0  0  0  0
    1.2948    2.9843   -1.2353 C   0  0  0  0  0  0  0  0  0  0  0  0
    0.4919    2.9343   -2.2082 O   0  0  0  0  0  0  0  0  0  0  0  0
    2.5233    3.7118   -1.4087 N   0  0  0  0  0  0  0  0  0  0  0  0
    3.7579    3.4932   -0.6419 C   0  0  2  0  0  0  0  0  0  0  0  0
    3.9478    4.6575    0.3374 C   0  0  0  0  0  0  0  0  0  0  0  0
    4.9511    3.3922   -1.5709 C   0  0  0  0  0  0  0  0  0  0  0  0
    4.8058    3.6334   -2.8004 O   0  0  0  0  0  0  0  0  0  0  0  0
    6.2688    3.0656   -1.0917 N   0  0  0  0  0  0  0  0  0  0  0  0
    6.5518    2.3531    0.1615 C   0  0  2  0  0  0  0  0  0  0  0  0
    7.8082    2.9278    0.8166 C   0  0  0  0  0  0  0  0  0  0  0  0
    6.7123    0.8825   -0.1148 C   0  0  0  0  0  0  0  0  0  0  0  0
    7.7192    0.4589   -0.7436 O   0  0  0  0  0  0  0  0  0  0  0  0
    5.7109   -0.0388    0.3496 N   0  0  0  0  0  0  0  0  0  0  0  0
    6.0146   -1.3373    0.9662 C   0  0  2  0  0  0  0  0  0  0  0  0
    7.2040   -1.2292    1.9335 C   0  0  0  0  0  0  0  0  0  0  0  0
    6.2493   -2.4066   -0.0843 C   0  0  0  0  0  0  0  0  0  0  0  0
    6.5494   -2.0698   -1.2631 O   0  0  0  0  0  0  0  0  0  0  0  0
    6.1693   -3.8061    0.2340 N   0  0  0  0  0  0  0  0  0  0  0  0
    5.4642   -4.3456    1.4049 C   0  0  2  0  0  0  0  0  0  0  0  0
    6.0315   -5.6859    1.8344 C   0  0  0  0  0  0  0  0  0  0  0  0
    7.3360   -6.1142    1.4273 N   0  0  0  0  0  0  0  0  0  0  0  0
    5.3619   -6.4262    2.6055 O   0  0  0  0  0  0  0  0  0  0  0  0
    3.9521   -4.4153    1.1181 C   0  0  0  0  0  0  0  0  0  0  0  0
    3.5329   -5.6886   -0.1373 S   0  0  0  0  0  0  0  0  0  0  0  0
    3.3030   -4.5557   -1.5547 C   0  0  0  0  0  0  0  0  0  0  0  0
   -5.3951   -7.8758    0.5083 H   0  0  0  0  0  0  0  0  0  0  0  0
   -7.1755   -7.6674    0.7639 H   0  0  0  0  0  0  0  0  0  0  0  0
   -6.0531   -7.7642    2.1827 H   0  0  0  0  0  0  0  0  0  0  0  0
   -4.6623   -5.8591   -0.5282 H   0  0  0  0  0  0  0  0  0  0  0  0
   -5.1251   -3.4486    1.2942 H   0  0  0  0  0  0  0  0  0  0  0  0
   -2.7242   -2.8905   -0.0796 H   0  0  0  0  0  0  0  0  0  0  0  0
   -2.9199   -3.3608    1.6031 H   0  0  0  0  0  0  0  0  0  0  0  0
   -2.5865   -4.5840   -1.9723 H   0  0  0  0  0  0  0  0  0  0  0  0
   -1.5328   -6.0014   -1.8814 H   0  0  0  0  0  0  0  0  0  0  0  0
    0.8720   -5.7609   -1.1991 H   0  0  0  0  0  0  0  0  0  0  0  0
    2.6820   -1.9366   -1.9902 H   0  0  0  0  0  0  0  0  0  0  0  0
   -1.5914   -2.3638   -2.0985 H   0  0  0  0  0  0  0  0  0  0  0  0
    1.3539   -0.0194   -2.4752 H   0  0  0  0  0  0  0  0  0  0  0  0
   -0.1700   -0.4199   -3.3202 H   0  0  0  0  0  0  0  0  0  0  0  0
    0.5195    0.4864    1.0420 H   0  0  0  0  0  0  0  0  0  0  0  0
    1.7132    0.4177   -0.2816 H   0  0  0  0  0  0  0  0  0  0  0  0
    1.6416    2.6140    0.8616 H   0  0  0  0  0  0  0  0  0  0  0  0
   -1.2903    2.5372    0.4630 H   0  0  0  0  0  0  0  0  0  0  0  0
   -2.2642    5.1686    1.6417 H   0  0  0  0  0  0  0  0  0  0  0  0
   -0.5193    6.8625   -0.2829 H   0  0  0  0  0  0  0  0  0  0  0  0
   -2.1371    7.3705    0.2850 H   0  0  0  0  0  0  0  0  0  0  0  0
   -0.8061    7.1642    1.4728 H   0  0  0  0  0  0  0  0  0  0  0  0
   -1.8444    4.5204   -1.2819 H   0  0  0  0  0  0  0  0  0  0  0  0
   -4.5383    4.6246    1.2196 H   0  0  0  0  0  0  0  0  0  0  0  0
   -5.7111    6.8202    1.6788 H   0  0  0  0  0  0  0  0  0  0  0  0
   -3.9362    6.9435    1.5779 H   0  0  0  0  0  0  0  0  0  0  0  0
   -4.9437    7.4859    0.1859 H   0  0  0  0  0  0  0  0  0  0  0  0
   -6.5706    5.7062   -0.7678 H   0  0  0  0  0  0  0  0  0  0  0  0
   -5.1700    2.5834    0.8087 H   0  0  0  0  0  0  0  0  0  0  0  0
   -6.3311    3.7091    2.6828 H   0  0  0  0  0  0  0  0  0  0  0  0
   -7.8737    2.8433    2.2983 H   0  0  0  0  0  0  0  0  0  0  0  0
   -6.4398    1.9111    2.8880 H   0  0  0  0  0  0  0  0  0  0  0  0
   -7.7901    1.1751    0.1111 H   0  0  0  0  0  0  0  0  0  0  0  0
   -7.0809   -0.4775   -1.5665 H   0  0  0  0  0  0  0  0  0  0  0  0
   -4.0089   -0.7295   -1.7370 H   0  0  0  0  0  0  0  0  0  0  0  0
   -5.2145   -1.1016   -3.0437 H   0  0  0  0  0  0  0  0  0  0  0  0
   -5.0131    0.5771   -2.4513 H   0  0  0  0  0  0  0  0  0  0  0  0
   -7.0694   -2.4227   -0.1478 H   0  0  0  0  0  0  0  0  0  0  0  0
    2.5212    4.4758   -2.1262 H   0  0  0  0  0  0  0  0  0  0  0  0
    3.6864    2.5386   -0.0837 H   0  0  0  0  0  0  0  0  0  0  0  0
    4.9370    4.6235    0.8366 H   0  0  0  0  0  0  0  0  0  0  0  0
    3.1738    4.6076    1.1314 H   0  0  0  0  0  0  0  0  0  0  0  0
    3.8519    5.6274   -0.1921 H   0  0  0  0  0  0  0  0  0  0  0  0
    7.0573    3.1617   -1.7761 H   0  0  0  0  0  0  0  0  0  0  0  0
    5.7235    2.4868    0.8875 H   0  0  0  0  0  0  0  0  0  0  0  0
    8.6848    2.8615    0.1274 H   0  0  0  0  0  0  0  0  0  0  0  0
    7.6444    3.9914    1.0798 H   0  0  0  0  0  0  0  0  0  0  0  0
    8.0465    2.3715    1.7480 H   0  0  0  0  0  0  0  0  0  0  0  0
    4.7232    0.3154    0.4298 H   0  0  0  0  0  0  0  0  0  0  0  0
    5.1201   -1.6202    1.5589 H   0  0  0  0  0  0  0  0  0  0  0  0
    7.0411   -0.3937    2.6385 H   0  0  0  0  0  0  0  0  0  0  0  0
    8.1521   -1.0600    1.3822 H   0  0  0  0  0  0  0  0  0  0  0  0
    7.3143   -2.1608    2.5251 H   0  0  0  0  0  0  0  0  0  0  0  0
    6.3708   -4.4703   -0.5527 H   0  0  0  0  0  0  0  0  0  0  0  0
    5.6098   -3.6778    2.2783 H   0  0  0  0  0  0  0  0  0  0  0  0
    7.9662   -5.4964    0.8648 H   0  0  0  0  0  0  0  0  0  0  0  0
    7.7035   -7.0357    1.7502 H   0  0  0  0  0  0  0  0  0  0  0  0
    3.5806   -3.4158    0.8046 H   0  0  0  0  0  0  0  0  0  0  0  0
    3.4087   -4.6676    2.0520 H   0  0  0  0  0  0  0  0  0  0  0  0
    3.4111   -5.1465   -2.4840 H   0  0  0  0  0  0  0  0  0  0  0  0
    4.1111   -3.7883   -1.5743 H   0  0  0  0  0  0  0  0  0  0  0  0
  1  2  1  0
  2  3  2  0
  2  4  1  0
  4  5  1  0
  5  6  1  0
  6  7  1  0
  7  8  1  0
  8  9  1  0
  9 10  2  0
 10 11  1  0
 11 12  2  0
 12 13  1  0
 13 14  2  0
 13 15  1  0
 15 16  1  0
 16 17  1  0
 17 18  1  0
 18 19  1  0
 19 20  1  0
 20 21  2  0
 20 22  1  0
 22 23  1  0
 22 24  1  0
 24 25  1  0
 25 26  2  0
 25 27  1  0
 27 28  1  0
 27 29  1  0
 29 30  1  0
 30 31  2  0
 30 32  1  0
 32 33  1  0
 32 34  1  0
 34 35  1  0
 35 36  2  0
 35 37  1  0
 37 38  1  0
 37 39  1  0
 39 40  1  0
 40 41  2  0
 18 42  1  0
 42 43  2  0
 42 44  1  0
 44 45  1  0
 45 46  1  0
 45 47  1  0
 47 48  2  0
 47 49  1  0
 49 50  1  0
 50 51  1  0
 50 52  1  0
 52 53  2  0
 52 54  1  0
 54 55  1  0
 55 56  1  0
 55 57  1  0
 57 58  2  0
 57 59  1  0
 59 60  1  0
 60 61  1  0
 61 62  1  0
 61 63  2  0
 60 64  1  0
 64 65  1  0
 65 66  1  0
 40  5  1  0
 14  9  1  0
 66 11  1  0
  1 67  1  0
  1 68  1  0
  1 69  1  0
  4 70  1  0
  5 71  1  1
  6 72  1  0
  6 73  1  0
  8 74  1  0
  8 75  1  0
 10 76  1  0
 12 77  1  0
 14 78  1  0
 15 79  1  0
 15 80  1  0
 17 81  1  0
 17 82  1  0
 18 83  1  1
 19 84  1  0
 22 85  1  1
 23 86  1  0
 23 87  1  0
 23 88  1  0
 24 89  1  0
 27 90  1  1
 28 91  1  0
 28 92  1  0
 28 93  1  0
 29 94  1  0
 32 95  1  1
 33 96  1  0
 33 97  1  0
 33 98  1  0
 34 99  1  0
 37100  1  6
 38101  1  0
 38102  1  0
 38103  1  0
 39104  1  0
 44105  1  0
 45106  1  1
 46107  1  0
 46108  1  0
 46109  1  0
 49110  1  0
 50111  1  1
 51112  1  0
 51113  1  0
 51114  1  0
 54115  1  0
 55116  1  1
 56117  1  0
 56118  1  0
 56119  1  0
 59120  1  0
 60121  1  1
 62122  1  0
 62123  1  0
 64124  1  0
 64125  1  0
 66126  1  0
 66127  1  0
M  END
