
     RDKit          3D

137139  0  0  0  0  0  0  0  0999 V2000
    7.4416   -6.9052    0.1207 C   0  0  0  0  0  0  0  0  0  0  0  0
    6.9146   -6.3383    1.4105 C   0  0  0  0  0  0  0  0  0  0  0  0
    7.1165   -6.9667    2.4836 O   0  0  0  0  0  0  0  0  0  0  0  0
    6.1430   -5.1262    1.4633 N   0  0  0  0  0  0  0  0  0  0  0  0
    6.0898   -4.1210    0.3824 C   0  0  1  0  0  0  0  0  0  0  0  0
    4.9761   -4.4713   -0.6162 C   0  0  0  0  0  0  0  0  0  0  0  0
    3.3363   -4.4979    0.1870 S   0  0  0  0  0  0  0  0  0  0  0  0
    2.3863   -4.7972   -1.3490 C   0  0  0  0  0  0  0  0  0  0  0  0
    1.1606   -3.9334   -1.3551 C   0  0  0  0  0  0  0  0  0  0  0  0
   -0.1201   -4.5085   -1.4375 C   0  0  0  0  0  0  0  0  0  0  0  0
   -1.2648   -3.6989   -1.4298 C   0  0  0  0  0  0  0  0  0  0  0  0
   -1.1238   -2.3044   -1.3481 C   0  0  0  0  0  0  0  0  0  0  0  0
    0.1525   -1.7215   -1.3186 C   0  0  0  0  0  0  0  0  0  0  0  0
    1.2907   -2.5420   -1.3219 C   0  0  0  0  0  0  0  0  0  0  0  0
    0.3105   -0.2346   -1.2151 C   0  0  0  0  0  0  0  0  0  0  0  0
    0.0073    0.2855    0.5135 S   0  0  0  0  0  0  0  0  0  0  0  0
    0.7051    1.9666    0.3430 C   0  0  0  0  0  0  0  0  0  0  0  0
   -0.3694    2.9938   -0.0641 C   0  0  2  0  0  0  0  0  0  0  0  0
    0.2703    4.2054   -0.5943 N   0  0  0  0  0  0  0  0  0  0  0  0
    1.4177    4.8113    0.0367 C   0  0  0  0  0  0  0  0  0  0  0  0
    1.4261    4.9630    1.2908 O   0  0  0  0  0  0  0  0  0  0  0  0
    2.6790    5.1149   -0.7511 C   0  0  1  0  0  0  0  0  0  0  0  0
    2.3952    5.5298   -2.1992 C   0  0  0  0  0  0  0  0  0  0  0  0
    3.4373    6.1867   -0.0900 N   0  0  0  0  0  0  0  0  0  0  0  0
    4.7430    6.0584    0.5045 C   0  0  0  0  0  0  0  0  0  0  0  0
    5.1152    6.9574    1.3081 O   0  0  0  0  0  0  0  0  0  0  0  0
    5.7201    4.9563    0.1255 C   0  0  1  0  0  0  0  0  0  0  0  0
    6.3032    5.2393   -1.2598 C   0  0  0  0  0  0  0  0  0  0  0  0
    6.8203    4.8796    1.0955 N   0  0  0  0  0  0  0  0  0  0  0  0
    7.4110    3.6631    1.5834 C   0  0  0  0  0  0  0  0  0  0  0  0
    8.0608    3.7028    2.6628 O   0  0  0  0  0  0  0  0  0  0  0  0
    7.4606    2.3900    0.7541 C   0  0  1  0  0  0  0  0  0  0  0  0
    8.7964    2.3602   -0.0009 C   0  0  0  0  0  0  0  0  0  0  0  0
    7.3327    1.2084    1.6235 N   0  0  0  0  0  0  0  0  0  0  0  0
    7.5262   -0.1524    1.1971 C   0  0  0  0  0  0  0  0  0  0  0  0
    8.1205   -0.9488    1.9770 O   0  0  0  0  0  0  0  0  0  0  0  0
    6.9962   -0.6711   -0.1264 C   0  0  1  0  0  0  0  0  0  0  0  0
    8.0999   -1.3759   -0.9253 C   0  0  0  0  0  0  0  0  0  0  0  0
    5.8666   -1.5860    0.0724 N   0  0  0  0  0  0  0  0  0  0  0  0
    5.9151   -2.7240    0.9403 C   0  0  0  0  0  0  0  0  0  0  0  0
    5.7826   -2.5458    2.1922 O   0  0  0  0  0  0  0  0  0  0  0  0
   -1.3229    3.3293    1.0686 C   0  0  0  0  0  0  0  0  0  0  0  0
   -0.9914    3.0712    2.2598 O   0  0  0  0  0  0  0  0  0  0  0  0
   -2.6309    3.8848    0.8334 N   0  0  0  0  0  0  0  0  0  0  0  0
   -3.0437    4.5716   -0.3929 C   0  0  2  0  0  0  0  0  0  0  0  0
   -3.5560    5.9785   -0.0612 C   0  0  0  0  0  0  0  0  0  0  0  0
   -4.0943    3.7738   -1.1218 C   0  0  0  0  0  0  0  0  0  0  0  0
   -3.8345    3.3289   -2.2703 O   0  0  0  0  0  0  0  0  0  0  0  0
   -5.3925    3.5647   -0.5384 N   0  0  0  0  0  0  0  0  0  0  0  0
   -6.5846    3.2811   -1.3463 C   0  0  2  0  0  0  0  0  0  0  0  0
   -7.4708    4.5285   -1.3753 C   0  0  0  0  0  0  0  0  0  0  0  0
   -7.3647    2.0935   -0.8190 C   0  0  0  0  0  0  0  0  0  0  0  0
   -8.4253    1.7581   -1.4085 O   0  0  0  0  0  0  0  0  0  0  0  0
   -6.9289    1.3335    0.3215 N   0  0  0  0  0  0  0  0  0  0  0  0
   -7.8342    0.4125    1.0221 C   0  0  2  0  0  0  0  0  0  0  0  0
   -8.7594    1.2033    1.9510 C   0  0  0  0  0  0  0  0  0  0  0  0
   -7.0707   -0.6225    1.8117 C   0  0  0  0  0  0  0  0  0  0  0  0
   -5.9888   -0.3159    2.3841 O   0  0  0  0  0  0  0  0  0  0  0  0
   -7.6533   -1.9002    2.0672 N   0  0  0  0  0  0  0  0  0  0  0  0
   -7.5509   -3.0146    1.1123 C   0  0  2  0  0  0  0  0  0  0  0  0
   -8.7160   -2.9710    0.1205 C   0  0  0  0  0  0  0  0  0  0  0  0
   -7.5626   -4.3299    1.8545 C   0  0  0  0  0  0  0  0  0  0  0  0
   -8.5693   -4.6117    2.5601 O   0  0  0  0  0  0  0  0  0  0  0  0
   -6.4542   -5.2531    1.8440 N   0  0  0  0  0  0  0  0  0  0  0  0
   -5.5689   -5.5395    0.7017 C   0  0  1  0  0  0  0  0  0  0  0  0
   -6.3419   -5.6314   -0.5936 C   0  0  0  0  0  0  0  0  0  0  0  0
   -7.3620   -6.6168   -0.7288 N   0  0  0  0  0  0  0  0  0  0  0  0
   -6.0928   -4.8549   -1.5537 O   0  0  0  0  0  0  0  0  0  0  0  0
   -4.3637   -4.5738    0.6562 C   0  0  0  0  0  0  0  0  0  0  0  0
   -2.9221   -5.4306   -0.0961 S   0  0  0  0  0  0  0  0  0  0  0  0
   -2.6283   -4.3283   -1.5400 C   0  0  0  0  0  0  0  0  0  0  0  0
    8.1072   -6.1675   -0.3856 H   0  0  0  0  0  0  0  0  0  0  0  0
    8.0252   -7.8241    0.3237 H   0  0  0  0  0  0  0  0  0  0  0  0
    6.5949   -7.1767   -0.5447 H   0  0  0  0  0  0  0  0  0  0  0  0
    5.4759   -5.0303    2.2600 H   0  0  0  0  0  0  0  0  0  0  0  0
    7.0566   -4.1270   -0.1649 H   0  0  0  0  0  0  0  0  0  0  0  0
    4.9880   -3.7292   -1.4428 H   0  0  0  0  0  0  0  0  0  0  0  0
    5.1683   -5.4687   -1.0622 H   0  0  0  0  0  0  0  0  0  0  0  0
    2.1211   -5.8767   -1.3968 H   0  0  0  0  0  0  0  0  0  0  0  0
    2.9812   -4.5517   -2.2554 H   0  0  0  0  0  0  0  0  0  0  0  0
   -0.2261   -5.5846   -1.5076 H   0  0  0  0  0  0  0  0  0  0  0  0
   -2.0039   -1.6695   -1.3338 H   0  0  0  0  0  0  0  0  0  0  0  0
    2.2780   -2.0950   -1.2859 H   0  0  0  0  0  0  0  0  0  0  0  0
   -0.4079    0.2763   -1.8948 H   0  0  0  0  0  0  0  0  0  0  0  0
    1.3390    0.0574   -1.5194 H   0  0  0  0  0  0  0  0  0  0  0  0
    1.1681    2.2444    1.3115 H   0  0  0  0  0  0  0  0  0  0  0  0
    1.5290    1.9678   -0.4024 H   0  0  0  0  0  0  0  0  0  0  0  0
   -0.9699    2.5344   -0.8799 H   0  0  0  0  0  0  0  0  0  0  0  0
    0.0530    4.4578   -1.5871 H   0  0  0  0  0  0  0  0  0  0  0  0
    3.2609    4.1725   -0.7955 H   0  0  0  0  0  0  0  0  0  0  0  0
    3.3333    5.8454   -2.7039 H   0  0  0  0  0  0  0  0  0  0  0  0
    1.6751    6.3814   -2.2323 H   0  0  0  0  0  0  0  0  0  0  0  0
    1.9896    4.6683   -2.7794 H   0  0  0  0  0  0  0  0  0  0  0  0
    2.9473    7.1040    0.0336 H   0  0  0  0  0  0  0  0  0  0  0  0
    5.1830    3.9925    0.1104 H   0  0  0  0  0  0  0  0  0  0  0  0
    6.8056    6.2357   -1.2666 H   0  0  0  0  0  0  0  0  0  0  0  0
    7.0526    4.4695   -1.5264 H   0  0  0  0  0  0  0  0  0  0  0  0
    5.5125    5.2325   -2.0336 H   0  0  0  0  0  0  0  0  0  0  0  0
    7.2535    5.7719    1.4307 H   0  0  0  0  0  0  0  0  0  0  0  0
    6.6394    2.3771    0.0098 H   0  0  0  0  0  0  0  0  0  0  0  0
    9.6365    2.1514    0.7017 H   0  0  0  0  0  0  0  0  0  0  0  0
    8.7790    1.5807   -0.7860 H   0  0  0  0  0  0  0  0  0  0  0  0
    8.9863    3.3346   -0.4992 H   0  0  0  0  0  0  0  0  0  0  0  0
    7.2041    1.3461    2.6497 H   0  0  0  0  0  0  0  0  0  0  0  0
    6.6416    0.1827   -0.7390 H   0  0  0  0  0  0  0  0  0  0  0  0
    8.5103   -2.2393   -0.3605 H   0  0  0  0  0  0  0  0  0  0  0  0
    8.9333   -0.6831   -1.1499 H   0  0  0  0  0  0  0  0  0  0  0  0
    7.6871   -1.7419   -1.8912 H   0  0  0  0  0  0  0  0  0  0  0  0
    5.0562   -1.5130   -0.5863 H   0  0  0  0  0  0  0  0  0  0  0  0
   -3.3187    3.8447    1.6219 H   0  0  0  0  0  0  0  0  0  0  0  0
   -2.1789    4.7077   -1.0698 H   0  0  0  0  0  0  0  0  0  0  0  0
   -4.3812    5.9431    0.6787 H   0  0  0  0  0  0  0  0  0  0  0  0
   -2.7257    6.5833    0.3669 H   0  0  0  0  0  0  0  0  0  0  0  0
   -3.9222    6.4841   -0.9817 H   0  0  0  0  0  0  0  0  0  0  0  0
   -5.5305    3.8238    0.4659 H   0  0  0  0  0  0  0  0  0  0  0  0
   -6.2915    3.0506   -2.3944 H   0  0  0  0  0  0  0  0  0  0  0  0
   -6.8915    5.4014   -1.7549 H   0  0  0  0  0  0  0  0  0  0  0  0
   -7.8287    4.7624   -0.3478 H   0  0  0  0  0  0  0  0  0  0  0  0
   -8.3473    4.3722   -2.0347 H   0  0  0  0  0  0  0  0  0  0  0  0
   -5.9889    1.5230    0.7347 H   0  0  0  0  0  0  0  0  0  0  0  0
   -8.4687   -0.1135    0.2772 H   0  0  0  0  0  0  0  0  0  0  0  0
   -9.4701    0.5155    2.4651 H   0  0  0  0  0  0  0  0  0  0  0  0
   -9.3496    1.9383    1.3640 H   0  0  0  0  0  0  0  0  0  0  0  0
   -8.1619    1.7505    2.7176 H   0  0  0  0  0  0  0  0  0  0  0  0
   -7.8036   -2.1270    3.0864 H   0  0  0  0  0  0  0  0  0  0  0  0
   -6.6117   -2.9084    0.5427 H   0  0  0  0  0  0  0  0  0  0  0  0
   -8.5734   -2.1514   -0.6153 H   0  0  0  0  0  0  0  0  0  0  0  0
   -9.6788   -2.8247    0.6535 H   0  0  0  0  0  0  0  0  0  0  0  0
   -8.7705   -3.9197   -0.4565 H   0  0  0  0  0  0  0  0  0  0  0  0
   -6.4817   -5.9899    2.5802 H   0  0  0  0  0  0  0  0  0  0  0  0
   -5.1495   -6.5546    0.8758 H   0  0  0  0  0  0  0  0  0  0  0  0
   -7.8576   -6.7411   -1.6402 H   0  0  0  0  0  0  0  0  0  0  0  0
   -7.6078   -7.2479    0.0651 H   0  0  0  0  0  0  0  0  0  0  0  0
   -4.0662   -4.3151    1.6906 H   0  0  0  0  0  0  0  0  0  0  0  0
   -4.6066   -3.6268    0.1461 H   0  0  0  0  0  0  0  0  0  0  0  0
   -2.6513   -4.9503   -2.4631 H   0  0  0  0  0  0  0  0  0  0  0  0
   -3.4200   -3.5573   -1.6687 H   0  0  0  0  0  0  0  0  0  0  0  0
  1  2  1  0
  2  3  2  0
  2  4  1  0
  4  5  1  0
  5  6  1  0
  6  7  1  0
  7  8  1  0
  8  9  1  0
  9 10  2  0
 10 11  1  0
 11 12  2  0
 12 13  1  0
 13 14  2  0
 13 15  1  0
 15 16  1  0
 16 17  1  0
 17 18  1  0
 18 19  1  0
 19 20  1  0
 20 21  2  0
 20 22  1  0
 22 23  1  0
 22 24  1  0
 24 25  1  0
 25 26  2  0
 25 27  1  0
 27 28  1  0
 27 29  1  0
 29 30  1  0
 30 31  2  0
 30 32  1  0
 32 33  1  0
 32 34  1  0
 34 35  1  0
 35 36  2  0
 35 37  1  0
 37 38  1  0
 37 39  1  0
 39 40  1  0
 40 41  2  0
 18 42  1  0
 42 43  2  0
 42 44  1  0
 44 45  1  0
 45 46  1  0
 45 47  1  0
 47 48  2  0
 47 49  1  0
 49 50  1  0
 50 51  1  0
 50 52  1  0
 52 53  2  0
 52 54  1  0
 54 55  1  0
 55 56  1  0
 55 57  1  0
 57 58  2  0
 57 59  1  0
 59 60  1  0
 60 61  1  0
 60 62  1  0
 62 63  2  0
 62 64  1  0
 64 65  1  0
 65 66  1  0
 66 67  1  0
 66 68  2  0
 65 69  1  0
 69 70  1  0
 70 71  1  0
 40  5  1  0
 14  9  1  0
 71 11  1  0
  1 72  1  0
  1 73  1  0
  1 74  1  0
  4 75  1  0
  5 76  1  6
  6 77  1  0
  6 78  1  0
  8 79  1  0
  8 80  1  0
 10 81  1  0
 12 82  1  0
 14 83  1  0
 15 84  1  0
 15 85  1  0
 17 86  1  0
 17 87  1  0
 18 88  1  6
 19 89  1  0
 22 90  1  6
 23 91  1  0
 23 92  1  0
 23 93  1  0
 24 94  1  0
 27 95  1  6
 28 96  1  0
 28 97  1  0
 28 98  1  0
 29 99  1  0
 32100  1  6
 33101  1  0
 33102  1  0
 33103  1  0
 34104  1  0
 37105  1  6
 38106  1  0
 38107  1  0
 38108  1  0
 39109  1  0
 44110  1  0
 45111  1  6
 46112  1  0
 46113  1  0
 46114  1  0
 49115  1  0
 50116  1  6
 51117  1  0
 51118  1  0
 51119  1  0
 54120  1  0
 55121  1  6
 56122  1  0
 56123  1  0
 56124  1  0
 59125  1  0
 60126  1  6
 61127  1  0
 61128  1  0
 61129  1  0
 64130  1  0
 65131  1  1
 67132  1  0
 67133  1  0
 69134  1  0
 69135  1  0
 71136  1  0
 71137  1  0
M  END
