
     RDKit          3D

197199  0  0  0  0  0  0  0  0999 V2000
  -10.8674    5.4722    3.4570 C   0  0  0  0  0  0  0  0  0  0  0  0
   -9.7867    5.1910    2.4678 C   0  0  0  0  0  0  0  0  0  0  0  0
   -8.6107    5.0126    2.8820 O   0  0  0  0  0  0  0  0  0  0  0  0
  -10.0806    5.1413    1.0642 N   0  0  0  0  0  0  0  0  0  0  0  0
   -9.1648    4.6204    0.0432 C   0  0  1  0  0  0  0  0  0  0  0  0
   -7.8893    5.4991   -0.0810 C   0  0  0  0  0  0  0  0  0  0  0  0
   -6.3158    4.7399    0.4941 S   0  0  0  0  0  0  0  0  0  0  0  0
   -5.9104    3.9404   -1.1024 C   0  0  0  0  0  0  0  0  0  0  0  0
   -4.6231    3.1703   -0.9928 C   0  0  0  0  0  0  0  0  0  0  0  0
   -3.4020    3.8470   -0.8455 C   0  0  0  0  0  0  0  0  0  0  0  0
   -2.1883    3.1403   -0.7960 C   0  0  0  0  0  0  0  0  0  0  0  0
   -2.2088    1.7396   -0.8966 C   0  0  0  0  0  0  0  0  0  0  0  0
   -3.4264    1.0492   -1.0233 C   0  0  0  0  0  0  0  0  0  0  0  0
   -4.6272    1.7704   -1.0691 C   0  0  0  0  0  0  0  0  0  0  0  0
   -3.4571   -0.4523   -1.0404 C   0  0  0  0  0  0  0  0  0  0  0  0
   -3.3834   -1.0722    0.6728 S   0  0  0  0  0  0  0  0  0  0  0  0
   -4.3517   -2.5975    0.3728 C   0  0  0  0  0  0  0  0  0  0  0  0
   -4.2442   -3.5401    1.5843 C   0  0  1  0  0  0  0  0  0  0  0  0
   -5.1802   -4.6723    1.5239 N   0  0  0  0  0  0  0  0  0  0  0  0
   -5.7248   -5.2320    0.3211 C   0  0  0  0  0  0  0  0  0  0  0  0
   -5.1900   -6.2540   -0.1855 O   0  0  0  0  0  0  0  0  0  0  0  0
   -7.0082   -4.7020   -0.2554 C   0  0  1  0  0  0  0  0  0  0  0  0
   -6.8858   -4.5070   -1.7695 C   0  0  0  0  0  0  0  0  0  0  0  0
   -8.1099   -5.6167    0.0536 N   0  0  0  0  0  0  0  0  0  0  0  0
   -9.4721   -5.1784   -0.0313 C   0  0  0  0  0  0  0  0  0  0  0  0
  -10.1384   -5.4590   -1.0658 O   0  0  0  0  0  0  0  0  0  0  0  0
  -10.1768   -4.5466    1.1496 C   0  0  1  0  0  0  0  0  0  0  0  0
   -9.2506   -3.8740    2.1677 C   0  0  0  0  0  0  0  0  0  0  0  0
  -11.2538   -3.6399    0.7221 N   0  0  0  0  0  0  0  0  0  0  0  0
  -11.1318   -2.4427   -0.0816 C   0  0  0  0  0  0  0  0  0  0  0  0
  -12.1728   -1.7776   -0.3227 O   0  0  0  0  0  0  0  0  0  0  0  0
   -9.8073   -1.9268   -0.6097 C   0  0  1  0  0  0  0  0  0  0  0  0
   -9.8824   -1.5866   -2.1021 C   0  0  0  0  0  0  0  0  0  0  0  0
   -9.3249   -0.7823    0.1744 N   0  0  0  0  0  0  0  0  0  0  0  0
  -10.1681    0.2568    0.6854 C   0  0  0  0  0  0  0  0  0  0  0  0
  -10.3794    0.3089    1.9277 O   0  0  0  0  0  0  0  0  0  0  0  0
  -10.6672    1.3572   -0.2218 C   0  0  1  0  0  0  0  0  0  0  0  0
  -11.7878    2.1947    0.4151 C   0  0  0  0  0  0  0  0  0  0  0  0
   -9.5466    2.2005   -0.6363 N   0  0  0  0  0  0  0  0  0  0  0  0
   -8.9499    3.1387    0.2630 C   0  0  0  0  0  0  0  0  0  0  0  0
   -8.3345    2.7170    1.2781 O   0  0  0  0  0  0  0  0  0  0  0  0
   -2.8231   -4.0322    1.7360 C   0  0  0  0  0  0  0  0  0  0  0  0
   -2.0987   -3.5650    2.6540 O   0  0  0  0  0  0  0  0  0  0  0  0
   -2.2706   -4.9572    0.7926 N   0  0  0  0  0  0  0  0  0  0  0  0
   -0.8932   -4.8545    0.3029 C   0  0  2  0  0  0  0  0  0  0  0  0
   -0.9444   -4.7025   -1.2253 C   0  0  0  0  0  0  0  0  0  0  0  0
   -0.1159   -6.0597    0.7955 C   0  0  0  0  0  0  0  0  0  0  0  0
   -0.1314   -6.3142    2.0290 O   0  0  0  0  0  0  0  0  0  0  0  0
    0.5616   -6.9769   -0.0802 N   0  0  0  0  0  0  0  0  0  0  0  0
    1.7083   -6.5841   -0.8988 C   0  0  2  0  0  0  0  0  0  0  0  0
    1.6541   -7.3297   -2.2391 C   0  0  0  0  0  0  0  0  0  0  0  0
    2.9892   -6.8197   -0.1441 C   0  0  0  0  0  0  0  0  0  0  0  0
    3.2857   -6.0437    0.8069 O   0  0  0  0  0  0  0  0  0  0  0  0
    3.8722   -7.9036   -0.4695 N   0  0  0  0  0  0  0  0  0  0  0  0
    5.2955   -7.6772   -0.7420 C   0  0  2  0  0  0  0  0  0  0  0  0
    5.6017   -8.1392   -2.1708 C   0  0  0  0  0  0  0  0  0  0  0  0
    6.1535   -8.4487    0.2367 C   0  0  0  0  0  0  0  0  0  0  0  0
    5.8274   -9.6354    0.5231 O   0  0  0  0  0  0  0  0  0  0  0  0
    7.4032   -7.9395    0.7467 N   0  0  0  0  0  0  0  0  0  0  0  0
    7.6792   -6.5533    1.1486 C   0  0  2  0  0  0  0  0  0  0  0  0
    6.5698   -6.0089    2.0577 C   0  0  0  0  0  0  0  0  0  0  0  0
    7.9311   -5.6570   -0.0400 C   0  0  0  0  0  0  0  0  0  0  0  0
    8.0555   -6.1481   -1.1936 O   0  0  0  0  0  0  0  0  0  0  0  0
    8.0590   -4.2425    0.1265 N   0  0  0  0  0  0  0  0  0  0  0  0
    9.3226   -3.6444    0.5620 C   0  0  2  0  0  0  0  0  0  0  0  0
    9.3170   -3.4373    2.0780 C   0  0  0  0  0  0  0  0  0  0  0  0
    9.5730   -2.3748   -0.2248 C   0  0  0  0  0  0  0  0  0  0  0  0
    9.9133   -2.4902   -1.4323 O   0  0  0  0  0  0  0  0  0  0  0  0
    9.3581   -1.0648    0.3402 N   0  0  0  0  0  0  0  0  0  0  0  0
    8.9401    0.1101   -0.4330 C   0  0  2  0  0  0  0  0  0  0  0  0
    7.7219   -0.2000   -1.3108 C   0  0  0  0  0  0  0  0  0  0  0  0
   10.0802    0.6786   -1.2448 C   0  0  0  0  0  0  0  0  0  0  0  0
   10.6012    0.0006   -2.1715 O   0  0  0  0  0  0  0  0  0  0  0  0
   10.4977    2.0375   -1.0677 N   0  0  0  0  0  0  0  0  0  0  0  0
   11.3549    2.4652    0.0456 C   0  0  2  0  0  0  0  0  0  0  0  0
   10.7393    2.1893    1.4223 C   0  0  0  0  0  0  0  0  0  0  0  0
   11.7057    3.9325   -0.0800 C   0  0  0  0  0  0  0  0  0  0  0  0
   12.9131    4.2492   -0.2657 O   0  0  0  0  0  0  0  0  0  0  0  0
   10.7341    4.9850    0.0632 N   0  0  0  0  0  0  0  0  0  0  0  0
    9.3173    4.8799   -0.3037 C   0  0  2  0  0  0  0  0  0  0  0  0
    9.1181    5.4210   -1.7227 C   0  0  0  0  0  0  0  0  0  0  0  0
    8.4738    5.6092    0.7049 C   0  0  0  0  0  0  0  0  0  0  0  0
    8.2578    5.0841    1.8320 O   0  0  0  0  0  0  0  0  0  0  0  0
    7.9480    6.9072    0.4257 N   0  0  0  0  0  0  0  0  0  0  0  0
    6.5112    7.1211    0.2464 C   0  0  2  0  0  0  0  0  0  0  0  0
    6.2838    8.1184   -0.8870 C   0  0  0  0  0  0  0  0  0  0  0  0
    5.9089    7.6220    1.5346 C   0  0  0  0  0  0  0  0  0  0  0  0
    6.4488    8.6052    2.1105 O   0  0  0  0  0  0  0  0  0  0  0  0
    4.7793    6.9922    2.1694 N   0  0  0  0  0  0  0  0  0  0  0  0
    3.5724    6.4858    1.4930 C   0  0  2  0  0  0  0  0  0  0  0  0
    3.7954    5.0680    0.9380 C   0  0  0  0  0  0  0  0  0  0  0  0
    3.0570    7.4720    0.4698 C   0  0  0  0  0  0  0  0  0  0  0  0
    3.1230    8.7069    0.7173 O   0  0  0  0  0  0  0  0  0  0  0  0
    2.4701    7.0471   -0.7654 N   0  0  0  0  0  0  0  0  0  0  0  0
    1.1635    6.3791   -0.7996 C   0  0  1  0  0  0  0  0  0  0  0  0
    0.0970    7.4275   -0.9946 C   0  0  0  0  0  0  0  0  0  0  0  0
   -0.3113    8.2407    0.1049 N   0  0  0  0  0  0  0  0  0  0  0  0
   -0.4154    7.6234   -2.1310 O   0  0  0  0  0  0  0  0  0  0  0  0
    1.1806    5.2878   -1.8972 C   0  0  0  0  0  0  0  0  0  0  0  0
   -0.4625    4.5801   -2.3154 S   0  0  0  0  0  0  0  0  0  0  0  0
   -0.8869    3.8874   -0.6834 C   0  0  0  0  0  0  0  0  0  0  0  0
  -10.6615    6.4237    3.9949 H   0  0  0  0  0  0  0  0  0  0  0  0
  -11.8552    5.5563    2.9544 H   0  0  0  0  0  0  0  0  0  0  0  0
  -10.9167    4.6417    4.1937 H   0  0  0  0  0  0  0  0  0  0  0  0
  -11.0233    5.4651    0.7444 H   0  0  0  0  0  0  0  0  0  0  0  0
   -9.6898    4.7099   -0.9342 H   0  0  0  0  0  0  0  0  0  0  0  0
   -8.0255    6.4334    0.5045 H   0  0  0  0  0  0  0  0  0  0  0  0
   -7.7692    5.8412   -1.1315 H   0  0  0  0  0  0  0  0  0  0  0  0
   -5.8049    4.7109   -1.8942 H   0  0  0  0  0  0  0  0  0  0  0  0
   -6.7435    3.2732   -1.3943 H   0  0  0  0  0  0  0  0  0  0  0  0
   -3.3922    4.9296   -0.7912 H   0  0  0  0  0  0  0  0  0  0  0  0
   -1.2806    1.1811   -0.8546 H   0  0  0  0  0  0  0  0  0  0  0  0
   -5.5731    1.2440   -1.1567 H   0  0  0  0  0  0  0  0  0  0  0  0
   -4.3827   -0.7992   -1.5518 H   0  0  0  0  0  0  0  0  0  0  0  0
   -2.5938   -0.8545   -1.6090 H   0  0  0  0  0  0  0  0  0  0  0  0
   -3.9908   -3.1089   -0.5453 H   0  0  0  0  0  0  0  0  0  0  0  0
   -5.4068   -2.2962    0.2298 H   0  0  0  0  0  0  0  0  0  0  0  0
   -4.5114   -2.9413    2.4831 H   0  0  0  0  0  0  0  0  0  0  0  0
   -5.5213   -5.0748    2.4284 H   0  0  0  0  0  0  0  0  0  0  0  0
   -7.2051   -3.7144    0.2048 H   0  0  0  0  0  0  0  0  0  0  0  0
   -7.8281   -4.0891   -2.1831 H   0  0  0  0  0  0  0  0  0  0  0  0
   -6.0598   -3.8016   -2.0041 H   0  0  0  0  0  0  0  0  0  0  0  0
   -6.6835   -5.4784   -2.2733 H   0  0  0  0  0  0  0  0  0  0  0  0
   -7.9454   -6.6313   -0.1510 H   0  0  0  0  0  0  0  0  0  0  0  0
  -10.6538   -5.3961    1.6937 H   0  0  0  0  0  0  0  0  0  0  0  0
   -9.8456   -3.5320    3.0425 H   0  0  0  0  0  0  0  0  0  0  0  0
   -8.7313   -2.9933    1.7493 H   0  0  0  0  0  0  0  0  0  0  0  0
   -8.4916   -4.6011    2.5339 H   0  0  0  0  0  0  0  0  0  0  0  0
  -12.2239   -3.9102    0.9988 H   0  0  0  0  0  0  0  0  0  0  0  0
   -9.0513   -2.7171   -0.5414 H   0  0  0  0  0  0  0  0  0  0  0  0
  -10.7063   -0.8827   -2.3267 H   0  0  0  0  0  0  0  0  0  0  0  0
  -10.0575   -2.5139   -2.6882 H   0  0  0  0  0  0  0  0  0  0  0  0
   -8.9222   -1.1383   -2.4365 H   0  0  0  0  0  0  0  0  0  0  0  0
   -8.3722   -0.8497    0.5882 H   0  0  0  0  0  0  0  0  0  0  0  0
  -11.1020    0.8978   -1.1274 H   0  0  0  0  0  0  0  0  0  0  0  0
  -12.6709    1.5493    0.6075 H   0  0  0  0  0  0  0  0  0  0  0  0
  -12.0921    3.0068   -0.2792 H   0  0  0  0  0  0  0  0  0  0  0  0
  -11.4547    2.6425    1.3743 H   0  0  0  0  0  0  0  0  0  0  0  0
   -8.9273    1.8412   -1.4057 H   0  0  0  0  0  0  0  0  0  0  0  0
   -2.9005   -5.6282    0.3192 H   0  0  0  0  0  0  0  0  0  0  0  0
   -0.4085   -3.9453    0.7136 H   0  0  0  0  0  0  0  0  0  0  0  0
   -0.0095   -4.2546   -1.6187 H   0  0  0  0  0  0  0  0  0  0  0  0
   -1.7625   -4.0002   -1.5061 H   0  0  0  0  0  0  0  0  0  0  0  0
   -1.1449   -5.6780   -1.7161 H   0  0  0  0  0  0  0  0  0  0  0  0
    0.4909   -7.9889    0.1644 H   0  0  0  0  0  0  0  0  0  0  0  0
    1.6815   -5.5010   -1.1214 H   0  0  0  0  0  0  0  0  0  0  0  0
    2.5353   -7.0737   -2.8635 H   0  0  0  0  0  0  0  0  0  0  0  0
    1.6169   -8.4269   -2.0811 H   0  0  0  0  0  0  0  0  0  0  0  0
    0.7371   -7.0354   -2.7919 H   0  0  0  0  0  0  0  0  0  0  0  0
    3.4580   -8.8413   -0.6713 H   0  0  0  0  0  0  0  0  0  0  0  0
    5.5190   -6.5921   -0.6864 H   0  0  0  0  0  0  0  0  0  0  0  0
    5.3147   -9.2049   -2.3128 H   0  0  0  0  0  0  0  0  0  0  0  0
    6.6841   -8.0349   -2.3917 H   0  0  0  0  0  0  0  0  0  0  0  0
    5.0333   -7.5209   -2.8966 H   0  0  0  0  0  0  0  0  0  0  0  0
    8.1061   -8.6548    1.0443 H   0  0  0  0  0  0  0  0  0  0  0  0
    8.6138   -6.5552    1.7447 H   0  0  0  0  0  0  0  0  0  0  0  0
    5.6754   -5.7283    1.4707 H   0  0  0  0  0  0  0  0  0  0  0  0
    6.9201   -5.1035    2.5941 H   0  0  0  0  0  0  0  0  0  0  0  0
    6.2849   -6.7726    2.8139 H   0  0  0  0  0  0  0  0  0  0  0  0
    7.3768   -3.6495   -0.4026 H   0  0  0  0  0  0  0  0  0  0  0  0
   10.1606   -4.3435    0.3301 H   0  0  0  0  0  0  0  0  0  0  0  0
    9.2762   -4.4191    2.5976 H   0  0  0  0  0  0  0  0  0  0  0  0
    8.4330   -2.8401    2.3919 H   0  0  0  0  0  0  0  0  0  0  0  0
   10.2482   -2.9241    2.4027 H   0  0  0  0  0  0  0  0  0  0  0  0
    9.3910   -0.9479    1.3786 H   0  0  0  0  0  0  0  0  0  0  0  0
    8.6022    0.8899    0.2831 H   0  0  0  0  0  0  0  0  0  0  0  0
    6.9129   -0.6418   -0.6880 H   0  0  0  0  0  0  0  0  0  0  0  0
    7.3387    0.7371   -1.7692 H   0  0  0  0  0  0  0  0  0  0  0  0
    7.9762   -0.9106   -2.1249 H   0  0  0  0  0  0  0  0  0  0  0  0
   10.5502    2.6031   -1.9449 H   0  0  0  0  0  0  0  0  0  0  0  0
   12.3017    1.8790   -0.0144 H   0  0  0  0  0  0  0  0  0  0  0  0
    9.7162    2.6102    1.5073 H   0  0  0  0  0  0  0  0  0  0  0  0
   10.6987    1.0974    1.6056 H   0  0  0  0  0  0  0  0  0  0  0  0
   11.3721    2.6347    2.2183 H   0  0  0  0  0  0  0  0  0  0  0  0
   11.1090    5.9521    0.2057 H   0  0  0  0  0  0  0  0  0  0  0  0
    8.9777    3.8262   -0.3050 H   0  0  0  0  0  0  0  0  0  0  0  0
    8.0468    5.3416   -2.0150 H   0  0  0  0  0  0  0  0  0  0  0  0
    9.4374    6.4846   -1.7910 H   0  0  0  0  0  0  0  0  0  0  0  0
    9.7197    4.8299   -2.4484 H   0  0  0  0  0  0  0  0  0  0  0  0
    8.6157    7.7034    0.3029 H   0  0  0  0  0  0  0  0  0  0  0  0
    6.0513    6.1618   -0.0489 H   0  0  0  0  0  0  0  0  0  0  0  0
    5.2022    8.2881   -1.0504 H   0  0  0  0  0  0  0  0  0  0  0  0
    6.7678    9.0909   -0.6579 H   0  0  0  0  0  0  0  0  0  0  0  0
    6.7131    7.7197   -1.8284 H   0  0  0  0  0  0  0  0  0  0  0  0
    4.7002    7.1297    3.2038 H   0  0  0  0  0  0  0  0  0  0  0  0
    2.7753    6.3995    2.2621 H   0  0  0  0  0  0  0  0  0  0  0  0
    4.5311    4.5193    1.5649 H   0  0  0  0  0  0  0  0  0  0  0  0
    2.8431    4.4987    0.9556 H   0  0  0  0  0  0  0  0  0  0  0  0
    4.1564    5.0827   -0.1110 H   0  0  0  0  0  0  0  0  0  0  0  0
    2.7698    7.5539   -1.6289 H   0  0  0  0  0  0  0  0  0  0  0  0
    0.9848    5.8755    0.1749 H   0  0  0  0  0  0  0  0  0  0  0  0
   -1.0105    9.0020   -0.0350 H   0  0  0  0  0  0  0  0  0  0  0  0
    0.1092    8.1024    1.0532 H   0  0  0  0  0  0  0  0  0  0  0  0
    1.8639    4.4667   -1.5894 H   0  0  0  0  0  0  0  0  0  0  0  0
    1.5893    5.7290   -2.8306 H   0  0  0  0  0  0  0  0  0  0  0  0
   -0.0715    3.2204   -0.3329 H   0  0  0  0  0  0  0  0  0  0  0  0
   -1.0056    4.7070    0.0534 H   0  0  0  0  0  0  0  0  0  0  0  0
  1  2  1  0
  2  3  2  0
  2  4  1  0
  4  5  1  0
  5  6  1  0
  6  7  1  0
  7  8  1  0
  8  9  1  0
  9 10  2  0
 10 11  1  0
 11 12  2  0
 12 13  1  0
 13 14  2  0
 13 15  1  0
 15 16  1  0
 16 17  1  0
 17 18  1  0
 18 19  1  0
 19 20  1  0
 20 21  2  0
 20 22  1  0
 22 23  1  0
 22 24  1  0
 24 25  1  0
 25 26  2  0
 25 27  1  0
 27 28  1  0
 27 29  1  0
 29 30  1  0
 30 31  2  0
 30 32  1  0
 32 33  1  0
 32 34  1  0
 34 35  1  0
 35 36  2  0
 35 37  1  0
 37 38  1  0
 37 39  1  0
 39 40  1  0
 40 41  2  0
 18 42  1  0
 42 43  2  0
 42 44  1  0
 44 45  1  0
 45 46  1  0
 45 47  1  0
 47 48  2  0
 47 49  1  0
 49 50  1  0
 50 51  1  0
 50 52  1  0
 52 53  2  0
 52 54  1  0
 54 55  1  0
 55 56  1  0
 55 57  1  0
 57 58  2  0
 57 59  1  0
 59 60  1  0
 60 61  1  0
 60 62  1  0
 62 63  2  0
 62 64  1  0
 64 65  1  0
 65 66  1  0
 65 67  1  0
 67 68  2  0
 67 69  1  0
 69 70  1  0
 70 71  1  0
 70 72  1  0
 72 73  2  0
 72 74  1  0
 74 75  1  0
 75 76  1  0
 75 77  1  0
 77 78  2  0
 77 79  1  0
 79 80  1  0
 80 81  1  0
 80 82  1  0
 82 83  2  0
 82 84  1  0
 84 85  1  0
 85 86  1  0
 85 87  1  0
 87 88  2  0
 87 89  1  0
 89 90  1  0
 90 91  1  0
 90 92  1  0
 92 93  2  0
 92 94  1  0
 94 95  1  0
 95 96  1  0
 96 97  1  0
 96 98  2  0
 95 99  1  0
 99100  1  0
100101  1  0
 40  5  1  0
 14  9  1  0
101 11  1  0
  1102  1  0
  1103  1  0
  1104  1  0
  4105  1  0
  5106  1  6
  6107  1  0
  6108  1  0
  8109  1  0
  8110  1  0
 10111  1  0
 12112  1  0
 14113  1  0
 15114  1  0
 15115  1  0
 17116  1  0
 17117  1  0
 18118  1  1
 19119  1  0
 22120  1  1
 23121  1  0
 23122  1  0
 23123  1  0
 24124  1  0
 27125  1  1
 28126  1  0
 28127  1  0
 28128  1  0
 29129  1  0
 32130  1  6
 33131  1  0
 33132  1  0
 33133  1  0
 34134  1  0
 37135  1  6
 38136  1  0
 38137  1  0
 38138  1  0
 39139  1  0
 44140  1  0
 45141  1  1
 46142  1  0
 46143  1  0
 46144  1  0
 49145  1  0
 50146  1  6
 51147  1  0
 51148  1  0
 51149  1  0
 54150  1  0
 55151  1  6
 56152  1  0
 56153  1  0
 56154  1  0
 59155  1  0
 60156  1  1
 61157  1  0
 61158  1  0
 61159  1  0
 64160  1  0
 65161  1  1
 66162  1  0
 66163  1  0
 66164  1  0
 69165  1  0
 70166  1  1
 71167  1  0
 71168  1  0
 71169  1  0
 74170  1  0
 75171  1  1
 76172  1  0
 76173  1  0
 76174  1  0
 79175  1  0
 80176  1  6
 81177  1  0
 81178  1  0
 81179  1  0
 84180  1  0
 85181  1  6
 86182  1  0
 86183  1  0
 86184  1  0
 89185  1  0
 90186  1  1
 91187  1  0
 91188  1  0
 91189  1  0
 94190  1  0
 95191  1  1
 97192  1  0
 97193  1  0
 99194  1  0
 99195  1  0
101196  1  0
101197  1  0
M  END
