
     RDKit          3D

127129  0  0  0  0  0  0  0  0999 V2000
   -7.2670    7.6741   -1.4014 C   0  0  0  0  0  0  0  0  0  0  0  0
   -6.2002    6.6506   -1.6069 C   0  0  0  0  0  0  0  0  0  0  0  0
   -5.7229    6.4753   -2.7619 O   0  0  0  0  0  0  0  0  0  0  0  0
   -5.7359    5.8784   -0.4934 N   0  0  0  0  0  0  0  0  0  0  0  0
   -4.9897    4.6286   -0.6590 C   0  0  1  0  0  0  0  0  0  0  0  0
   -3.7970    4.5955    0.3169 C   0  0  0  0  0  0  0  0  0  0  0  0
   -2.5862    5.9179   -0.0639 S   0  0  0  0  0  0  0  0  0  0  0  0
   -1.5343    4.9413   -1.2036 C   0  0  0  0  0  0  0  0  0  0  0  0
   -0.6595    3.9834   -0.4291 C   0  0  0  0  0  0  0  0  0  0  0  0
    0.3850    4.4693    0.3753 C   0  0  0  0  0  0  0  0  0  0  0  0
    1.2049    3.5820    1.1026 C   0  0  0  0  0  0  0  0  0  0  0  0
    0.9026    2.2097    1.0892 C   0  0  0  0  0  0  0  0  0  0  0  0
   -0.1301    1.7139    0.2811 C   0  0  0  0  0  0  0  0  0  0  0  0
   -0.8917    2.6043   -0.4917 C   0  0  0  0  0  0  0  0  0  0  0  0
   -0.3730    0.2362    0.1948 C   0  0  0  0  0  0  0  0  0  0  0  0
    0.7618   -0.4834   -1.0379 S   0  0  0  0  0  0  0  0  0  0  0  0
    1.7015   -1.5950    0.0719 C   0  0  0  0  0  0  0  0  0  0  0  0
    1.2963   -3.0586   -0.1703 C   0  0  2  0  0  0  0  0  0  0  0  0
   -0.1073   -3.2785    0.1976 N   0  0  0  0  0  0  0  0  0  0  0  0
   -1.0335   -3.8313   -0.7464 C   0  0  0  0  0  0  0  0  0  0  0  0
   -1.1446   -3.2980   -1.8869 O   0  0  0  0  0  0  0  0  0  0  0  0
   -1.7713   -5.1134   -0.4548 C   0  0  1  0  0  0  0  0  0  0  0  0
   -0.9028   -6.3056   -0.8636 C   0  0  0  0  0  0  0  0  0  0  0  0
   -2.1199   -5.2161    0.9710 N   0  0  0  0  0  0  0  0  0  0  0  0
   -3.4499   -5.1674    1.5223 C   0  0  0  0  0  0  0  0  0  0  0  0
   -3.5778   -5.2305    2.7738 O   0  0  0  0  0  0  0  0  0  0  0  0
   -4.6900   -5.0949    0.6584 C   0  0  1  0  0  0  0  0  0  0  0  0
   -4.9902   -6.4689    0.0419 C   0  0  0  0  0  0  0  0  0  0  0  0
   -5.8442   -4.6784    1.4655 N   0  0  0  0  0  0  0  0  0  0  0  0
   -6.7174   -3.5748    1.1595 C   0  0  0  0  0  0  0  0  0  0  0  0
   -7.9135   -3.6192    1.5590 O   0  0  0  0  0  0  0  0  0  0  0  0
   -6.2371   -2.3656    0.3914 C   0  0  1  0  0  0  0  0  0  0  0  0
   -6.7161   -2.4370   -1.0618 C   0  0  0  0  0  0  0  0  0  0  0  0
   -6.7658   -1.1374    1.0090 N   0  0  0  0  0  0  0  0  0  0  0  0
   -6.0155    0.0830    0.9978 C   0  0  0  0  0  0  0  0  0  0  0  0
   -4.7622    0.0443    1.1420 O   0  0  0  0  0  0  0  0  0  0  0  0
   -6.7312    1.4004    0.8057 C   0  0  1  0  0  0  0  0  0  0  0  0
   -7.5692    1.7553    2.0388 C   0  0  0  0  0  0  0  0  0  0  0  0
   -5.7626    2.4774    0.5679 N   0  0  0  0  0  0  0  0  0  0  0  0
   -5.9461    3.4654   -0.4727 C   0  0  0  0  0  0  0  0  0  0  0  0
   -6.9429    3.3865   -1.2293 O   0  0  0  0  0  0  0  0  0  0  0  0
    2.2011   -3.9886    0.6134 C   0  0  0  0  0  0  0  0  0  0  0  0
    1.7911   -4.4735    1.7041 O   0  0  0  0  0  0  0  0  0  0  0  0
    3.5356   -4.3035    0.1754 N   0  0  0  0  0  0  0  0  0  0  0  0
    4.0293   -4.0947   -1.1920 C   0  0  2  0  0  0  0  0  0  0  0  0
    3.6163   -5.2740   -2.0790 C   0  0  0  0  0  0  0  0  0  0  0  0
    5.5235   -3.8831   -1.1563 C   0  0  0  0  0  0  0  0  0  0  0  0
    6.2989   -4.7231   -1.6768 O   0  0  0  0  0  0  0  0  0  0  0  0
    6.0559   -2.7610   -0.4253 N   0  0  0  0  0  0  0  0  0  0  0  0
    7.4552   -2.3293   -0.5477 C   0  0  2  0  0  0  0  0  0  0  0  0
    8.3887   -3.3634    0.1114 C   0  0  0  0  0  0  0  0  0  0  0  0
    7.6495   -0.9438    0.0423 C   0  0  0  0  0  0  0  0  0  0  0  0
    8.5776   -0.7333    0.8702 O   0  0  0  0  0  0  0  0  0  0  0  0
    6.8000    0.1451   -0.3666 N   0  0  0  0  0  0  0  0  0  0  0  0
    7.2369    1.5461   -0.4805 C   0  0  2  0  0  0  0  0  0  0  0  0
    8.5883    1.6590   -1.1885 C   0  0  0  0  0  0  0  0  0  0  0  0
    7.2816    2.2260    0.8790 C   0  0  0  0  0  0  0  0  0  0  0  0
    7.8888    1.6582    1.8232 O   0  0  0  0  0  0  0  0  0  0  0  0
    6.7275    3.5331    1.1322 N   0  0  0  0  0  0  0  0  0  0  0  0
    5.7122    4.2507    0.3449 C   0  0  1  0  0  0  0  0  0  0  0  0
    6.2577    4.6384   -1.0110 C   0  0  0  0  0  0  0  0  0  0  0  0
    7.4408    5.4313   -1.0993 N   0  0  0  0  0  0  0  0  0  0  0  0
    5.6680    4.2851   -2.0703 O   0  0  0  0  0  0  0  0  0  0  0  0
    4.3806    3.4778    0.2911 C   0  0  0  0  0  0  0  0  0  0  0  0
    3.7968    3.0745    1.9902 S   0  0  0  0  0  0  0  0  0  0  0  0
    2.3014    4.1301    1.9872 C   0  0  0  0  0  0  0  0  0  0  0  0
   -7.4677    8.2353   -2.3406 H   0  0  0  0  0  0  0  0  0  0  0  0
   -6.9573    8.3937   -0.6151 H   0  0  0  0  0  0  0  0  0  0  0  0
   -8.1990    7.1689   -1.0777 H   0  0  0  0  0  0  0  0  0  0  0  0
   -6.1053    6.1196    0.4556 H   0  0  0  0  0  0  0  0  0  0  0  0
   -4.5850    4.5540   -1.6891 H   0  0  0  0  0  0  0  0  0  0  0  0
   -3.3026    3.6030    0.2732 H   0  0  0  0  0  0  0  0  0  0  0  0
   -4.1582    4.7672    1.3559 H   0  0  0  0  0  0  0  0  0  0  0  0
   -2.1718    4.4030   -1.9385 H   0  0  0  0  0  0  0  0  0  0  0  0
   -0.8909    5.6432   -1.7772 H   0  0  0  0  0  0  0  0  0  0  0  0
    0.5510    5.5403    0.4494 H   0  0  0  0  0  0  0  0  0  0  0  0
    1.4938    1.5192    1.6778 H   0  0  0  0  0  0  0  0  0  0  0  0
   -1.6657    2.2165   -1.1423 H   0  0  0  0  0  0  0  0  0  0  0  0
   -0.2640   -0.2262    1.1985 H   0  0  0  0  0  0  0  0  0  0  0  0
   -1.4154    0.0394   -0.1372 H   0  0  0  0  0  0  0  0  0  0  0  0
    1.6040   -1.3278    1.1468 H   0  0  0  0  0  0  0  0  0  0  0  0
    2.7774   -1.4747   -0.1952 H   0  0  0  0  0  0  0  0  0  0  0  0
    1.4146   -3.2886   -1.2516 H   0  0  0  0  0  0  0  0  0  0  0  0
   -0.3924   -3.2116    1.2000 H   0  0  0  0  0  0  0  0  0  0  0  0
   -2.6787   -5.1361   -1.0928 H   0  0  0  0  0  0  0  0  0  0  0  0
   -0.6698   -6.2542   -1.9505 H   0  0  0  0  0  0  0  0  0  0  0  0
    0.0501   -6.3052   -0.2934 H   0  0  0  0  0  0  0  0  0  0  0  0
   -1.4401   -7.2577   -0.6613 H   0  0  0  0  0  0  0  0  0  0  0  0
   -1.3371   -5.3557    1.6413 H   0  0  0  0  0  0  0  0  0  0  0  0
   -4.5231   -4.3757   -0.1663 H   0  0  0  0  0  0  0  0  0  0  0  0
   -4.0848   -6.9216   -0.4104 H   0  0  0  0  0  0  0  0  0  0  0  0
   -5.7664   -6.3568   -0.7460 H   0  0  0  0  0  0  0  0  0  0  0  0
   -5.3767   -7.1580    0.8189 H   0  0  0  0  0  0  0  0  0  0  0  0
   -6.1476   -5.3128    2.2418 H   0  0  0  0  0  0  0  0  0  0  0  0
   -5.1279   -2.3368    0.4095 H   0  0  0  0  0  0  0  0  0  0  0  0
   -6.2457   -1.6184   -1.6427 H   0  0  0  0  0  0  0  0  0  0  0  0
   -6.4307   -3.4082   -1.5269 H   0  0  0  0  0  0  0  0  0  0  0  0
   -7.8248   -2.3312   -1.1185 H   0  0  0  0  0  0  0  0  0  0  0  0
   -7.8019   -1.0802    1.1670 H   0  0  0  0  0  0  0  0  0  0  0  0
   -7.4147    1.2863   -0.0592 H   0  0  0  0  0  0  0  0  0  0  0  0
   -6.9210    1.8452    2.9373 H   0  0  0  0  0  0  0  0  0  0  0  0
   -8.0822    2.7298    1.8635 H   0  0  0  0  0  0  0  0  0  0  0  0
   -8.3490    0.9825    2.2226 H   0  0  0  0  0  0  0  0  0  0  0  0
   -5.0923    2.6626    1.3440 H   0  0  0  0  0  0  0  0  0  0  0  0
    4.1061   -4.9190    0.7993 H   0  0  0  0  0  0  0  0  0  0  0  0
    3.6060   -3.1594   -1.6239 H   0  0  0  0  0  0  0  0  0  0  0  0
    3.9708   -5.1146   -3.1195 H   0  0  0  0  0  0  0  0  0  0  0  0
    4.0412   -6.2187   -1.6757 H   0  0  0  0  0  0  0  0  0  0  0  0
    2.5081   -5.3617   -2.0956 H   0  0  0  0  0  0  0  0  0  0  0  0
    5.3960   -2.2079    0.1688 H   0  0  0  0  0  0  0  0  0  0  0  0
    7.7095   -2.2660   -1.6283 H   0  0  0  0  0  0  0  0  0  0  0  0
    8.0829   -3.5358    1.1708 H   0  0  0  0  0  0  0  0  0  0  0  0
    8.3583   -4.3349   -0.4195 H   0  0  0  0  0  0  0  0  0  0  0  0
    9.4423   -3.0136    0.0849 H   0  0  0  0  0  0  0  0  0  0  0  0
    5.8138   -0.0655   -0.6686 H   0  0  0  0  0  0  0  0  0  0  0  0
    6.5099    2.0637   -1.1270 H   0  0  0  0  0  0  0  0  0  0  0  0
    8.5525    1.1269   -2.1619 H   0  0  0  0  0  0  0  0  0  0  0  0
    8.8231    2.7245   -1.3829 H   0  0  0  0  0  0  0  0  0  0  0  0
    9.4095    1.2251   -0.5774 H   0  0  0  0  0  0  0  0  0  0  0  0
    7.0176    3.9959    2.0278 H   0  0  0  0  0  0  0  0  0  0  0  0
    5.4912    5.2064    0.8644 H   0  0  0  0  0  0  0  0  0  0  0  0
    7.8402    5.6811   -2.0343 H   0  0  0  0  0  0  0  0  0  0  0  0
    7.8667    5.8392   -0.2423 H   0  0  0  0  0  0  0  0  0  0  0  0
    4.4844    2.5187   -0.2659 H   0  0  0  0  0  0  0  0  0  0  0  0
    3.6204    4.0886   -0.2483 H   0  0  0  0  0  0  0  0  0  0  0  0
    1.9068    4.1994    3.0179 H   0  0  0  0  0  0  0  0  0  0  0  0
    2.5847    5.1526    1.6691 H   0  0  0  0  0  0  0  0  0  0  0  0
  1  2  1  0
  2  3  2  0
  2  4  1  0
  4  5  1  0
  5  6  1  0
  6  7  1  0
  7  8  1  0
  8  9  1  0
  9 10  2  0
 10 11  1  0
 11 12  2  0
 12 13  1  0
 13 14  2  0
 13 15  1  0
 15 16  1  0
 16 17  1  0
 17 18  1  0
 18 19  1  0
 19 20  1  0
 20 21  2  0
 20 22  1  0
 22 23  1  0
 22 24  1  0
 24 25  1  0
 25 26  2  0
 25 27  1  0
 27 28  1  0
 27 29  1  0
 29 30  1  0
 30 31  2  0
 30 32  1  0
 32 33  1  0
 32 34  1  0
 34 35  1  0
 35 36  2  0
 35 37  1  0
 37 38  1  0
 37 39  1  0
 39 40  1  0
 40 41  2  0
 18 42  1  0
 42 43  2  0
 42 44  1  0
 44 45  1  0
 45 46  1  0
 45 47  1  0
 47 48  2  0
 47 49  1  0
 49 50  1  0
 50 51  1  0
 50 52  1  0
 52 53  2  0
 52 54  1  0
 54 55  1  0
 55 56  1  0
 55 57  1  0
 57 58  2  0
 57 59  1  0
 59 60  1  0
 60 61  1  0
 61 62  1  0
 61 63  2  0
 60 64  1  0
 64 65  1  0
 65 66  1  0
 40  5  1  0
 14  9  1  0
 66 11  1  0
  1 67  1  0
  1 68  1  0
  1 69  1  0
  4 70  1  0
  5 71  1  6
  6 72  1  0
  6 73  1  0
  8 74  1  0
  8 75  1  0
 10 76  1  0
 12 77  1  0
 14 78  1  0
 15 79  1  0
 15 80  1  0
 17 81  1  0
 17 82  1  0
 18 83  1  6
 19 84  1  0
 22 85  1  6
 23 86  1  0
 23 87  1  0
 23 88  1  0
 24 89  1  0
 27 90  1  6
 28 91  1  0
 28 92  1  0
 28 93  1  0
 29 94  1  0
 32 95  1  6
 33 96  1  0
 33 97  1  0
 33 98  1  0
 34 99  1  0
 37100  1  6
 38101  1  0
 38102  1  0
 38103  1  0
 39104  1  0
 44105  1  0
 45106  1  6
 46107  1  0
 46108  1  0
 46109  1  0
 49110  1  0
 50111  1  6
 51112  1  0
 51113  1  0
 51114  1  0
 54115  1  0
 55116  1  6
 56117  1  0
 56118  1  0
 56119  1  0
 59120  1  0
 60121  1  1
 62122  1  0
 62123  1  0
 64124  1  0
 64125  1  0
 66126  1  0
 66127  1  0
M  END
