
     RDKit          3D

137139  0  0  0  0  0  0  0  0999 V2000
   -6.7943    7.4947   -0.1639 C   0  0  0  0  0  0  0  0  0  0  0  0
   -6.9504    6.5311   -1.3028 C   0  0  0  0  0  0  0  0  0  0  0  0
   -7.3899    6.9607   -2.4025 O   0  0  0  0  0  0  0  0  0  0  0  0
   -6.5836    5.1458   -1.1886 N   0  0  0  0  0  0  0  0  0  0  0  0
   -5.9724    4.5485    0.0021 C   0  0  2  0  0  0  0  0  0  0  0  0
   -4.6517    3.8540   -0.3561 C   0  0  0  0  0  0  0  0  0  0  0  0
   -3.4005    5.1008   -0.8602 S   0  0  0  0  0  0  0  0  0  0  0  0
   -2.3369    5.0103    0.6262 C   0  0  0  0  0  0  0  0  0  0  0  0
   -1.2226    4.0241    0.3864 C   0  0  0  0  0  0  0  0  0  0  0  0
   -0.0045    4.4459   -0.1752 C   0  0  0  0  0  0  0  0  0  0  0  0
    1.0238    3.5246   -0.4224 C   0  0  0  0  0  0  0  0  0  0  0  0
    0.8215    2.1676   -0.1167 C   0  0  0  0  0  0  0  0  0  0  0  0
   -0.4045    1.7238    0.4164 C   0  0  0  0  0  0  0  0  0  0  0  0
   -1.4055    2.6669    0.6986 C   0  0  0  0  0  0  0  0  0  0  0  0
   -0.6262    0.2814    0.7919 C   0  0  0  0  0  0  0  0  0  0  0  0
    0.0405   -0.8619   -0.4844 S   0  0  0  0  0  0  0  0  0  0  0  0
    0.9910   -1.9633    0.6308 C   0  0  0  0  0  0  0  0  0  0  0  0
    0.4655   -3.4099    0.5634 C   0  0  2  0  0  0  0  0  0  0  0  0
   -0.9158   -3.4702    1.0688 N   0  0  0  0  0  0  0  0  0  0  0  0
   -1.7102   -4.6680    1.0676 C   0  0  0  0  0  0  0  0  0  0  0  0
   -2.6021   -4.7942    1.9443 O   0  0  0  0  0  0  0  0  0  0  0  0
   -1.5487   -5.7244   -0.0022 C   0  0  1  0  0  0  0  0  0  0  0  0
   -1.9845   -7.1221    0.4658 C   0  0  0  0  0  0  0  0  0  0  0  0
   -2.2311   -5.3298   -1.2443 N   0  0  0  0  0  0  0  0  0  0  0  0
   -3.6386   -5.5045   -1.5025 C   0  0  0  0  0  0  0  0  0  0  0  0
   -3.9943   -6.3780   -2.3401 O   0  0  0  0  0  0  0  0  0  0  0  0
   -4.7123   -4.6432   -0.8597 C   0  0  1  0  0  0  0  0  0  0  0  0
   -5.4125   -5.4267    0.2646 C   0  0  0  0  0  0  0  0  0  0  0  0
   -4.1667   -3.3609   -0.3824 N   0  0  0  0  0  0  0  0  0  0  0  0
   -4.9042   -2.3730    0.3521 C   0  0  0  0  0  0  0  0  0  0  0  0
   -4.2892   -1.6788    1.2052 O   0  0  0  0  0  0  0  0  0  0  0  0
   -6.3612   -2.0785    0.0636 C   0  0  1  0  0  0  0  0  0  0  0  0
   -7.1366   -1.7648    1.3524 C   0  0  0  0  0  0  0  0  0  0  0  0
   -6.5002   -0.9816   -0.8988 N   0  0  0  0  0  0  0  0  0  0  0  0
   -6.0754    0.3633   -0.6295 C   0  0  0  0  0  0  0  0  0  0  0  0
   -4.8852    0.5819   -0.2873 O   0  0  0  0  0  0  0  0  0  0  0  0
   -7.0286    1.5363   -0.7312 C   0  0  1  0  0  0  0  0  0  0  0  0
   -8.4571    1.1163   -1.0922 C   0  0  0  0  0  0  0  0  0  0  0  0
   -7.0412    2.2358    0.5551 N   0  0  0  0  0  0  0  0  0  0  0  0
   -6.9731    3.6632    0.7153 C   0  0  0  0  0  0  0  0  0  0  0  0
   -7.7619    4.2076    1.5335 O   0  0  0  0  0  0  0  0  0  0  0  0
    1.3548   -4.2979    1.4069 C   0  0  0  0  0  0  0  0  0  0  0  0
    1.1681   -4.3270    2.6543 O   0  0  0  0  0  0  0  0  0  0  0  0
    2.4156   -5.0968    0.8572 N   0  0  0  0  0  0  0  0  0  0  0  0
    2.7623   -5.1828   -0.5681 C   0  0  2  0  0  0  0  0  0  0  0  0
    3.6777   -6.3855   -0.8425 C   0  0  0  0  0  0  0  0  0  0  0  0
    3.3947   -3.9043   -1.0709 C   0  0  0  0  0  0  0  0  0  0  0  0
    2.7944   -3.2498   -1.9699 O   0  0  0  0  0  0  0  0  0  0  0  0
    4.7019   -3.4646   -0.6635 N   0  0  0  0  0  0  0  0  0  0  0  0
    5.2406   -3.5486    0.7014 C   0  0  2  0  0  0  0  0  0  0  0  0
    4.5948   -2.5105    1.6349 C   0  0  0  0  0  0  0  0  0  0  0  0
    6.7513   -3.4270    0.6917 C   0  0  0  0  0  0  0  0  0  0  0  0
    7.4261   -4.4673    0.9190 O   0  0  0  0  0  0  0  0  0  0  0  0
    7.4512   -2.1826    0.5113 N   0  0  0  0  0  0  0  0  0  0  0  0
    6.9657   -1.0402   -0.2732 C   0  0  2  0  0  0  0  0  0  0  0  0
    7.6621   -1.0102   -1.6376 C   0  0  0  0  0  0  0  0  0  0  0  0
    7.2201    0.2587    0.4506 C   0  0  0  0  0  0  0  0  0  0  0  0
    8.0097    0.2946    1.4339 O   0  0  0  0  0  0  0  0  0  0  0  0
    6.5642    1.4574    0.0017 N   0  0  0  0  0  0  0  0  0  0  0  0
    7.0647    2.8245    0.2026 C   0  0  2  0  0  0  0  0  0  0  0  0
    8.5592    2.9228   -0.1402 C   0  0  0  0  0  0  0  0  0  0  0  0
    6.7903    3.3105    1.6129 C   0  0  0  0  0  0  0  0  0  0  0  0
    7.2435    2.6300    2.5752 O   0  0  0  0  0  0  0  0  0  0  0  0
    6.1096    4.5454    1.9306 N   0  0  0  0  0  0  0  0  0  0  0  0
    5.4324    5.5132    1.0447 C   0  0  1  0  0  0  0  0  0  0  0  0
    6.2655    5.8942   -0.1639 C   0  0  0  0  0  0  0  0  0  0  0  0
    5.7396    5.8976   -1.4929 N   0  0  0  0  0  0  0  0  0  0  0  0
    7.4747    6.2183    0.0107 O   0  0  0  0  0  0  0  0  0  0  0  0
    3.9560    5.1235    0.7895 C   0  0  0  0  0  0  0  0  0  0  0  0
    3.7718    3.5260   -0.0964 S   0  0  0  0  0  0  0  0  0  0  0  0
    2.2986    3.9601   -1.0976 C   0  0  0  0  0  0  0  0  0  0  0  0
   -7.1823    8.4950   -0.4409 H   0  0  0  0  0  0  0  0  0  0  0  0
   -5.7228    7.5973    0.0988 H   0  0  0  0  0  0  0  0  0  0  0  0
   -7.3601    7.1263    0.7190 H   0  0  0  0  0  0  0  0  0  0  0  0
   -6.7913    4.5233   -2.0013 H   0  0  0  0  0  0  0  0  0  0  0  0
   -5.6954    5.3352    0.7355 H   0  0  0  0  0  0  0  0  0  0  0  0
   -4.3026    3.2428    0.5026 H   0  0  0  0  0  0  0  0  0  0  0  0
   -4.7737    3.1748   -1.2235 H   0  0  0  0  0  0  0  0  0  0  0  0
   -2.9157    4.7560    1.5415 H   0  0  0  0  0  0  0  0  0  0  0  0
   -1.9114    6.0217    0.7896 H   0  0  0  0  0  0  0  0  0  0  0  0
    0.1322    5.4927   -0.4271 H   0  0  0  0  0  0  0  0  0  0  0  0
    1.6136    1.4556   -0.3182 H   0  0  0  0  0  0  0  0  0  0  0  0
   -2.3331    2.3375    1.1499 H   0  0  0  0  0  0  0  0  0  0  0  0
   -0.1959    0.1249    1.8043 H   0  0  0  0  0  0  0  0  0  0  0  0
   -1.7156    0.0714    0.8742 H   0  0  0  0  0  0  0  0  0  0  0  0
    2.0428   -1.9362    0.2814 H   0  0  0  0  0  0  0  0  0  0  0  0
    1.0019   -1.6278    1.6876 H   0  0  0  0  0  0  0  0  0  0  0  0
    0.4674   -3.7199   -0.5005 H   0  0  0  0  0  0  0  0  0  0  0  0
   -1.3041   -2.6423    1.5845 H   0  0  0  0  0  0  0  0  0  0  0  0
   -0.4675   -5.8233   -0.2237 H   0  0  0  0  0  0  0  0  0  0  0  0
   -1.3949   -7.4242    1.3534 H   0  0  0  0  0  0  0  0  0  0  0  0
   -3.0620   -7.1563    0.7197 H   0  0  0  0  0  0  0  0  0  0  0  0
   -1.7950   -7.8558   -0.3463 H   0  0  0  0  0  0  0  0  0  0  0  0
   -1.6225   -5.2175   -2.0881 H   0  0  0  0  0  0  0  0  0  0  0  0
   -5.4743   -4.4228   -1.6433 H   0  0  0  0  0  0  0  0  0  0  0  0
   -4.7375   -5.6223    1.1157 H   0  0  0  0  0  0  0  0  0  0  0  0
   -5.7838   -6.4009   -0.1230 H   0  0  0  0  0  0  0  0  0  0  0  0
   -6.2909   -4.8743    0.6533 H   0  0  0  0  0  0  0  0  0  0  0  0
   -3.1690   -3.1163   -0.5803 H   0  0  0  0  0  0  0  0  0  0  0  0
   -6.8439   -2.9701   -0.3807 H   0  0  0  0  0  0  0  0  0  0  0  0
   -8.2051   -1.5853    1.1160 H   0  0  0  0  0  0  0  0  0  0  0  0
   -7.0694   -2.6171    2.0580 H   0  0  0  0  0  0  0  0  0  0  0  0
   -6.7291   -0.8589    1.8509 H   0  0  0  0  0  0  0  0  0  0  0  0
   -7.0505   -1.1634   -1.7729 H   0  0  0  0  0  0  0  0  0  0  0  0
   -6.6865    2.2069   -1.5451 H   0  0  0  0  0  0  0  0  0  0  0  0
   -8.8588    0.3922   -0.3563 H   0  0  0  0  0  0  0  0  0  0  0  0
   -8.4839    0.6643   -2.1069 H   0  0  0  0  0  0  0  0  0  0  0  0
   -9.1166    2.0091   -1.1054 H   0  0  0  0  0  0  0  0  0  0  0  0
   -7.3687    1.6874    1.3874 H   0  0  0  0  0  0  0  0  0  0  0  0
    2.9302   -5.7118    1.5324 H   0  0  0  0  0  0  0  0  0  0  0  0
    1.8287   -5.3749   -1.1449 H   0  0  0  0  0  0  0  0  0  0  0  0
    4.6423   -6.3017   -0.3002 H   0  0  0  0  0  0  0  0  0  0  0  0
    3.8915   -6.4582   -1.9287 H   0  0  0  0  0  0  0  0  0  0  0  0
    3.1720   -7.3208   -0.5229 H   0  0  0  0  0  0  0  0  0  0  0  0
    5.2836   -3.0220   -1.4105 H   0  0  0  0  0  0  0  0  0  0  0  0
    5.0045   -4.5457    1.1201 H   0  0  0  0  0  0  0  0  0  0  0  0
    5.2251   -2.3425    2.5330 H   0  0  0  0  0  0  0  0  0  0  0  0
    3.6108   -2.8728    1.9857 H   0  0  0  0  0  0  0  0  0  0  0  0
    4.4279   -1.5391    1.1290 H   0  0  0  0  0  0  0  0  0  0  0  0
    8.4671   -2.1823    0.7588 H   0  0  0  0  0  0  0  0  0  0  0  0
    5.8811   -1.1070   -0.4482 H   0  0  0  0  0  0  0  0  0  0  0  0
    7.4404   -1.9489   -2.1888 H   0  0  0  0  0  0  0  0  0  0  0  0
    8.7613   -0.9240   -1.5074 H   0  0  0  0  0  0  0  0  0  0  0  0
    7.2992   -0.1530   -2.2418 H   0  0  0  0  0  0  0  0  0  0  0  0
    5.7476    1.3391   -0.6450 H   0  0  0  0  0  0  0  0  0  0  0  0
    6.5453    3.4579   -0.5284 H   0  0  0  0  0  0  0  0  0  0  0  0
    8.7467    2.4639   -1.1386 H   0  0  0  0  0  0  0  0  0  0  0  0
    9.1851    2.4020    0.6155 H   0  0  0  0  0  0  0  0  0  0  0  0
    8.8755    3.9845   -0.1780 H   0  0  0  0  0  0  0  0  0  0  0  0
    6.0702    4.7838    2.9528 H   0  0  0  0  0  0  0  0  0  0  0  0
    5.3642    6.4659    1.6226 H   0  0  0  0  0  0  0  0  0  0  0  0
    6.3675    6.0921   -2.3049 H   0  0  0  0  0  0  0  0  0  0  0  0
    4.7223    5.7751   -1.6893 H   0  0  0  0  0  0  0  0  0  0  0  0
    3.4437    5.0203    1.7734 H   0  0  0  0  0  0  0  0  0  0  0  0
    3.4518    5.9587    0.2585 H   0  0  0  0  0  0  0  0  0  0  0  0
    2.3715    3.4148   -2.0613 H   0  0  0  0  0  0  0  0  0  0  0  0
    2.2691    5.0343   -1.3636 H   0  0  0  0  0  0  0  0  0  0  0  0
  1  2  1  0
  2  3  2  0
  2  4  1  0
  4  5  1  0
  5  6  1  0
  6  7  1  0
  7  8  1  0
  8  9  1  0
  9 10  2  0
 10 11  1  0
 11 12  2  0
 12 13  1  0
 13 14  2  0
 13 15  1  0
 15 16  1  0
 16 17  1  0
 17 18  1  0
 18 19  1  0
 19 20  1  0
 20 21  2  0
 20 22  1  0
 22 23  1  0
 22 24  1  0
 24 25  1  0
 25 26  2  0
 25 27  1  0
 27 28  1  0
 27 29  1  0
 29 30  1  0
 30 31  2  0
 30 32  1  0
 32 33  1  0
 32 34  1  0
 34 35  1  0
 35 36  2  0
 35 37  1  0
 37 38  1  0
 37 39  1  0
 39 40  1  0
 40 41  2  0
 18 42  1  0
 42 43  2  0
 42 44  1  0
 44 45  1  0
 45 46  1  0
 45 47  1  0
 47 48  2  0
 47 49  1  0
 49 50  1  0
 50 51  1  0
 50 52  1  0
 52 53  2  0
 52 54  1  0
 54 55  1  0
 55 56  1  0
 55 57  1  0
 57 58  2  0
 57 59  1  0
 59 60  1  0
 60 61  1  0
 60 62  1  0
 62 63  2  0
 62 64  1  0
 64 65  1  0
 65 66  1  0
 66 67  1  0
 66 68  2  0
 65 69  1  0
 69 70  1  0
 70 71  1  0
 40  5  1  0
 14  9  1  0
 71 11  1  0
  1 72  1  0
  1 73  1  0
  1 74  1  0
  4 75  1  0
  5 76  1  1
  6 77  1  0
  6 78  1  0
  8 79  1  0
  8 80  1  0
 10 81  1  0
 12 82  1  0
 14 83  1  0
 15 84  1  0
 15 85  1  0
 17 86  1  0
 17 87  1  0
 18 88  1  6
 19 89  1  0
 22 90  1  6
 23 91  1  0
 23 92  1  0
 23 93  1  0
 24 94  1  0
 27 95  1  6
 28 96  1  0
 28 97  1  0
 28 98  1  0
 29 99  1  0
 32100  1  6
 33101  1  0
 33102  1  0
 33103  1  0
 34104  1  0
 37105  1  6
 38106  1  0
 38107  1  0
 38108  1  0
 39109  1  0
 44110  1  0
 45111  1  6
 46112  1  0
 46113  1  0
 46114  1  0
 49115  1  0
 50116  1  1
 51117  1  0
 51118  1  0
 51119  1  0
 54120  1  0
 55121  1  6
 56122  1  0
 56123  1  0
 56124  1  0
 59125  1  0
 60126  1  6
 61127  1  0
 61128  1  0
 61129  1  0
 64130  1  0
 65131  1  1
 67132  1  0
 67133  1  0
 69134  1  0
 69135  1  0
 71136  1  0
 71137  1  0
M  END
