
     RDKit          3D

147149  0  0  0  0  0  0  0  0999 V2000
   -8.7669    0.0826    2.9322 C   0  0  0  0  0  0  0  0  0  0  0  0
   -9.5762    1.2350    2.4160 C   0  0  0  0  0  0  0  0  0  0  0  0
  -10.5561    1.6448    3.0957 O   0  0  0  0  0  0  0  0  0  0  0  0
   -9.2676    1.8870    1.1744 N   0  0  0  0  0  0  0  0  0  0  0  0
   -8.2296    1.4331    0.2396 C   0  0  2  0  0  0  0  0  0  0  0  0
   -7.5032    2.6449   -0.3812 C   0  0  0  0  0  0  0  0  0  0  0  0
   -7.0373    3.9332    0.8491 S   0  0  0  0  0  0  0  0  0  0  0  0
   -5.6968    3.0414    1.7197 C   0  0  0  0  0  0  0  0  0  0  0  0
   -4.4201    3.0613    0.9249 C   0  0  0  0  0  0  0  0  0  0  0  0
   -4.0880    1.9709    0.1191 C   0  0  0  0  0  0  0  0  0  0  0  0
   -2.8983    1.9502   -0.6169 C   0  0  0  0  0  0  0  0  0  0  0  0
   -2.0019    3.0206   -0.4983 C   0  0  0  0  0  0  0  0  0  0  0  0
   -2.3191    4.1257    0.3089 C   0  0  0  0  0  0  0  0  0  0  0  0
   -3.5371    4.1475    1.0088 C   0  0  0  0  0  0  0  0  0  0  0  0
   -1.3612    5.2784    0.4091 C   0  0  0  0  0  0  0  0  0  0  0  0
   -1.3388    6.1845   -1.1729 S   0  0  0  0  0  0  0  0  0  0  0  0
    0.1200    7.2236   -0.7961 C   0  0  0  0  0  0  0  0  0  0  0  0
    1.2956    6.8565   -1.7235 C   0  0  1  0  0  0  0  0  0  0  0  0
    2.4962    7.7715   -1.6303 C   0  0  0  0  0  0  0  0  0  0  0  0
    2.5880    8.8361   -0.6743 N   0  0  0  0  0  0  0  0  0  0  0  0
    3.4483    7.5975   -2.4377 O   0  0  0  0  0  0  0  0  0  0  0  0
    1.6900    5.4491   -1.5614 N   0  0  0  0  0  0  0  0  0  0  0  0
    2.2110    4.8366   -0.3668 C   0  0  0  0  0  0  0  0  0  0  0  0
    2.0436    3.5944   -0.2146 O   0  0  0  0  0  0  0  0  0  0  0  0
    3.0132    5.6070    0.6599 C   0  0  1  0  0  0  0  0  0  0  0  0
    3.1756    4.8432    1.9803 C   0  0  0  0  0  0  0  0  0  0  0  0
    4.3253    6.0213    0.1411 N   0  0  0  0  0  0  0  0  0  0  0  0
    5.4166    5.1508   -0.2074 C   0  0  0  0  0  0  0  0  0  0  0  0
    6.5838    5.4899    0.1277 O   0  0  0  0  0  0  0  0  0  0  0  0
    5.2196    3.8730   -0.9954 C   0  0  1  0  0  0  0  0  0  0  0  0
    6.3320    3.6775   -2.0349 C   0  0  0  0  0  0  0  0  0  0  0  0
    5.1515    2.7085   -0.1107 N   0  0  0  0  0  0  0  0  0  0  0  0
    6.2085    2.3648    0.7908 C   0  0  0  0  0  0  0  0  0  0  0  0
    6.4033    3.0702    1.8186 O   0  0  0  0  0  0  0  0  0  0  0  0
    7.0484    1.1428    0.5353 C   0  0  1  0  0  0  0  0  0  0  0  0
    8.5328    1.4592    0.7586 C   0  0  0  0  0  0  0  0  0  0  0  0
    6.6282    0.0450    1.4115 N   0  0  0  0  0  0  0  0  0  0  0  0
    6.9294   -1.3435    1.1779 C   0  0  0  0  0  0  0  0  0  0  0  0
    6.6839   -2.1725    2.0947 O   0  0  0  0  0  0  0  0  0  0  0  0
    7.4719   -1.8518   -0.1477 C   0  0  1  0  0  0  0  0  0  0  0  0
    8.4748   -2.9913    0.0578 C   0  0  0  0  0  0  0  0  0  0  0  0
    6.4021   -2.2866   -1.0548 N   0  0  0  0  0  0  0  0  0  0  0  0
    5.1936   -2.9272   -0.6133 C   0  0  0  0  0  0  0  0  0  0  0  0
    4.3764   -2.2843    0.1003 O   0  0  0  0  0  0  0  0  0  0  0  0
    4.8775   -4.3637   -0.9608 C   0  0  1  0  0  0  0  0  0  0  0  0
    5.7795   -4.9304   -2.0653 C   0  0  0  0  0  0  0  0  0  0  0  0
    5.0055   -5.1861    0.2436 N   0  0  0  0  0  0  0  0  0  0  0  0
    4.2408   -6.3851    0.4258 C   0  0  0  0  0  0  0  0  0  0  0  0
    4.8535   -7.4862    0.4873 O   0  0  0  0  0  0  0  0  0  0  0  0
    2.7362   -6.3779    0.5965 C   0  0  1  0  0  0  0  0  0  0  0  0
    2.3634   -7.0613    1.9160 C   0  0  0  0  0  0  0  0  0  0  0  0
    2.1923   -5.0175    0.5941 N   0  0  0  0  0  0  0  0  0  0  0  0
    1.1154   -4.6051   -0.2604 C   0  0  0  0  0  0  0  0  0  0  0  0
    1.3164   -3.6725   -1.0837 O   0  0  0  0  0  0  0  0  0  0  0  0
   -0.2816   -5.1712   -0.1270 C   0  0  1  0  0  0  0  0  0  0  0  0
   -0.3899   -6.5951   -0.6838 C   0  0  0  0  0  0  0  0  0  0  0  0
   -0.7303   -5.1210    1.2714 N   0  0  0  0  0  0  0  0  0  0  0  0
   -2.0723   -5.3933    1.7164 C   0  0  0  0  0  0  0  0  0  0  0  0
   -2.2401   -5.8173    2.8927 O   0  0  0  0  0  0  0  0  0  0  0  0
   -3.2942   -5.0900    0.8775 C   0  0  1  0  0  0  0  0  0  0  0  0
   -4.1997   -6.3195    0.7766 C   0  0  0  0  0  0  0  0  0  0  0  0
   -4.0354   -3.9872    1.4932 N   0  0  0  0  0  0  0  0  0  0  0  0
   -3.7967   -2.6147    1.1559 C   0  0  0  0  0  0  0  0  0  0  0  0
   -3.3361   -1.8419    2.0406 O   0  0  0  0  0  0  0  0  0  0  0  0
   -4.1609   -2.0389   -0.1943 C   0  0  1  0  0  0  0  0  0  0  0  0
   -2.9404   -1.9170   -1.1195 C   0  0  0  0  0  0  0  0  0  0  0  0
   -1.8189   -0.5705   -0.5731 S   0  0  0  0  0  0  0  0  0  0  0  0
   -2.5973    0.7893   -1.5219 C   0  0  0  0  0  0  0  0  0  0  0  0
   -5.2192   -2.8297   -0.8345 N   0  0  0  0  0  0  0  0  0  0  0  0
   -6.5651   -2.3719   -1.0792 C   0  0  0  0  0  0  0  0  0  0  0  0
   -7.4863   -3.2319   -1.1335 O   0  0  0  0  0  0  0  0  0  0  0  0
   -6.8850   -0.9241   -1.4098 C   0  0  1  0  0  0  0  0  0  0  0  0
   -6.4346   -0.6086   -2.8347 C   0  0  0  0  0  0  0  0  0  0  0  0
   -8.3241   -0.6589   -1.2883 N   0  0  0  0  0  0  0  0  0  0  0  0
   -8.8739    0.5963   -0.8454 C   0  0  0  0  0  0  0  0  0  0  0  0
   -9.9491    1.0000   -1.3663 O   0  0  0  0  0  0  0  0  0  0  0  0
   -7.7139    0.4001    3.0824 H   0  0  0  0  0  0  0  0  0  0  0  0
   -9.1678   -0.2659    3.9093 H   0  0  0  0  0  0  0  0  0  0  0  0
   -8.8047   -0.7613    2.2102 H   0  0  0  0  0  0  0  0  0  0  0  0
   -9.8920    2.6677    0.8724 H   0  0  0  0  0  0  0  0  0  0  0  0
   -7.4848    0.8195    0.7771 H   0  0  0  0  0  0  0  0  0  0  0  0
   -8.1797    3.1400   -1.1096 H   0  0  0  0  0  0  0  0  0  0  0  0
   -6.6123    2.3115   -0.9486 H   0  0  0  0  0  0  0  0  0  0  0  0
   -6.0004    2.0054    1.9619 H   0  0  0  0  0  0  0  0  0  0  0  0
   -5.5302    3.5456    2.6935 H   0  0  0  0  0  0  0  0  0  0  0  0
   -4.7705    1.1458    0.0521 H   0  0  0  0  0  0  0  0  0  0  0  0
   -1.0643    3.0058   -1.0442 H   0  0  0  0  0  0  0  0  0  0  0  0
   -3.7925    4.9983    1.6295 H   0  0  0  0  0  0  0  0  0  0  0  0
   -1.6581    5.9765    1.2202 H   0  0  0  0  0  0  0  0  0  0  0  0
   -0.3516    4.8851    0.6462 H   0  0  0  0  0  0  0  0  0  0  0  0
   -0.1774    8.2762   -0.9904 H   0  0  0  0  0  0  0  0  0  0  0  0
    0.4021    7.1478    0.2727 H   0  0  0  0  0  0  0  0  0  0  0  0
    0.9102    6.9797   -2.7606 H   0  0  0  0  0  0  0  0  0  0  0  0
    1.8375    9.0312    0.0218 H   0  0  0  0  0  0  0  0  0  0  0  0
    3.4536    9.4181   -0.6335 H   0  0  0  0  0  0  0  0  0  0  0  0
    1.4328    4.8023   -2.3420 H   0  0  0  0  0  0  0  0  0  0  0  0
    2.4455    6.5230    0.9156 H   0  0  0  0  0  0  0  0  0  0  0  0
    3.7434    3.9028    1.8327 H   0  0  0  0  0  0  0  0  0  0  0  0
    3.7183    5.4759    2.7150 H   0  0  0  0  0  0  0  0  0  0  0  0
    2.1776    4.5969    2.4014 H   0  0  0  0  0  0  0  0  0  0  0  0
    4.5742    7.0265    0.2782 H   0  0  0  0  0  0  0  0  0  0  0  0
    4.2814    3.9416   -1.5769 H   0  0  0  0  0  0  0  0  0  0  0  0
    7.3253    3.5894   -1.5476 H   0  0  0  0  0  0  0  0  0  0  0  0
    6.3472    4.5366   -2.7405 H   0  0  0  0  0  0  0  0  0  0  0  0
    6.1405    2.7491   -2.6155 H   0  0  0  0  0  0  0  0  0  0  0  0
    4.3833    2.0108   -0.2589 H   0  0  0  0  0  0  0  0  0  0  0  0
    6.8927    0.8566   -0.5263 H   0  0  0  0  0  0  0  0  0  0  0  0
    8.7115    1.7701    1.8091 H   0  0  0  0  0  0  0  0  0  0  0  0
    8.8526    2.2775    0.0807 H   0  0  0  0  0  0  0  0  0  0  0  0
    9.1595    0.5677    0.5522 H   0  0  0  0  0  0  0  0  0  0  0  0
    6.1643    0.2823    2.3181 H   0  0  0  0  0  0  0  0  0  0  0  0
    8.0362   -1.0480   -0.6565 H   0  0  0  0  0  0  0  0  0  0  0  0
    9.3037   -2.6563    0.7169 H   0  0  0  0  0  0  0  0  0  0  0  0
    7.9840   -3.8744    0.5134 H   0  0  0  0  0  0  0  0  0  0  0  0
    8.9101   -3.2937   -0.9195 H   0  0  0  0  0  0  0  0  0  0  0  0
    6.6467   -2.3562   -2.0692 H   0  0  0  0  0  0  0  0  0  0  0  0
    3.8377   -4.4043   -1.3410 H   0  0  0  0  0  0  0  0  0  0  0  0
    6.8449   -4.9108   -1.7547 H   0  0  0  0  0  0  0  0  0  0  0  0
    5.4964   -5.9821   -2.2760 H   0  0  0  0  0  0  0  0  0  0  0  0
    5.6549   -4.3465   -3.0013 H   0  0  0  0  0  0  0  0  0  0  0  0
    5.9172   -5.1403    0.7494 H   0  0  0  0  0  0  0  0  0  0  0  0
    2.3085   -6.9609   -0.2457 H   0  0  0  0  0  0  0  0  0  0  0  0
    1.2633   -7.0784    2.0467 H   0  0  0  0  0  0  0  0  0  0  0  0
    2.7221   -8.1108    1.9249 H   0  0  0  0  0  0  0  0  0  0  0  0
    2.8120   -6.5167    2.7736 H   0  0  0  0  0  0  0  0  0  0  0  0
    2.6582   -4.2836    1.1759 H   0  0  0  0  0  0  0  0  0  0  0  0
   -0.9358   -4.5270   -0.7423 H   0  0  0  0  0  0  0  0  0  0  0  0
    0.1343   -6.6723   -1.6599 H   0  0  0  0  0  0  0  0  0  0  0  0
    0.0330   -7.3364    0.0246 H   0  0  0  0  0  0  0  0  0  0  0  0
   -1.4562   -6.8540   -0.8465 H   0  0  0  0  0  0  0  0  0  0  0  0
   -0.0112   -5.0183    2.0223 H   0  0  0  0  0  0  0  0  0  0  0  0
   -3.0111   -4.8175   -0.1532 H   0  0  0  0  0  0  0  0  0  0  0  0
   -4.5617   -6.6258    1.7800 H   0  0  0  0  0  0  0  0  0  0  0  0
   -5.0813   -6.0875    0.1389 H   0  0  0  0  0  0  0  0  0  0  0  0
   -3.6489   -7.1679    0.3180 H   0  0  0  0  0  0  0  0  0  0  0  0
   -4.4459   -4.1620    2.4383 H   0  0  0  0  0  0  0  0  0  0  0  0
   -4.5264   -1.0242    0.0002 H   0  0  0  0  0  0  0  0  0  0  0  0
   -3.2571   -1.7537   -2.1716 H   0  0  0  0  0  0  0  0  0  0  0  0
   -2.3682   -2.8587   -1.1182 H   0  0  0  0  0  0  0  0  0  0  0  0
   -1.9015    1.0984   -2.3308 H   0  0  0  0  0  0  0  0  0  0  0  0
   -3.5370    0.4738   -2.0136 H   0  0  0  0  0  0  0  0  0  0  0  0
   -5.0167   -3.8307   -1.0531 H   0  0  0  0  0  0  0  0  0  0  0  0
   -6.3409   -0.2593   -0.7311 H   0  0  0  0  0  0  0  0  0  0  0  0
   -5.3477   -0.7954   -2.9520 H   0  0  0  0  0  0  0  0  0  0  0  0
   -6.6319    0.4612   -3.0630 H   0  0  0  0  0  0  0  0  0  0  0  0
   -6.9840   -1.2414   -3.5648 H   0  0  0  0  0  0  0  0  0  0  0  0
   -8.9680   -1.2741   -1.8364 H   0  0  0  0  0  0  0  0  0  0  0  0
  1  2  1  0
  2  3  2  0
  2  4  1  0
  4  5  1  0
  5  6  1  0
  6  7  1  0
  7  8  1  0
  8  9  1  0
  9 10  1  0
 10 11  2  0
 11 12  1  0
 12 13  2  0
 13 14  1  0
 13 15  1  0
 15 16  1  0
 16 17  1  0
 17 18  1  0
 18 19  1  0
 19 20  1  0
 19 21  2  0
 18 22  1  0
 22 23  1  0
 23 24  2  0
 23 25  1  0
 25 26  1  0
 25 27  1  0
 27 28  1  0
 28 29  2  0
 28 30  1  0
 30 31  1  0
 30 32  1  0
 32 33  1  0
 33 34  2  0
 33 35  1  0
 35 36  1  0
 35 37  1  0
 37 38  1  0
 38 39  2  0
 38 40  1  0
 40 41  1  0
 40 42  1  0
 42 43  1  0
 43 44  2  0
 43 45  1  0
 45 46  1  0
 45 47  1  0
 47 48  1  0
 48 49  2  0
 48 50  1  0
 50 51  1  0
 50 52  1  0
 52 53  1  0
 53 54  2  0
 53 55  1  0
 55 56  1  0
 55 57  1  0
 57 58  1  0
 58 59  2  0
 58 60  1  0
 60 61  1  0
 60 62  1  0
 62 63  1  0
 63 64  2  0
 63 65  1  0
 65 66  1  0
 66 67  1  0
 67 68  1  0
 65 69  1  0
 69 70  1  0
 70 71  2  0
 70 72  1  0
 72 73  1  0
 72 74  1  0
 74 75  1  0
 75 76  2  0
 75  5  1  0
 14  9  2  0
 68 11  1  0
  1 77  1  0
  1 78  1  0
  1 79  1  0
  4 80  1  0
  5 81  1  1
  6 82  1  0
  6 83  1  0
  8 84  1  0
  8 85  1  0
 10 86  1  0
 12 87  1  0
 14 88  1  0
 15 89  1  0
 15 90  1  0
 17 91  1  0
 17 92  1  0
 18 93  1  6
 20 94  1  0
 20 95  1  0
 22 96  1  0
 25 97  1  1
 26 98  1  0
 26 99  1  0
 26100  1  0
 27101  1  0
 30102  1  6
 31103  1  0
 31104  1  0
 31105  1  0
 32106  1  0
 35107  1  6
 36108  1  0
 36109  1  0
 36110  1  0
 37111  1  0
 40112  1  6
 41113  1  0
 41114  1  0
 41115  1  0
 42116  1  0
 45117  1  6
 46118  1  0
 46119  1  0
 46120  1  0
 47121  1  0
 50122  1  6
 51123  1  0
 51124  1  0
 51125  1  0
 52126  1  0
 55127  1  6
 56128  1  0
 56129  1  0
 56130  1  0
 57131  1  0
 60132  1  6
 61133  1  0
 61134  1  0
 61135  1  0
 62136  1  0
 65137  1  1
 66138  1  0
 66139  1  0
 68140  1  0
 68141  1  0
 69142  1  0
 72143  1  1
 73144  1  0
 73145  1  0
 73146  1  0
 74147  1  0
M  END
