
     RDKit          3D

127129  0  0  0  0  0  0  0  0999 V2000
    6.4741    8.1884   -0.8130 C   0  0  0  0  0  0  0  0  0  0  0  0
    6.4279    6.7011   -0.9446 C   0  0  0  0  0  0  0  0  0  0  0  0
    6.6265    6.1661   -2.0676 O   0  0  0  0  0  0  0  0  0  0  0  0
    6.1588    5.8924    0.2097 N   0  0  0  0  0  0  0  0  0  0  0  0
    5.8095    4.4687    0.1042 C   0  0  2  0  0  0  0  0  0  0  0  0
    4.3552    4.2933   -0.3925 C   0  0  0  0  0  0  0  0  0  0  0  0
    3.1915    5.5202    0.3208 S   0  0  0  0  0  0  0  0  0  0  0  0
    2.4206    4.4497    1.5892 C   0  0  0  0  0  0  0  0  0  0  0  0
    1.1932    3.7584    1.0606 C   0  0  0  0  0  0  0  0  0  0  0  0
    0.0885    4.5114    0.6176 C   0  0  0  0  0  0  0  0  0  0  0  0
   -1.0793    3.8656    0.1801 C   0  0  0  0  0  0  0  0  0  0  0  0
   -1.1473    2.4700    0.2306 C   0  0  0  0  0  0  0  0  0  0  0  0
   -0.0574    1.7086    0.6680 C   0  0  0  0  0  0  0  0  0  0  0  0
    1.1063    2.3602    1.0917 C   0  0  0  0  0  0  0  0  0  0  0  0
   -0.1804    0.2192    0.8004 C   0  0  0  0  0  0  0  0  0  0  0  0
   -0.7565   -0.5396   -0.7716 S   0  0  0  0  0  0  0  0  0  0  0  0
   -1.9084   -1.7848   -0.0499 C   0  0  0  0  0  0  0  0  0  0  0  0
   -1.6899   -3.1847   -0.6385 C   0  0  2  0  0  0  0  0  0  0  0  0
   -0.3295   -3.6513   -0.3426 N   0  0  0  0  0  0  0  0  0  0  0  0
   -0.0622   -4.6153    0.6870 C   0  0  0  0  0  0  0  0  0  0  0  0
   -0.8172   -4.6855    1.6982 O   0  0  0  0  0  0  0  0  0  0  0  0
    1.1050   -5.5586    0.5773 C   0  0  1  0  0  0  0  0  0  0  0  0
    0.9777   -6.4094   -0.6935 C   0  0  0  0  0  0  0  0  0  0  0  0
    2.3661   -4.8147    0.5615 N   0  0  0  0  0  0  0  0  0  0  0  0
    3.2183   -4.8014    1.7164 C   0  0  0  0  0  0  0  0  0  0  0  0
    2.7081   -4.7284    2.8701 O   0  0  0  0  0  0  0  0  0  0  0  0
    4.7106   -4.9537    1.5728 C   0  0  1  0  0  0  0  0  0  0  0  0
    5.0437   -6.3902    1.1512 C   0  0  0  0  0  0  0  0  0  0  0  0
    5.2266   -4.0020    0.5845 N   0  0  0  0  0  0  0  0  0  0  0  0
    5.6279   -2.6692    0.9531 C   0  0  0  0  0  0  0  0  0  0  0  0
    5.7256   -2.3716    2.1744 O   0  0  0  0  0  0  0  0  0  0  0  0
    5.9565   -1.5999   -0.0669 C   0  0  1  0  0  0  0  0  0  0  0  0
    5.9036   -2.0719   -1.5273 C   0  0  0  0  0  0  0  0  0  0  0  0
    5.0319   -0.4754    0.1128 N   0  0  0  0  0  0  0  0  0  0  0  0
    5.3692    0.7405    0.8066 C   0  0  0  0  0  0  0  0  0  0  0  0
    4.4736    1.3086    1.4883 O   0  0  0  0  0  0  0  0  0  0  0  0
    6.7569    1.3515    0.7392 C   0  0  1  0  0  0  0  0  0  0  0  0
    7.2283    1.5532   -0.7026 C   0  0  0  0  0  0  0  0  0  0  0  0
    6.8635    2.5862    1.5387 N   0  0  0  0  0  0  0  0  0  0  0  0
    6.0465    3.7665    1.4219 C   0  0  0  0  0  0  0  0  0  0  0  0
    5.5647    4.2681    2.4725 O   0  0  0  0  0  0  0  0  0  0  0  0
   -1.9442   -3.2129   -2.1312 C   0  0  0  0  0  0  0  0  0  0  0  0
   -1.0021   -2.9282   -2.9202 O   0  0  0  0  0  0  0  0  0  0  0  0
   -3.2069   -3.6156   -2.6961 N   0  0  0  0  0  0  0  0  0  0  0  0
   -4.5032   -3.6120   -1.9993 C   0  0  2  0  0  0  0  0  0  0  0  0
   -5.0356   -5.0477   -1.9479 C   0  0  0  0  0  0  0  0  0  0  0  0
   -5.4899   -2.7301   -2.7342 C   0  0  0  0  0  0  0  0  0  0  0  0
   -5.3763   -2.6040   -3.9842 O   0  0  0  0  0  0  0  0  0  0  0  0
   -6.6162   -2.1125   -2.0798 N   0  0  0  0  0  0  0  0  0  0  0  0
   -6.6535   -1.7104   -0.6608 C   0  0  2  0  0  0  0  0  0  0  0  0
   -7.2105   -2.8528    0.1947 C   0  0  0  0  0  0  0  0  0  0  0  0
   -7.5166   -0.4740   -0.4629 C   0  0  0  0  0  0  0  0  0  0  0  0
   -8.4344   -0.2155   -1.2860 O   0  0  0  0  0  0  0  0  0  0  0  0
   -7.3714    0.3875    0.6805 N   0  0  0  0  0  0  0  0  0  0  0  0
   -6.2277    0.3703    1.6022 C   0  0  2  0  0  0  0  0  0  0  0  0
   -6.5929    1.0173    2.9427 C   0  0  0  0  0  0  0  0  0  0  0  0
   -5.0113    1.0180    0.9813 C   0  0  0  0  0  0  0  0  0  0  0  0
   -3.8732    0.5806    1.2954 O   0  0  0  0  0  0  0  0  0  0  0  0
   -5.1021    2.0489   -0.0189 N   0  0  0  0  0  0  0  0  0  0  0  0
   -5.8857    3.2781    0.1607 C   0  0  2  0  0  0  0  0  0  0  0  0
   -7.1153    3.2765   -0.7105 C   0  0  0  0  0  0  0  0  0  0  0  0
   -7.1997    2.4761   -1.8906 N   0  0  0  0  0  0  0  0  0  0  0  0
   -8.0742    4.0408   -0.4108 O   0  0  0  0  0  0  0  0  0  0  0  0
   -5.0291    4.5171   -0.1446 C   0  0  0  0  0  0  0  0  0  0  0  0
   -3.5767    4.5925    0.9778 S   0  0  0  0  0  0  0  0  0  0  0  0
   -2.2680    4.6452   -0.2996 C   0  0  0  0  0  0  0  0  0  0  0  0
    7.2629    8.4840   -0.0874 H   0  0  0  0  0  0  0  0  0  0  0  0
    5.4884    8.5498   -0.4461 H   0  0  0  0  0  0  0  0  0  0  0  0
    6.6780    8.6606   -1.7958 H   0  0  0  0  0  0  0  0  0  0  0  0
    6.0825    6.3735    1.1425 H   0  0  0  0  0  0  0  0  0  0  0  0
    6.4828    4.0291   -0.6465 H   0  0  0  0  0  0  0  0  0  0  0  0
    4.3474    4.4618   -1.4929 H   0  0  0  0  0  0  0  0  0  0  0  0
    4.0041    3.2523   -0.2428 H   0  0  0  0  0  0  0  0  0  0  0  0
    2.1180    5.0939    2.4464 H   0  0  0  0  0  0  0  0  0  0  0  0
    3.1472    3.7196    1.9842 H   0  0  0  0  0  0  0  0  0  0  0  0
    0.1407    5.5935    0.6237 H   0  0  0  0  0  0  0  0  0  0  0  0
   -2.0576    1.9718   -0.0752 H   0  0  0  0  0  0  0  0  0  0  0  0
    1.9420    1.7753    1.4607 H   0  0  0  0  0  0  0  0  0  0  0  0
    0.8007   -0.2469    1.0490 H   0  0  0  0  0  0  0  0  0  0  0  0
   -0.8749    0.0170    1.6454 H   0  0  0  0  0  0  0  0  0  0  0  0
   -1.7983   -1.8586    1.0471 H   0  0  0  0  0  0  0  0  0  0  0  0
   -2.9390   -1.4425   -0.2674 H   0  0  0  0  0  0  0  0  0  0  0  0
   -2.4139   -3.8730   -0.1467 H   0  0  0  0  0  0  0  0  0  0  0  0
    0.4768   -3.2640   -0.8844 H   0  0  0  0  0  0  0  0  0  0  0  0
    1.0852   -6.2565    1.4453 H   0  0  0  0  0  0  0  0  0  0  0  0
    0.9767   -5.7656   -1.6036 H   0  0  0  0  0  0  0  0  0  0  0  0
    0.0356   -6.9943   -0.6703 H   0  0  0  0  0  0  0  0  0  0  0  0
    1.8301   -7.1192   -0.7502 H   0  0  0  0  0  0  0  0  0  0  0  0
    2.7835   -4.5613   -0.3593 H   0  0  0  0  0  0  0  0  0  0  0  0
    5.2015   -4.7786    2.5557 H   0  0  0  0  0  0  0  0  0  0  0  0
    4.5452   -6.6460    0.1901 H   0  0  0  0  0  0  0  0  0  0  0  0
    6.1419   -6.5011    1.0283 H   0  0  0  0  0  0  0  0  0  0  0  0
    4.7064   -7.1056    1.9317 H   0  0  0  0  0  0  0  0  0  0  0  0
    5.1929   -4.2838   -0.4190 H   0  0  0  0  0  0  0  0  0  0  0  0
    7.0020   -1.2895    0.1311 H   0  0  0  0  0  0  0  0  0  0  0  0
    6.1740   -1.2359   -2.2068 H   0  0  0  0  0  0  0  0  0  0  0  0
    4.8744   -2.4161   -1.7863 H   0  0  0  0  0  0  0  0  0  0  0  0
    6.6221   -2.9007   -1.6961 H   0  0  0  0  0  0  0  0  0  0  0  0
    4.0179   -0.6584   -0.0656 H   0  0  0  0  0  0  0  0  0  0  0  0
    7.4486    0.6185    1.2077 H   0  0  0  0  0  0  0  0  0  0  0  0
    7.5839    0.5938   -1.1361 H   0  0  0  0  0  0  0  0  0  0  0  0
    6.4041    1.9254   -1.3403 H   0  0  0  0  0  0  0  0  0  0  0  0
    8.0844    2.2610   -0.7412 H   0  0  0  0  0  0  0  0  0  0  0  0
    7.4014    2.5006    2.4289 H   0  0  0  0  0  0  0  0  0  0  0  0
   -3.1940   -3.9020   -3.7028 H   0  0  0  0  0  0  0  0  0  0  0  0
   -4.3812   -3.2444   -0.9651 H   0  0  0  0  0  0  0  0  0  0  0  0
   -6.0729   -5.0787   -1.5562 H   0  0  0  0  0  0  0  0  0  0  0  0
   -5.0289   -5.5011   -2.9635 H   0  0  0  0  0  0  0  0  0  0  0  0
   -4.3873   -5.6623   -1.2816 H   0  0  0  0  0  0  0  0  0  0  0  0
   -7.4163   -1.8597   -2.7048 H   0  0  0  0  0  0  0  0  0  0  0  0
   -5.6226   -1.4672   -0.3403 H   0  0  0  0  0  0  0  0  0  0  0  0
   -8.1819   -3.2077   -0.2138 H   0  0  0  0  0  0  0  0  0  0  0  0
   -7.3737   -2.5189    1.2360 H   0  0  0  0  0  0  0  0  0  0  0  0
   -6.4935   -3.6978    0.2266 H   0  0  0  0  0  0  0  0  0  0  0  0
   -8.1298    1.0882    0.8469 H   0  0  0  0  0  0  0  0  0  0  0  0
   -5.9744   -0.6824    1.8364 H   0  0  0  0  0  0  0  0  0  0  0  0
   -7.3444    0.3831    3.4613 H   0  0  0  0  0  0  0  0  0  0  0  0
   -5.6930    1.0853    3.5943 H   0  0  0  0  0  0  0  0  0  0  0  0
   -7.0268    2.0281    2.8071 H   0  0  0  0  0  0  0  0  0  0  0  0
   -4.4212    2.0139   -0.8098 H   0  0  0  0  0  0  0  0  0  0  0  0
   -6.2084    3.3638    1.2196 H   0  0  0  0  0  0  0  0  0  0  0  0
   -6.4251    1.8336   -2.1763 H   0  0  0  0  0  0  0  0  0  0  0  0
   -8.0664    2.5024   -2.4768 H   0  0  0  0  0  0  0  0  0  0  0  0
   -5.6291    5.4352    0.0297 H   0  0  0  0  0  0  0  0  0  0  0  0
   -4.7437    4.5246   -1.2211 H   0  0  0  0  0  0  0  0  0  0  0  0
   -2.5990    4.2020   -1.2611 H   0  0  0  0  0  0  0  0  0  0  0  0
   -1.9973    5.7044   -0.4892 H   0  0  0  0  0  0  0  0  0  0  0  0
  1  2  1  0
  2  3  2  0
  2  4  1  0
  4  5  1  0
  5  6  1  0
  6  7  1  0
  7  8  1  0
  8  9  1  0
  9 10  2  0
 10 11  1  0
 11 12  2  0
 12 13  1  0
 13 14  2  0
 13 15  1  0
 15 16  1  0
 16 17  1  0
 17 18  1  0
 18 19  1  0
 19 20  1  0
 20 21  2  0
 20 22  1  0
 22 23  1  0
 22 24  1  0
 24 25  1  0
 25 26  2  0
 25 27  1  0
 27 28  1  0
 27 29  1  0
 29 30  1  0
 30 31  2  0
 30 32  1  0
 32 33  1  0
 32 34  1  0
 34 35  1  0
 35 36  2  0
 35 37  1  0
 37 38  1  0
 37 39  1  0
 39 40  1  0
 40 41  2  0
 18 42  1  0
 42 43  2  0
 42 44  1  0
 44 45  1  0
 45 46  1  0
 45 47  1  0
 47 48  2  0
 47 49  1  0
 49 50  1  0
 50 51  1  0
 50 52  1  0
 52 53  2  0
 52 54  1  0
 54 55  1  0
 55 56  1  0
 55 57  1  0
 57 58  2  0
 57 59  1  0
 59 60  1  0
 60 61  1  0
 61 62  1  0
 61 63  2  0
 60 64  1  0
 64 65  1  0
 65 66  1  0
 40  5  1  0
 14  9  1  0
 66 11  1  0
  1 67  1  0
  1 68  1  0
  1 69  1  0
  4 70  1  0
  5 71  1  6
  6 72  1  0
  6 73  1  0
  8 74  1  0
  8 75  1  0
 10 76  1  0
 12 77  1  0
 14 78  1  0
 15 79  1  0
 15 80  1  0
 17 81  1  0
 17 82  1  0
 18 83  1  1
 19 84  1  0
 22 85  1  1
 23 86  1  0
 23 87  1  0
 23 88  1  0
 24 89  1  0
 27 90  1  1
 28 91  1  0
 28 92  1  0
 28 93  1  0
 29 94  1  0
 32 95  1  1
 33 96  1  0
 33 97  1  0
 33 98  1  0
 34 99  1  0
 37100  1  1
 38101  1  0
 38102  1  0
 38103  1  0
 39104  1  0
 44105  1  0
 45106  1  1
 46107  1  0
 46108  1  0
 46109  1  0
 49110  1  0
 50111  1  1
 51112  1  0
 51113  1  0
 51114  1  0
 54115  1  0
 55116  1  1
 56117  1  0
 56118  1  0
 56119  1  0
 59120  1  0
 60121  1  1
 62122  1  0
 62123  1  0
 64124  1  0
 64125  1  0
 66126  1  0
 66127  1  0
M  END
