
     RDKit          3D

147149  0  0  0  0  0  0  0  0999 V2000
    7.2504    5.3910    2.5090 C   0  0  0  0  0  0  0  0  0  0  0  0
    6.5862    4.7132    1.3536 C   0  0  0  0  0  0  0  0  0  0  0  0
    6.4824    5.3297    0.2602 O   0  0  0  0  0  0  0  0  0  0  0  0
    6.0830    3.3737    1.4958 N   0  0  0  0  0  0  0  0  0  0  0  0
    5.5039    2.6102    0.3824 C   0  0  2  0  0  0  0  0  0  0  0  0
    4.0408    2.2507    0.7016 C   0  0  0  0  0  0  0  0  0  0  0  0
    2.9842    3.7422    0.5608 S   0  0  0  0  0  0  0  0  0  0  0  0
    2.7417    3.6527   -1.2537 C   0  0  0  0  0  0  0  0  0  0  0  0
    1.3851    3.0903   -1.5496 C   0  0  0  0  0  0  0  0  0  0  0  0
    0.2384    3.8696   -1.3132 C   0  0  0  0  0  0  0  0  0  0  0  0
   -1.0376    3.3550   -1.5712 C   0  0  0  0  0  0  0  0  0  0  0  0
   -1.1724    2.0325   -2.0286 C   0  0  0  0  0  0  0  0  0  0  0  0
   -0.0349    1.2312   -2.2327 C   0  0  0  0  0  0  0  0  0  0  0  0
    1.2407    1.7717   -2.0070 C   0  0  0  0  0  0  0  0  0  0  0  0
   -0.1981   -0.2136   -2.6070 C   0  0  0  0  0  0  0  0  0  0  0  0
   -0.9851   -1.1059   -1.2212 S   0  0  0  0  0  0  0  0  0  0  0  0
    0.3722   -2.2911   -0.9093 C   0  0  0  0  0  0  0  0  0  0  0  0
    0.0393   -3.2427    0.2607 C   0  0  2  0  0  0  0  0  0  0  0  0
    1.1633   -4.1638    0.4866 N   0  0  0  0  0  0  0  0  0  0  0  0
    2.5099   -3.7004    0.6751 C   0  0  0  0  0  0  0  0  0  0  0  0
    2.7269   -2.7436    1.4688 O   0  0  0  0  0  0  0  0  0  0  0  0
    3.6682   -4.3018   -0.0932 C   0  0  1  0  0  0  0  0  0  0  0  0
    3.2184   -5.4010   -1.0681 C   0  0  0  0  0  0  0  0  0  0  0  0
    4.3536   -3.2458   -0.8439 N   0  0  0  0  0  0  0  0  0  0  0  0
    5.7605   -3.2360   -1.1498 C   0  0  0  0  0  0  0  0  0  0  0  0
    6.2584   -2.1937   -1.6624 O   0  0  0  0  0  0  0  0  0  0  0  0
    6.6584   -4.4238   -0.8857 C   0  0  1  0  0  0  0  0  0  0  0  0
    7.5562   -4.7301   -2.0930 C   0  0  0  0  0  0  0  0  0  0  0  0
    7.4377   -4.2082    0.3381 N   0  0  0  0  0  0  0  0  0  0  0  0
    8.6772   -3.4966    0.3550 C   0  0  0  0  0  0  0  0  0  0  0  0
    9.7522   -4.1373    0.2120 O   0  0  0  0  0  0  0  0  0  0  0  0
    8.7093   -2.0071    0.5853 C   0  0  1  0  0  0  0  0  0  0  0  0
    9.5496   -1.7023    1.8311 C   0  0  0  0  0  0  0  0  0  0  0  0
    9.2589   -1.3369   -0.6029 N   0  0  0  0  0  0  0  0  0  0  0  0
    8.8837   -0.0063   -0.9936 C   0  0  0  0  0  0  0  0  0  0  0  0
    8.5872    0.2110   -2.2030 O   0  0  0  0  0  0  0  0  0  0  0  0
    8.8503    1.1280    0.0048 C   0  0  1  0  0  0  0  0  0  0  0  0
    9.0930    2.4936   -0.6532 C   0  0  0  0  0  0  0  0  0  0  0  0
    7.5855    1.1463    0.7487 N   0  0  0  0  0  0  0  0  0  0  0  0
    6.3237    1.3718    0.0979 C   0  0  0  0  0  0  0  0  0  0  0  0
    5.9487    0.5875   -0.8157 O   0  0  0  0  0  0  0  0  0  0  0  0
   -1.2053   -4.0575   -0.0325 C   0  0  0  0  0  0  0  0  0  0  0  0
   -1.2710   -4.7061   -1.1153 O   0  0  0  0  0  0  0  0  0  0  0  0
   -2.2351   -4.2385    0.9492 N   0  0  0  0  0  0  0  0  0  0  0  0
   -2.9066   -3.1264    1.6288 C   0  0  2  0  0  0  0  0  0  0  0  0
   -3.9524   -3.6560    2.6212 C   0  0  0  0  0  0  0  0  0  0  0  0
   -3.5285   -2.1719    0.6384 C   0  0  0  0  0  0  0  0  0  0  0  0
   -3.4494   -0.9359    0.8603 O   0  0  0  0  0  0  0  0  0  0  0  0
   -4.1094   -2.6168   -0.5951 N   0  0  0  0  0  0  0  0  0  0  0  0
   -5.2912   -3.4813   -0.6450 C   0  0  2  0  0  0  0  0  0  0  0  0
   -4.9089   -4.8892   -1.1146 C   0  0  0  0  0  0  0  0  0  0  0  0
   -6.3350   -2.8815   -1.5682 C   0  0  0  0  0  0  0  0  0  0  0  0
   -6.1220   -2.8829   -2.8071 O   0  0  0  0  0  0  0  0  0  0  0  0
   -7.5844   -2.3673   -1.0818 N   0  0  0  0  0  0  0  0  0  0  0  0
   -7.7913   -1.8478    0.2818 C   0  0  2  0  0  0  0  0  0  0  0  0
   -8.3908   -2.9429    1.1635 C   0  0  0  0  0  0  0  0  0  0  0  0
   -8.7206   -0.6509    0.2751 C   0  0  0  0  0  0  0  0  0  0  0  0
   -9.5117   -0.4770   -0.6988 O   0  0  0  0  0  0  0  0  0  0  0  0
   -8.7773    0.2722    1.3750 N   0  0  0  0  0  0  0  0  0  0  0  0
   -7.6501    0.5268    2.2842 C   0  0  2  0  0  0  0  0  0  0  0  0
   -8.0743    1.4165    3.4594 C   0  0  0  0  0  0  0  0  0  0  0  0
   -6.4892    1.1564    1.5500 C   0  0  0  0  0  0  0  0  0  0  0  0
   -5.3234    0.9782    1.9967 O   0  0  0  0  0  0  0  0  0  0  0  0
   -6.6582    1.9188    0.3437 N   0  0  0  0  0  0  0  0  0  0  0  0
   -7.6779    2.9622    0.1754 C   0  0  2  0  0  0  0  0  0  0  0  0
   -8.2127    2.9160   -1.2601 C   0  0  0  0  0  0  0  0  0  0  0  0
   -7.1143    4.3295    0.4743 C   0  0  0  0  0  0  0  0  0  0  0  0
   -7.8709    5.3376    0.4127 O   0  0  0  0  0  0  0  0  0  0  0  0
   -5.7302    4.5011    0.8052 N   0  0  0  0  0  0  0  0  0  0  0  0
   -4.9554    5.6622    0.3513 C   0  0  2  0  0  0  0  0  0  0  0  0
   -5.0727    5.8519   -1.1439 C   0  0  0  0  0  0  0  0  0  0  0  0
   -4.8651    7.1499   -1.7173 N   0  0  0  0  0  0  0  0  0  0  0  0
   -5.3519    4.8768   -1.8963 O   0  0  0  0  0  0  0  0  0  0  0  0
   -3.4762    5.5577    0.8003 C   0  0  0  0  0  0  0  0  0  0  0  0
   -2.7175    3.9086    0.4785 S   0  0  0  0  0  0  0  0  0  0  0  0
   -2.2465    4.1802   -1.2634 C   0  0  0  0  0  0  0  0  0  0  0  0
    7.2784    4.7266    3.3996 H   0  0  0  0  0  0  0  0  0  0  0  0
    8.2903    5.6610    2.2321 H   0  0  0  0  0  0  0  0  0  0  0  0
    6.6911    6.3165    2.7703 H   0  0  0  0  0  0  0  0  0  0  0  0
    6.0613    2.9489    2.4522 H   0  0  0  0  0  0  0  0  0  0  0  0
    5.5213    3.2142   -0.5446 H   0  0  0  0  0  0  0  0  0  0  0  0
    3.9638    1.8428    1.7338 H   0  0  0  0  0  0  0  0  0  0  0  0
    3.6560    1.4618    0.0193 H   0  0  0  0  0  0  0  0  0  0  0  0
    3.5390    3.0629   -1.7530 H   0  0  0  0  0  0  0  0  0  0  0  0
    2.8100    4.6814   -1.6728 H   0  0  0  0  0  0  0  0  0  0  0  0
    0.3481    4.8633   -0.9071 H   0  0  0  0  0  0  0  0  0  0  0  0
   -2.1621    1.6102   -2.1764 H   0  0  0  0  0  0  0  0  0  0  0  0
    2.1215    1.1571   -2.1696 H   0  0  0  0  0  0  0  0  0  0  0  0
    0.7796   -0.6609   -2.8861 H   0  0  0  0  0  0  0  0  0  0  0  0
   -0.8569   -0.2893   -3.4983 H   0  0  0  0  0  0  0  0  0  0  0  0
    1.2847   -1.7040   -0.6624 H   0  0  0  0  0  0  0  0  0  0  0  0
    0.5710   -2.8806   -1.8331 H   0  0  0  0  0  0  0  0  0  0  0  0
   -0.1082   -2.6492    1.1875 H   0  0  0  0  0  0  0  0  0  0  0  0
    1.0088   -5.1895    0.3658 H   0  0  0  0  0  0  0  0  0  0  0  0
    4.3606   -4.7435    0.6585 H   0  0  0  0  0  0  0  0  0  0  0  0
    4.0640   -5.7483   -1.6973 H   0  0  0  0  0  0  0  0  0  0  0  0
    2.4307   -5.0175   -1.7478 H   0  0  0  0  0  0  0  0  0  0  0  0
    2.8345   -6.2793   -0.5097 H   0  0  0  0  0  0  0  0  0  0  0  0
    3.7757   -2.4535   -1.2162 H   0  0  0  0  0  0  0  0  0  0  0  0
    6.0464   -5.3360   -0.7368 H   0  0  0  0  0  0  0  0  0  0  0  0
    6.9293   -4.9685   -2.9793 H   0  0  0  0  0  0  0  0  0  0  0  0
    8.1985   -5.6092   -1.8708 H   0  0  0  0  0  0  0  0  0  0  0  0
    8.2044   -3.8660   -2.3414 H   0  0  0  0  0  0  0  0  0  0  0  0
    7.2416   -4.8331    1.1538 H   0  0  0  0  0  0  0  0  0  0  0  0
    7.6680   -1.6576    0.7615 H   0  0  0  0  0  0  0  0  0  0  0  0
    9.3705   -0.6698    2.1835 H   0  0  0  0  0  0  0  0  0  0  0  0
    9.2600   -2.3728    2.6659 H   0  0  0  0  0  0  0  0  0  0  0  0
   10.6316   -1.8416    1.6196 H   0  0  0  0  0  0  0  0  0  0  0  0
    9.7072   -1.9184   -1.3445 H   0  0  0  0  0  0  0  0  0  0  0  0
    9.6850    0.9800    0.7182 H   0  0  0  0  0  0  0  0  0  0  0  0
    9.1112    3.2913    0.1233 H   0  0  0  0  0  0  0  0  0  0  0  0
    8.2910    2.7335   -1.3846 H   0  0  0  0  0  0  0  0  0  0  0  0
   10.0750    2.4982   -1.1777 H   0  0  0  0  0  0  0  0  0  0  0  0
    7.6375    1.2699    1.7832 H   0  0  0  0  0  0  0  0  0  0  0  0
   -2.6033   -5.2129    1.0628 H   0  0  0  0  0  0  0  0  0  0  0  0
   -2.1571   -2.5720    2.2362 H   0  0  0  0  0  0  0  0  0  0  0  0
   -4.6307   -4.3934    2.1420 H   0  0  0  0  0  0  0  0  0  0  0  0
   -3.4407   -4.1641    3.4675 H   0  0  0  0  0  0  0  0  0  0  0  0
   -4.5592   -2.8190    3.0320 H   0  0  0  0  0  0  0  0  0  0  0  0
   -3.8598   -2.0802   -1.4600 H   0  0  0  0  0  0  0  0  0  0  0  0
   -5.7214   -3.5684    0.3706 H   0  0  0  0  0  0  0  0  0  0  0  0
   -5.8166   -5.4673   -1.3877 H   0  0  0  0  0  0  0  0  0  0  0  0
   -4.4070   -5.4408   -0.2976 H   0  0  0  0  0  0  0  0  0  0  0  0
   -4.2349   -4.8458   -1.9937 H   0  0  0  0  0  0  0  0  0  0  0  0
   -8.3872   -2.3816   -1.7518 H   0  0  0  0  0  0  0  0  0  0  0  0
   -6.8062   -1.5345    0.6927 H   0  0  0  0  0  0  0  0  0  0  0  0
   -8.4152   -2.6096    2.2235 H   0  0  0  0  0  0  0  0  0  0  0  0
   -9.4315   -3.1795    0.8423 H   0  0  0  0  0  0  0  0  0  0  0  0
   -7.8007   -3.8790    1.1175 H   0  0  0  0  0  0  0  0  0  0  0  0
   -9.6667    0.8009    1.5187 H   0  0  0  0  0  0  0  0  0  0  0  0
   -7.3194   -0.4435    2.7149 H   0  0  0  0  0  0  0  0  0  0  0  0
   -7.2638    1.4436    4.2189 H   0  0  0  0  0  0  0  0  0  0  0  0
   -8.2783    2.4555    3.1303 H   0  0  0  0  0  0  0  0  0  0  0  0
   -8.9845    1.0014    3.9358 H   0  0  0  0  0  0  0  0  0  0  0  0
   -5.8448    1.9397   -0.3143 H   0  0  0  0  0  0  0  0  0  0  0  0
   -8.5321    2.7890    0.8562 H   0  0  0  0  0  0  0  0  0  0  0  0
   -9.0008    3.6876   -1.4067 H   0  0  0  0  0  0  0  0  0  0  0  0
   -7.3908    3.0864   -1.9866 H   0  0  0  0  0  0  0  0  0  0  0  0
   -8.6608    1.9225   -1.4648 H   0  0  0  0  0  0  0  0  0  0  0  0
   -5.2850    3.7830    1.4181 H   0  0  0  0  0  0  0  0  0  0  0  0
   -5.3848    6.5718    0.8363 H   0  0  0  0  0  0  0  0  0  0  0  0
   -4.9367    7.2837   -2.7533 H   0  0  0  0  0  0  0  0  0  0  0  0
   -4.5473    7.9507   -1.1280 H   0  0  0  0  0  0  0  0  0  0  0  0
   -2.8668    6.3721    0.3473 H   0  0  0  0  0  0  0  0  0  0  0  0
   -3.4455    5.7115    1.8993 H   0  0  0  0  0  0  0  0  0  0  0  0
   -2.0312    5.2525   -1.4713 H   0  0  0  0  0  0  0  0  0  0  0  0
   -3.0832    3.8724   -1.9202 H   0  0  0  0  0  0  0  0  0  0  0  0
  1  2  1  0
  2  3  2  0
  2  4  1  0
  4  5  1  0
  5  6  1  0
  6  7  1  0
  7  8  1  0
  8  9  1  0
  9 10  2  0
 10 11  1  0
 11 12  2  0
 12 13  1  0
 13 14  2  0
 13 15  1  0
 15 16  1  0
 16 17  1  0
 17 18  1  0
 18 19  1  0
 19 20  1  0
 20 21  2  0
 20 22  1  0
 22 23  1  0
 22 24  1  0
 24 25  1  0
 25 26  2  0
 25 27  1  0
 27 28  1  0
 27 29  1  0
 29 30  1  0
 30 31  2  0
 30 32  1  0
 32 33  1  0
 32 34  1  0
 34 35  1  0
 35 36  2  0
 35 37  1  0
 37 38  1  0
 37 39  1  0
 39 40  1  0
 40 41  2  0
 18 42  1  0
 42 43  2  0
 42 44  1  0
 44 45  1  0
 45 46  1  0
 45 47  1  0
 47 48  2  0
 47 49  1  0
 49 50  1  0
 50 51  1  0
 50 52  1  0
 52 53  2  0
 52 54  1  0
 54 55  1  0
 55 56  1  0
 55 57  1  0
 57 58  2  0
 57 59  1  0
 59 60  1  0
 60 61  1  0
 60 62  1  0
 62 63  2  0
 62 64  1  0
 64 65  1  0
 65 66  1  0
 65 67  1  0
 67 68  2  0
 67 69  1  0
 69 70  1  0
 70 71  1  0
 71 72  1  0
 71 73  2  0
 70 74  1  0
 74 75  1  0
 75 76  1  0
 40  5  1  0
 14  9  1  0
 76 11  1  0
  1 77  1  0
  1 78  1  0
  1 79  1  0
  4 80  1  0
  5 81  1  6
  6 82  1  0
  6 83  1  0
  8 84  1  0
  8 85  1  0
 10 86  1  0
 12 87  1  0
 14 88  1  0
 15 89  1  0
 15 90  1  0
 17 91  1  0
 17 92  1  0
 18 93  1  1
 19 94  1  0
 22 95  1  1
 23 96  1  0
 23 97  1  0
 23 98  1  0
 24 99  1  0
 27100  1  1
 28101  1  0
 28102  1  0
 28103  1  0
 29104  1  0
 32105  1  1
 33106  1  0
 33107  1  0
 33108  1  0
 34109  1  0
 37110  1  1
 38111  1  0
 38112  1  0
 38113  1  0
 39114  1  0
 44115  1  0
 45116  1  1
 46117  1  0
 46118  1  0
 46119  1  0
 49120  1  0
 50121  1  1
 51122  1  0
 51123  1  0
 51124  1  0
 54125  1  0
 55126  1  1
 56127  1  0
 56128  1  0
 56129  1  0
 59130  1  0
 60131  1  1
 61132  1  0
 61133  1  0
 61134  1  0
 64135  1  0
 65136  1  1
 66137  1  0
 66138  1  0
 66139  1  0
 69140  1  0
 70141  1  1
 72142  1  0
 72143  1  0
 74144  1  0
 74145  1  0
 76146  1  0
 76147  1  0
M  END
