
     RDKit          3D

147149  0  0  0  0  0  0  0  0999 V2000
    7.1363    5.3617   -2.5422 C   0  0  0  0  0  0  0  0  0  0  0  0
    7.5677    3.9348   -2.3650 C   0  0  0  0  0  0  0  0  0  0  0  0
    8.0083    3.3069   -3.3632 O   0  0  0  0  0  0  0  0  0  0  0  0
    7.4999    3.2648   -1.0955 N   0  0  0  0  0  0  0  0  0  0  0  0
    7.0707    3.8803    0.1620 C   0  0  1  0  0  0  0  0  0  0  0  0
    5.6951    3.3284    0.6071 C   0  0  0  0  0  0  0  0  0  0  0  0
    4.3621    4.5347    0.2687 S   0  0  0  0  0  0  0  0  0  0  0  0
    3.7668    3.8323   -1.3126 C   0  0  0  0  0  0  0  0  0  0  0  0
    2.4434    3.1639   -1.0738 C   0  0  0  0  0  0  0  0  0  0  0  0
    1.2528    3.9016   -1.1811 C   0  0  0  0  0  0  0  0  0  0  0  0
    0.0208    3.3152   -0.8602 C   0  0  0  0  0  0  0  0  0  0  0  0
   -0.0144    1.9892   -0.4098 C   0  0  0  0  0  0  0  0  0  0  0  0
    1.1697    1.2530   -0.2641 C   0  0  0  0  0  0  0  0  0  0  0  0
    2.3942    1.8366   -0.6230 C   0  0  0  0  0  0  0  0  0  0  0  0
    1.1172   -0.1312    0.3125 C   0  0  0  0  0  0  0  0  0  0  0  0
    0.8154   -1.3516   -1.0094 S   0  0  0  0  0  0  0  0  0  0  0  0
    0.0816   -2.5979    0.1086 C   0  0  0  0  0  0  0  0  0  0  0  0
   -0.1122   -3.9669   -0.5678 C   0  0  2  0  0  0  0  0  0  0  0  0
    1.0238   -4.3462   -1.4317 N   0  0  0  0  0  0  0  0  0  0  0  0
    2.3775   -4.6758   -1.0371 C   0  0  0  0  0  0  0  0  0  0  0  0
    3.1417   -5.1526   -1.9243 O   0  0  0  0  0  0  0  0  0  0  0  0
    2.9415   -4.4705    0.3584 C   0  0  1  0  0  0  0  0  0  0  0  0
    2.3837   -5.4959    1.3542 C   0  0  0  0  0  0  0  0  0  0  0  0
    4.4058   -4.5954    0.3206 N   0  0  0  0  0  0  0  0  0  0  0  0
    5.3327   -3.5056    0.1645 C   0  0  0  0  0  0  0  0  0  0  0  0
    6.5427   -3.7111    0.4385 O   0  0  0  0  0  0  0  0  0  0  0  0
    4.9001   -2.1194   -0.2598 C   0  0  1  0  0  0  0  0  0  0  0  0
    4.9696   -1.1479    0.9263 C   0  0  0  0  0  0  0  0  0  0  0  0
    5.6705   -1.6625   -1.4253 N   0  0  0  0  0  0  0  0  0  0  0  0
    6.7911   -0.7657   -1.4129 C   0  0  0  0  0  0  0  0  0  0  0  0
    6.7325    0.2725   -2.1169 O   0  0  0  0  0  0  0  0  0  0  0  0
    8.0818   -1.1290   -0.7142 C   0  0  1  0  0  0  0  0  0  0  0  0
    8.7738   -2.2694   -1.4717 C   0  0  0  0  0  0  0  0  0  0  0  0
    8.9931    0.0220   -0.6408 N   0  0  0  0  0  0  0  0  0  0  0  0
    9.2459    0.7922    0.5482 C   0  0  0  0  0  0  0  0  0  0  0  0
   10.4109    1.2302    0.7539 O   0  0  0  0  0  0  0  0  0  0  0  0
    8.1510    1.1339    1.5291 C   0  0  1  0  0  0  0  0  0  0  0  0
    8.2069    0.1779    2.7286 C   0  0  0  0  0  0  0  0  0  0  0  0
    8.3067    2.5171    2.0054 N   0  0  0  0  0  0  0  0  0  0  0  0
    8.1405    3.7119    1.2204 C   0  0  0  0  0  0  0  0  0  0  0  0
    8.8727    4.7042    1.4828 O   0  0  0  0  0  0  0  0  0  0  0  0
   -1.3919   -3.9564   -1.3798 C   0  0  0  0  0  0  0  0  0  0  0  0
   -1.4434   -3.3081   -2.4582 O   0  0  0  0  0  0  0  0  0  0  0  0
   -2.5391   -4.7083   -0.9643 N   0  0  0  0  0  0  0  0  0  0  0  0
   -3.0917   -4.6147    0.3910 C   0  0  2  0  0  0  0  0  0  0  0  0
   -3.2794   -6.0213    0.9609 C   0  0  0  0  0  0  0  0  0  0  0  0
   -4.4075   -3.8676    0.4076 C   0  0  0  0  0  0  0  0  0  0  0  0
   -4.9002   -3.5296    1.5211 O   0  0  0  0  0  0  0  0  0  0  0  0
   -5.1272   -3.5671   -0.7980 N   0  0  0  0  0  0  0  0  0  0  0  0
   -6.5451   -3.9168   -0.9248 C   0  0  2  0  0  0  0  0  0  0  0  0
   -6.6738   -5.2972   -1.5721 C   0  0  0  0  0  0  0  0  0  0  0  0
   -7.2685   -2.8777   -1.7516 C   0  0  0  0  0  0  0  0  0  0  0  0
   -6.9297   -2.7128   -2.9550 O   0  0  0  0  0  0  0  0  0  0  0  0
   -8.3628   -2.0996   -1.2308 N   0  0  0  0  0  0  0  0  0  0  0  0
   -8.5761   -1.8227    0.1925 C   0  0  2  0  0  0  0  0  0  0  0  0
   -9.5590   -2.8589    0.7601 C   0  0  0  0  0  0  0  0  0  0  0  0
   -9.0853   -0.4023    0.3943 C   0  0  0  0  0  0  0  0  0  0  0  0
  -10.1719   -0.2217    1.0054 O   0  0  0  0  0  0  0  0  0  0  0  0
   -8.3629    0.7664   -0.0489 N   0  0  0  0  0  0  0  0  0  0  0  0
   -7.1287    0.7755   -0.8472 C   0  0  2  0  0  0  0  0  0  0  0  0
   -5.9165    0.3149   -0.0224 C   0  0  0  0  0  0  0  0  0  0  0  0
   -6.8968    2.1384   -1.4733 C   0  0  0  0  0  0  0  0  0  0  0  0
   -7.1425    2.2831   -2.7029 O   0  0  0  0  0  0  0  0  0  0  0  0
   -6.3338    3.2466   -0.7531 N   0  0  0  0  0  0  0  0  0  0  0  0
   -7.0352    3.9043    0.3577 C   0  0  2  0  0  0  0  0  0  0  0  0
   -6.8552    5.4262    0.3260 C   0  0  0  0  0  0  0  0  0  0  0  0
   -6.6536    3.3116    1.6944 C   0  0  0  0  0  0  0  0  0  0  0  0
   -7.5847    3.0192    2.4913 O   0  0  0  0  0  0  0  0  0  0  0  0
   -5.3081    2.9549    2.0632 N   0  0  0  0  0  0  0  0  0  0  0  0
   -4.1325    3.8378    2.0791 C   0  0  2  0  0  0  0  0  0  0  0  0
   -4.4688    5.1973    2.6468 C   0  0  0  0  0  0  0  0  0  0  0  0
   -5.1532    5.2954    3.8957 N   0  0  0  0  0  0  0  0  0  0  0  0
   -4.1191    6.2549    2.0529 O   0  0  0  0  0  0  0  0  0  0  0  0
   -3.4439    3.8662    0.7034 C   0  0  0  0  0  0  0  0  0  0  0  0
   -1.7358    4.5032    0.8399 S   0  0  0  0  0  0  0  0  0  0  0  0
   -1.2475    4.1199   -0.8836 C   0  0  0  0  0  0  0  0  0  0  0  0
    7.7880    6.0327   -1.9435 H   0  0  0  0  0  0  0  0  0  0  0  0
    6.0839    5.4757   -2.2121 H   0  0  0  0  0  0  0  0  0  0  0  0
    7.2053    5.6576   -3.6099 H   0  0  0  0  0  0  0  0  0  0  0  0
    7.7560    2.2605   -1.0837 H   0  0  0  0  0  0  0  0  0  0  0  0
    6.9669    4.9724    0.0182 H   0  0  0  0  0  0  0  0  0  0  0  0
    5.4797    2.3476    0.1343 H   0  0  0  0  0  0  0  0  0  0  0  0
    5.6842    3.1525    1.7054 H   0  0  0  0  0  0  0  0  0  0  0  0
    3.6377    4.6713   -2.0325 H   0  0  0  0  0  0  0  0  0  0  0  0
    4.4894    3.1262   -1.7717 H   0  0  0  0  0  0  0  0  0  0  0  0
    1.2892    4.9411   -1.4880 H   0  0  0  0  0  0  0  0  0  0  0  0
   -0.9623    1.5479   -0.1211 H   0  0  0  0  0  0  0  0  0  0  0  0
    3.3091    1.2712   -0.5210 H   0  0  0  0  0  0  0  0  0  0  0  0
    0.3087   -0.1734    1.0752 H   0  0  0  0  0  0  0  0  0  0  0  0
    2.0674   -0.3769    0.8291 H   0  0  0  0  0  0  0  0  0  0  0  0
   -0.8994   -2.2124    0.4551 H   0  0  0  0  0  0  0  0  0  0  0  0
    0.6941   -2.7119    1.0187 H   0  0  0  0  0  0  0  0  0  0  0  0
   -0.2361   -4.7384    0.2198 H   0  0  0  0  0  0  0  0  0  0  0  0
    0.8227   -4.4975   -2.4474 H   0  0  0  0  0  0  0  0  0  0  0  0
    2.6834   -3.4645    0.7349 H   0  0  0  0  0  0  0  0  0  0  0  0
    2.4330   -6.5226    0.9324 H   0  0  0  0  0  0  0  0  0  0  0  0
    2.9872   -5.4732    2.2876 H   0  0  0  0  0  0  0  0  0  0  0  0
    1.3417   -5.2560    1.6376 H   0  0  0  0  0  0  0  0  0  0  0  0
    4.8174   -5.5560    0.4141 H   0  0  0  0  0  0  0  0  0  0  0  0
    3.8401   -2.1427   -0.5833 H   0  0  0  0  0  0  0  0  0  0  0  0
    5.9467   -1.2047    1.4414 H   0  0  0  0  0  0  0  0  0  0  0  0
    4.8012   -0.1063    0.5889 H   0  0  0  0  0  0  0  0  0  0  0  0
    4.1880   -1.4115    1.6681 H   0  0  0  0  0  0  0  0  0  0  0  0
    5.2209   -1.8169   -2.3587 H   0  0  0  0  0  0  0  0  0  0  0  0
    7.8585   -1.4950    0.2997 H   0  0  0  0  0  0  0  0  0  0  0  0
    9.6828   -2.5879   -0.9210 H   0  0  0  0  0  0  0  0  0  0  0  0
    8.0981   -3.1433   -1.5701 H   0  0  0  0  0  0  0  0  0  0  0  0
    9.0683   -1.9393   -2.4919 H   0  0  0  0  0  0  0  0  0  0  0  0
    9.5927    0.2305   -1.4723 H   0  0  0  0  0  0  0  0  0  0  0  0
    7.1635    1.0150    1.0384 H   0  0  0  0  0  0  0  0  0  0  0  0
    7.3622    0.3923    3.4153 H   0  0  0  0  0  0  0  0  0  0  0  0
    9.1605    0.3089    3.2834 H   0  0  0  0  0  0  0  0  0  0  0  0
    8.1369   -0.8811    2.4119 H   0  0  0  0  0  0  0  0  0  0  0  0
    8.7061    2.6603    2.9638 H   0  0  0  0  0  0  0  0  0  0  0  0
   -3.1066   -5.1858   -1.7036 H   0  0  0  0  0  0  0  0  0  0  0  0
   -2.3840   -4.0683    1.0529 H   0  0  0  0  0  0  0  0  0  0  0  0
   -2.3102   -6.5681    0.9605 H   0  0  0  0  0  0  0  0  0  0  0  0
   -3.6403   -5.9663    2.0116 H   0  0  0  0  0  0  0  0  0  0  0  0
   -4.0163   -6.5934    0.3604 H   0  0  0  0  0  0  0  0  0  0  0  0
   -4.5906   -3.3605   -1.6681 H   0  0  0  0  0  0  0  0  0  0  0  0
   -6.9939   -3.9937    0.0865 H   0  0  0  0  0  0  0  0  0  0  0  0
   -6.2212   -6.0665   -0.9137 H   0  0  0  0  0  0  0  0  0  0  0  0
   -7.7469   -5.5540   -1.7306 H   0  0  0  0  0  0  0  0  0  0  0  0
   -6.1485   -5.3201   -2.5529 H   0  0  0  0  0  0  0  0  0  0  0  0
   -9.0120   -1.6572   -1.9224 H   0  0  0  0  0  0  0  0  0  0  0  0
   -7.6248   -1.9163    0.7507 H   0  0  0  0  0  0  0  0  0  0  0  0
  -10.5522   -2.7600    0.2662 H   0  0  0  0  0  0  0  0  0  0  0  0
   -9.6795   -2.7144    1.8545 H   0  0  0  0  0  0  0  0  0  0  0  0
   -9.1974   -3.8934    0.5842 H   0  0  0  0  0  0  0  0  0  0  0  0
   -8.8392    1.6741    0.1371 H   0  0  0  0  0  0  0  0  0  0  0  0
   -7.2484    0.0692   -1.6951 H   0  0  0  0  0  0  0  0  0  0  0  0
   -4.9727    0.7574   -0.4082 H   0  0  0  0  0  0  0  0  0  0  0  0
   -6.0401    0.5866    1.0445 H   0  0  0  0  0  0  0  0  0  0  0  0
   -5.8078   -0.7860   -0.0823 H   0  0  0  0  0  0  0  0  0  0  0  0
   -5.6714    3.8274   -1.3115 H   0  0  0  0  0  0  0  0  0  0  0  0
   -8.1296    3.7559    0.2214 H   0  0  0  0  0  0  0  0  0  0  0  0
   -7.2545    5.8892    1.2557 H   0  0  0  0  0  0  0  0  0  0  0  0
   -7.4180    5.8477   -0.5365 H   0  0  0  0  0  0  0  0  0  0  0  0
   -5.7993    5.7235    0.2029 H   0  0  0  0  0  0  0  0  0  0  0  0
   -5.2177    2.0984    2.6590 H   0  0  0  0  0  0  0  0  0  0  0  0
   -3.3948    3.3913    2.7856 H   0  0  0  0  0  0  0  0  0  0  0  0
   -5.3843    6.2298    4.3009 H   0  0  0  0  0  0  0  0  0  0  0  0
   -5.4427    4.4391    4.4140 H   0  0  0  0  0  0  0  0  0  0  0  0
   -3.4156    2.8289    0.3016 H   0  0  0  0  0  0  0  0  0  0  0  0
   -3.9858    4.5081   -0.0086 H   0  0  0  0  0  0  0  0  0  0  0  0
   -1.1022    5.0734   -1.4332 H   0  0  0  0  0  0  0  0  0  0  0  0
   -2.0250    3.5483   -1.4328 H   0  0  0  0  0  0  0  0  0  0  0  0
  1  2  1  0
  2  3  2  0
  2  4  1  0
  4  5  1  0
  5  6  1  0
  6  7  1  0
  7  8  1  0
  8  9  1  0
  9 10  2  0
 10 11  1  0
 11 12  2  0
 12 13  1  0
 13 14  2  0
 13 15  1  0
 15 16  1  0
 16 17  1  0
 17 18  1  0
 18 19  1  0
 19 20  1  0
 20 21  2  0
 20 22  1  0
 22 23  1  0
 22 24  1  0
 24 25  1  0
 25 26  2  0
 25 27  1  0
 27 28  1  0
 27 29  1  0
 29 30  1  0
 30 31  2  0
 30 32  1  0
 32 33  1  0
 32 34  1  0
 34 35  1  0
 35 36  2  0
 35 37  1  0
 37 38  1  0
 37 39  1  0
 39 40  1  0
 40 41  2  0
 18 42  1  0
 42 43  2  0
 42 44  1  0
 44 45  1  0
 45 46  1  0
 45 47  1  0
 47 48  2  0
 47 49  1  0
 49 50  1  0
 50 51  1  0
 50 52  1  0
 52 53  2  0
 52 54  1  0
 54 55  1  0
 55 56  1  0
 55 57  1  0
 57 58  2  0
 57 59  1  0
 59 60  1  0
 60 61  1  0
 60 62  1  0
 62 63  2  0
 62 64  1  0
 64 65  1  0
 65 66  1  0
 65 67  1  0
 67 68  2  0
 67 69  1  0
 69 70  1  0
 70 71  1  0
 71 72  1  0
 71 73  2  0
 70 74  1  0
 74 75  1  0
 75 76  1  0
 40  5  1  0
 14  9  1  0
 76 11  1  0
  1 77  1  0
  1 78  1  0
  1 79  1  0
  4 80  1  0
  5 81  1  6
  6 82  1  0
  6 83  1  0
  8 84  1  0
  8 85  1  0
 10 86  1  0
 12 87  1  0
 14 88  1  0
 15 89  1  0
 15 90  1  0
 17 91  1  0
 17 92  1  0
 18 93  1  1
 19 94  1  0
 22 95  1  1
 23 96  1  0
 23 97  1  0
 23 98  1  0
 24 99  1  0
 27100  1  6
 28101  1  0
 28102  1  0
 28103  1  0
 29104  1  0
 32105  1  1
 33106  1  0
 33107  1  0
 33108  1  0
 34109  1  0
 37110  1  6
 38111  1  0
 38112  1  0
 38113  1  0
 39114  1  0
 44115  1  0
 45116  1  1
 46117  1  0
 46118  1  0
 46119  1  0
 49120  1  0
 50121  1  1
 51122  1  0
 51123  1  0
 51124  1  0
 54125  1  0
 55126  1  1
 56127  1  0
 56128  1  0
 56129  1  0
 59130  1  0
 60131  1  6
 61132  1  0
 61133  1  0
 61134  1  0
 64135  1  0
 65136  1  6
 66137  1  0
 66138  1  0
 66139  1  0
 69140  1  0
 70141  1  1
 72142  1  0
 72143  1  0
 74144  1  0
 74145  1  0
 76146  1  0
 76147  1  0
M  END
