
     RDKit          3D

137139  0  0  0  0  0  0  0  0999 V2000
   -7.9262    6.5970    1.8764 C   0  0  0  0  0  0  0  0  0  0  0  0
   -7.5867    5.2333    1.3815 C   0  0  0  0  0  0  0  0  0  0  0  0
   -8.3196    4.2529    1.6958 O   0  0  0  0  0  0  0  0  0  0  0  0
   -6.4436    5.0392    0.5311 N   0  0  0  0  0  0  0  0  0  0  0  0
   -6.1339    3.7494   -0.0928 C   0  0  2  0  0  0  0  0  0  0  0  0
   -4.6446    3.6963   -0.4780 C   0  0  0  0  0  0  0  0  0  0  0  0
   -3.5841    3.8109    1.0095 S   0  0  0  0  0  0  0  0  0  0  0  0
   -2.0848    4.4346    0.1531 C   0  0  0  0  0  0  0  0  0  0  0  0
   -0.8673    3.5570    0.3643 C   0  0  0  0  0  0  0  0  0  0  0  0
    0.3990    4.1564    0.4731 C   0  0  0  0  0  0  0  0  0  0  0  0
    1.5566    3.3774    0.6041 C   0  0  0  0  0  0  0  0  0  0  0  0
    1.4381    1.9797    0.6565 C   0  0  0  0  0  0  0  0  0  0  0  0
    0.1792    1.3642    0.5527 C   0  0  0  0  0  0  0  0  0  0  0  0
   -0.9654    2.1556    0.3876 C   0  0  0  0  0  0  0  0  0  0  0  0
    0.0521   -0.1312    0.6802 C   0  0  0  0  0  0  0  0  0  0  0  0
   -0.0686   -0.5580    2.4546 S   0  0  0  0  0  0  0  0  0  0  0  0
   -0.5679   -2.3131    2.2720 C   0  0  0  0  0  0  0  0  0  0  0  0
    0.4206   -3.1831    1.4601 C   0  0  2  0  0  0  0  0  0  0  0  0
    0.0074   -4.5891    1.5227 N   0  0  0  0  0  0  0  0  0  0  0  0
   -0.5796   -5.2720    0.4098 C   0  0  0  0  0  0  0  0  0  0  0  0
   -0.1615   -6.4242    0.1087 O   0  0  0  0  0  0  0  0  0  0  0  0
   -1.7932   -4.7142   -0.2844 C   0  0  1  0  0  0  0  0  0  0  0  0
   -1.7417   -4.9732   -1.7895 C   0  0  0  0  0  0  0  0  0  0  0  0
   -2.9808   -5.3500    0.2903 N   0  0  0  0  0  0  0  0  0  0  0  0
   -4.0637   -4.6142    0.8760 C   0  0  0  0  0  0  0  0  0  0  0  0
   -4.5433   -5.0058    1.9738 O   0  0  0  0  0  0  0  0  0  0  0  0
   -4.7393   -3.4943    0.1205 C   0  0  1  0  0  0  0  0  0  0  0  0
   -5.7657   -4.0969   -0.8454 C   0  0  0  0  0  0  0  0  0  0  0  0
   -5.3111   -2.5196    1.0644 N   0  0  0  0  0  0  0  0  0  0  0  0
   -6.7143   -2.3405    1.3139 C   0  0  0  0  0  0  0  0  0  0  0  0
   -7.2022   -2.7690    2.3961 O   0  0  0  0  0  0  0  0  0  0  0  0
   -7.5853   -1.5771    0.3399 C   0  0  1  0  0  0  0  0  0  0  0  0
   -8.8021   -2.4247   -0.0908 C   0  0  0  0  0  0  0  0  0  0  0  0
   -8.0490   -0.3263    0.9604 N   0  0  0  0  0  0  0  0  0  0  0  0
   -8.5391    0.7919    0.1937 C   0  0  0  0  0  0  0  0  0  0  0  0
   -9.5276    1.4364    0.6361 O   0  0  0  0  0  0  0  0  0  0  0  0
   -7.8990    1.2099   -1.1147 C   0  0  1  0  0  0  0  0  0  0  0  0
   -8.5205    0.4600   -2.2981 C   0  0  0  0  0  0  0  0  0  0  0  0
   -8.0819    2.6490   -1.3261 N   0  0  0  0  0  0  0  0  0  0  0  0
   -7.0047    3.5884   -1.3196 C   0  0  0  0  0  0  0  0  0  0  0  0
   -6.8566    4.3446   -2.3144 O   0  0  0  0  0  0  0  0  0  0  0  0
    1.8480   -3.0645    1.9620 C   0  0  0  0  0  0  0  0  0  0  0  0
    2.0611   -2.8948    3.1900 O   0  0  0  0  0  0  0  0  0  0  0  0
    2.9703   -3.1814    1.0802 N   0  0  0  0  0  0  0  0  0  0  0  0
    2.9861   -4.0911   -0.0717 C   0  0  2  0  0  0  0  0  0  0  0  0
    3.2776   -5.5205    0.3966 C   0  0  0  0  0  0  0  0  0  0  0  0
    4.0053   -3.5961   -1.0653 C   0  0  0  0  0  0  0  0  0  0  0  0
    3.6774   -2.6846   -1.8683 O   0  0  0  0  0  0  0  0  0  0  0  0
    5.3664   -4.0766   -1.0468 N   0  0  0  0  0  0  0  0  0  0  0  0
    6.5322   -3.2645   -1.4664 C   0  0  2  0  0  0  0  0  0  0  0  0
    7.8018   -3.7817   -0.7929 C   0  0  0  0  0  0  0  0  0  0  0  0
    6.3236   -1.8027   -1.1844 C   0  0  0  0  0  0  0  0  0  0  0  0
    6.0240   -1.0307   -2.1400 O   0  0  0  0  0  0  0  0  0  0  0  0
    6.3263   -1.2909    0.1553 N   0  0  0  0  0  0  0  0  0  0  0  0
    7.5343   -0.7183    0.7723 C   0  0  2  0  0  0  0  0  0  0  0  0
    7.2730   -0.3957    2.2526 C   0  0  0  0  0  0  0  0  0  0  0  0
    7.9967    0.5196    0.0401 C   0  0  0  0  0  0  0  0  0  0  0  0
    9.2013    0.8796    0.1517 O   0  0  0  0  0  0  0  0  0  0  0  0
    7.0757    1.2886   -0.7450 N   0  0  0  0  0  0  0  0  0  0  0  0
    7.4624    2.1409   -1.8806 C   0  0  2  0  0  0  0  0  0  0  0  0
    8.4072    1.4096   -2.8466 C   0  0  0  0  0  0  0  0  0  0  0  0
    8.0461    3.4438   -1.3996 C   0  0  0  0  0  0  0  0  0  0  0  0
    9.2410    3.4812   -1.0116 O   0  0  0  0  0  0  0  0  0  0  0  0
    7.2880    4.6657   -1.4140 N   0  0  0  0  0  0  0  0  0  0  0  0
    6.0291    4.8982   -0.6845 C   0  0  2  0  0  0  0  0  0  0  0  0
    6.2087    4.6051    0.7888 C   0  0  0  0  0  0  0  0  0  0  0  0
    6.0261    5.6464    1.7552 N   0  0  0  0  0  0  0  0  0  0  0  0
    6.5085    3.4435    1.1749 O   0  0  0  0  0  0  0  0  0  0  0  0
    4.8491    4.1203   -1.3000 C   0  0  0  0  0  0  0  0  0  0  0  0
    3.2481    4.9186   -0.8930 S   0  0  0  0  0  0  0  0  0  0  0  0
    2.9035    4.0418    0.6682 C   0  0  0  0  0  0  0  0  0  0  0  0
   -8.8464    6.5660    2.4948 H   0  0  0  0  0  0  0  0  0  0  0  0
   -8.0915    7.2828    1.0145 H   0  0  0  0  0  0  0  0  0  0  0  0
   -7.0864    6.9829    2.4909 H   0  0  0  0  0  0  0  0  0  0  0  0
   -5.9327    5.8964    0.1962 H   0  0  0  0  0  0  0  0  0  0  0  0
   -6.3436    2.9215    0.6303 H   0  0  0  0  0  0  0  0  0  0  0  0
   -4.4386    4.5341   -1.1690 H   0  0  0  0  0  0  0  0  0  0  0  0
   -4.4205    2.7379   -0.9943 H   0  0  0  0  0  0  0  0  0  0  0  0
   -1.8845    5.4614    0.5496 H   0  0  0  0  0  0  0  0  0  0  0  0
   -2.2285    4.5514   -0.9480 H   0  0  0  0  0  0  0  0  0  0  0  0
    0.4894    5.2377    0.4426 H   0  0  0  0  0  0  0  0  0  0  0  0
    2.3112    1.3583    0.7726 H   0  0  0  0  0  0  0  0  0  0  0  0
   -1.9353    1.6768    0.2903 H   0  0  0  0  0  0  0  0  0  0  0  0
   -0.8484   -0.5036    0.1406 H   0  0  0  0  0  0  0  0  0  0  0  0
    0.9498   -0.6166    0.2331 H   0  0  0  0  0  0  0  0  0  0  0  0
   -0.6518   -2.7355    3.2921 H   0  0  0  0  0  0  0  0  0  0  0  0
   -1.5707   -2.3476    1.8103 H   0  0  0  0  0  0  0  0  0  0  0  0
    0.3861   -2.8417    0.4055 H   0  0  0  0  0  0  0  0  0  0  0  0
    0.2714   -5.1616    2.3552 H   0  0  0  0  0  0  0  0  0  0  0  0
   -1.8329   -3.6247   -0.1339 H   0  0  0  0  0  0  0  0  0  0  0  0
   -2.6302   -4.5319   -2.2907 H   0  0  0  0  0  0  0  0  0  0  0  0
   -0.8275   -4.5007   -2.2250 H   0  0  0  0  0  0  0  0  0  0  0  0
   -1.7235   -6.0678   -1.9991 H   0  0  0  0  0  0  0  0  0  0  0  0
   -2.9676   -6.3882    0.4372 H   0  0  0  0  0  0  0  0  0  0  0  0
   -3.9883   -2.9591   -0.4963 H   0  0  0  0  0  0  0  0  0  0  0  0
   -5.2716   -4.8528   -1.5049 H   0  0  0  0  0  0  0  0  0  0  0  0
   -6.1862   -3.3118   -1.4975 H   0  0  0  0  0  0  0  0  0  0  0  0
   -6.5746   -4.6116   -0.2793 H   0  0  0  0  0  0  0  0  0  0  0  0
   -4.6655   -2.1367    1.7955 H   0  0  0  0  0  0  0  0  0  0  0  0
   -6.9691   -1.3367   -0.5508 H   0  0  0  0  0  0  0  0  0  0  0  0
   -9.2910   -2.9054    0.7834 H   0  0  0  0  0  0  0  0  0  0  0  0
   -8.4896   -3.2152   -0.8102 H   0  0  0  0  0  0  0  0  0  0  0  0
   -9.5560   -1.7838   -0.5948 H   0  0  0  0  0  0  0  0  0  0  0  0
   -8.3599   -0.3733    1.9600 H   0  0  0  0  0  0  0  0  0  0  0  0
   -6.8091    0.9777   -1.0736 H   0  0  0  0  0  0  0  0  0  0  0  0
   -9.6161    0.6330   -2.3225 H   0  0  0  0  0  0  0  0  0  0  0  0
   -8.0781    0.8243   -3.2494 H   0  0  0  0  0  0  0  0  0  0  0  0
   -8.3339   -0.6238   -2.2460 H   0  0  0  0  0  0  0  0  0  0  0  0
   -9.0059    2.9904   -1.6720 H   0  0  0  0  0  0  0  0  0  0  0  0
    3.8953   -2.8912    1.4687 H   0  0  0  0  0  0  0  0  0  0  0  0
    2.0043   -4.0913   -0.5880 H   0  0  0  0  0  0  0  0  0  0  0  0
    3.3496   -6.2144   -0.4711 H   0  0  0  0  0  0  0  0  0  0  0  0
    2.4532   -5.8765    1.0527 H   0  0  0  0  0  0  0  0  0  0  0  0
    4.2291   -5.5559    0.9723 H   0  0  0  0  0  0  0  0  0  0  0  0
    5.4990   -5.1166   -1.0327 H   0  0  0  0  0  0  0  0  0  0  0  0
    6.6654   -3.4020   -2.5702 H   0  0  0  0  0  0  0  0  0  0  0  0
    8.0226   -4.8180   -1.1186 H   0  0  0  0  0  0  0  0  0  0  0  0
    7.6823   -3.7715    0.3164 H   0  0  0  0  0  0  0  0  0  0  0  0
    8.6697   -3.1455   -1.0742 H   0  0  0  0  0  0  0  0  0  0  0  0
    5.3952   -1.1924    0.6351 H   0  0  0  0  0  0  0  0  0  0  0  0
    8.3465   -1.4801    0.7304 H   0  0  0  0  0  0  0  0  0  0  0  0
    6.5326    0.4248    2.3457 H   0  0  0  0  0  0  0  0  0  0  0  0
    8.2179   -0.0979    2.7522 H   0  0  0  0  0  0  0  0  0  0  0  0
    6.8843   -1.2906    2.7692 H   0  0  0  0  0  0  0  0  0  0  0  0
    6.0523    1.1491   -0.5713 H   0  0  0  0  0  0  0  0  0  0  0  0
    6.5441    2.3625   -2.4725 H   0  0  0  0  0  0  0  0  0  0  0  0
    7.9657    0.4285   -3.1430 H   0  0  0  0  0  0  0  0  0  0  0  0
    9.3988    1.2212   -2.3836 H   0  0  0  0  0  0  0  0  0  0  0  0
    8.5511    2.0153   -3.7657 H   0  0  0  0  0  0  0  0  0  0  0  0
    7.8013    5.5195   -1.7313 H   0  0  0  0  0  0  0  0  0  0  0  0
    5.7962    5.9866   -0.7903 H   0  0  0  0  0  0  0  0  0  0  0  0
    5.7055    6.5962    1.4686 H   0  0  0  0  0  0  0  0  0  0  0  0
    6.1226    5.4234    2.7748 H   0  0  0  0  0  0  0  0  0  0  0  0
    4.8414    3.0588   -1.0013 H   0  0  0  0  0  0  0  0  0  0  0  0
    4.9401    4.1632   -2.4029 H   0  0  0  0  0  0  0  0  0  0  0  0
    2.9025    4.7828    1.4965 H   0  0  0  0  0  0  0  0  0  0  0  0
    3.6820    3.2928    0.9144 H   0  0  0  0  0  0  0  0  0  0  0  0
  1  2  1  0
  2  3  2  0
  2  4  1  0
  4  5  1  0
  5  6  1  0
  6  7  1  0
  7  8  1  0
  8  9  1  0
  9 10  2  0
 10 11  1  0
 11 12  2  0
 12 13  1  0
 13 14  2  0
 13 15  1  0
 15 16  1  0
 16 17  1  0
 17 18  1  0
 18 19  1  0
 19 20  1  0
 20 21  2  0
 20 22  1  0
 22 23  1  0
 22 24  1  0
 24 25  1  0
 25 26  2  0
 25 27  1  0
 27 28  1  0
 27 29  1  0
 29 30  1  0
 30 31  2  0
 30 32  1  0
 32 33  1  0
 32 34  1  0
 34 35  1  0
 35 36  2  0
 35 37  1  0
 37 38  1  0
 37 39  1  0
 39 40  1  0
 40 41  2  0
 18 42  1  0
 42 43  2  0
 42 44  1  0
 44 45  1  0
 45 46  1  0
 45 47  1  0
 47 48  2  0
 47 49  1  0
 49 50  1  0
 50 51  1  0
 50 52  1  0
 52 53  2  0
 52 54  1  0
 54 55  1  0
 55 56  1  0
 55 57  1  0
 57 58  2  0
 57 59  1  0
 59 60  1  0
 60 61  1  0
 60 62  1  0
 62 63  2  0
 62 64  1  0
 64 65  1  0
 65 66  1  0
 66 67  1  0
 66 68  2  0
 65 69  1  0
 69 70  1  0
 70 71  1  0
 40  5  1  0
 14  9  1  0
 71 11  1  0
  1 72  1  0
  1 73  1  0
  1 74  1  0
  4 75  1  0
  5 76  1  1
  6 77  1  0
  6 78  1  0
  8 79  1  0
  8 80  1  0
 10 81  1  0
 12 82  1  0
 14 83  1  0
 15 84  1  0
 15 85  1  0
 17 86  1  0
 17 87  1  0
 18 88  1  6
 19 89  1  0
 22 90  1  6
 23 91  1  0
 23 92  1  0
 23 93  1  0
 24 94  1  0
 27 95  1  6
 28 96  1  0
 28 97  1  0
 28 98  1  0
 29 99  1  0
 32100  1  6
 33101  1  0
 33102  1  0
 33103  1  0
 34104  1  0
 37105  1  1
 38106  1  0
 38107  1  0
 38108  1  0
 39109  1  0
 44110  1  0
 45111  1  6
 46112  1  0
 46113  1  0
 46114  1  0
 49115  1  0
 50116  1  6
 51117  1  0
 51118  1  0
 51119  1  0
 54120  1  0
 55121  1  1
 56122  1  0
 56123  1  0
 56124  1  0
 59125  1  0
 60126  1  6
 61127  1  0
 61128  1  0
 61129  1  0
 64130  1  0
 65131  1  1
 67132  1  0
 67133  1  0
 69134  1  0
 69135  1  0
 71136  1  0
 71137  1  0
M  END
