
     RDKit          3D

157159  0  0  0  0  0  0  0  0999 V2000
   -6.8577    7.3517   -2.3486 C   0  0  0  0  0  0  0  0  0  0  0  0
   -6.3388    6.3276   -1.3894 C   0  0  0  0  0  0  0  0  0  0  0  0
   -5.1250    5.9824   -1.4456 O   0  0  0  0  0  0  0  0  0  0  0  0
   -7.2346    5.7130   -0.4506 N   0  0  0  0  0  0  0  0  0  0  0  0
   -6.8402    4.6015    0.4322 C   0  0  1  0  0  0  0  0  0  0  0  0
   -6.0904    5.1312    1.6733 C   0  0  0  0  0  0  0  0  0  0  0  0
   -4.2810    5.2042    1.3783 S   0  0  0  0  0  0  0  0  0  0  0  0
   -3.8117    3.7919    2.4481 C   0  0  0  0  0  0  0  0  0  0  0  0
   -2.5054    3.2064    1.9802 C   0  0  0  0  0  0  0  0  0  0  0  0
   -1.3031    3.9023    2.1851 C   0  0  0  0  0  0  0  0  0  0  0  0
   -0.0812    3.3646    1.7393 C   0  0  0  0  0  0  0  0  0  0  0  0
   -0.0708    2.1279    1.0720 C   0  0  0  0  0  0  0  0  0  0  0  0
   -1.2675    1.4265    0.8513 C   0  0  0  0  0  0  0  0  0  0  0  0
   -2.4784    1.9632    1.3208 C   0  0  0  0  0  0  0  0  0  0  0  0
   -1.2494    0.1054    0.1410 C   0  0  0  0  0  0  0  0  0  0  0  0
   -0.8219   -1.2117    1.3266 S   0  0  0  0  0  0  0  0  0  0  0  0
   -0.6443   -2.5203    0.0538 C   0  0  0  0  0  0  0  0  0  0  0  0
   -0.6394   -3.9384    0.6487 C   0  0  2  0  0  0  0  0  0  0  0  0
   -1.8544   -4.1526    1.4477 N   0  0  0  0  0  0  0  0  0  0  0  0
   -2.9849   -4.9315    1.0233 C   0  0  0  0  0  0  0  0  0  0  0  0
   -3.6631   -5.5320    1.9013 O   0  0  0  0  0  0  0  0  0  0  0  0
   -3.4495   -4.9544   -0.4245 C   0  0  1  0  0  0  0  0  0  0  0  0
   -4.0084   -6.3280   -0.8226 C   0  0  0  0  0  0  0  0  0  0  0  0
   -4.4416   -3.9031   -0.6714 N   0  0  0  0  0  0  0  0  0  0  0  0
   -5.7709   -3.9326   -0.1374 C   0  0  0  0  0  0  0  0  0  0  0  0
   -5.9490   -4.0986    1.1020 O   0  0  0  0  0  0  0  0  0  0  0  0
   -6.9547   -3.7335   -1.0519 C   0  0  1  0  0  0  0  0  0  0  0  0
   -8.0233   -4.8036   -0.7697 C   0  0  0  0  0  0  0  0  0  0  0  0
   -7.4430   -2.3524   -0.9236 N   0  0  0  0  0  0  0  0  0  0  0  0
   -8.7740   -1.9817   -0.5311 C   0  0  0  0  0  0  0  0  0  0  0  0
   -9.7599   -2.4379   -1.1695 O   0  0  0  0  0  0  0  0  0  0  0  0
   -8.9937   -0.9692    0.5687 C   0  0  1  0  0  0  0  0  0  0  0  0
  -10.1705   -1.3994    1.4572 C   0  0  0  0  0  0  0  0  0  0  0  0
   -7.7881   -0.8679    1.3940 N   0  0  0  0  0  0  0  0  0  0  0  0
   -6.9420    0.2884    1.5688 C   0  0  0  0  0  0  0  0  0  0  0  0
   -6.1139    0.2773    2.5176 O   0  0  0  0  0  0  0  0  0  0  0  0
   -6.9420    1.5073    0.6625 C   0  0  1  0  0  0  0  0  0  0  0  0
   -6.8087    1.1933   -0.8342 C   0  0  0  0  0  0  0  0  0  0  0  0
   -8.1040    2.3753    0.9224 N   0  0  0  0  0  0  0  0  0  0  0  0
   -8.0698    3.8176    0.8716 C   0  0  0  0  0  0  0  0  0  0  0  0
   -9.0861    4.4580    1.2616 O   0  0  0  0  0  0  0  0  0  0  0  0
    0.5922   -4.2001    1.5001 C   0  0  0  0  0  0  0  0  0  0  0  0
    0.7931   -3.4774    2.5148 O   0  0  0  0  0  0  0  0  0  0  0  0
    1.5319   -5.2579    1.2199 N   0  0  0  0  0  0  0  0  0  0  0  0
    1.4925   -6.1486    0.0540 C   0  0  2  0  0  0  0  0  0  0  0  0
    0.4443   -7.2522    0.2768 C   0  0  0  0  0  0  0  0  0  0  0  0
    2.8692   -6.7345   -0.1989 C   0  0  0  0  0  0  0  0  0  0  0  0
    3.1031   -7.9406    0.0960 O   0  0  0  0  0  0  0  0  0  0  0  0
    3.9208   -5.9638   -0.8057 N   0  0  0  0  0  0  0  0  0  0  0  0
    4.0217   -4.5031   -0.7620 C   0  0  2  0  0  0  0  0  0  0  0  0
    4.0878   -3.9475   -2.1879 C   0  0  0  0  0  0  0  0  0  0  0  0
    5.2079   -4.1265    0.0922 C   0  0  0  0  0  0  0  0  0  0  0  0
    5.0425   -4.0384    1.3399 O   0  0  0  0  0  0  0  0  0  0  0  0
    6.5279   -3.9777   -0.4672 N   0  0  0  0  0  0  0  0  0  0  0  0
    7.7528   -4.3199    0.2643 C   0  0  2  0  0  0  0  0  0  0  0  0
    7.7623   -5.8210    0.5882 C   0  0  0  0  0  0  0  0  0  0  0  0
    7.9138   -3.4460    1.4935 C   0  0  0  0  0  0  0  0  0  0  0  0
    7.9481   -3.9823    2.6364 O   0  0  0  0  0  0  0  0  0  0  0  0
    8.0510   -2.0221    1.4024 N   0  0  0  0  0  0  0  0  0  0  0  0
    8.5180   -1.3132    0.2065 C   0  0  2  0  0  0  0  0  0  0  0  0
   10.0281   -1.5043    0.0326 C   0  0  0  0  0  0  0  0  0  0  0  0
    8.2119    0.1619    0.3153 C   0  0  0  0  0  0  0  0  0  0  0  0
    8.5132    0.7828    1.3701 O   0  0  0  0  0  0  0  0  0  0  0  0
    7.6412    0.8696   -0.8010 N   0  0  0  0  0  0  0  0  0  0  0  0
    7.7513    2.3228   -0.9996 C   0  0  2  0  0  0  0  0  0  0  0  0
    9.2168    2.7736   -0.8677 C   0  0  0  0  0  0  0  0  0  0  0  0
    6.8416    3.0925   -0.0608 C   0  0  0  0  0  0  0  0  0  0  0  0
    6.3007    2.4932    0.9092 O   0  0  0  0  0  0  0  0  0  0  0  0
    6.6268    4.5085   -0.1905 N   0  0  0  0  0  0  0  0  0  0  0  0
    6.7942    5.2711   -1.4346 C   0  0  2  0  0  0  0  0  0  0  0  0
    7.3589    6.6617   -1.1256 C   0  0  0  0  0  0  0  0  0  0  0  0
    5.5123    5.3580   -2.2356 C   0  0  0  0  0  0  0  0  0  0  0  0
    5.5832    5.7918   -3.4189 O   0  0  0  0  0  0  0  0  0  0  0  0
    4.2372    4.9028   -1.7552 N   0  0  0  0  0  0  0  0  0  0  0  0
    3.5816    5.3974   -0.5321 C   0  0  1  0  0  0  0  0  0  0  0  0
    3.6805    6.9047   -0.4493 C   0  0  0  0  0  0  0  0  0  0  0  0
    2.9955    7.7403   -1.3877 N   0  0  0  0  0  0  0  0  0  0  0  0
    4.3610    7.4329    0.4736 O   0  0  0  0  0  0  0  0  0  0  0  0
    2.1078    4.9396   -0.5006 C   0  0  0  0  0  0  0  0  0  0  0  0
    1.2144    5.6360    0.9410 S   0  0  0  0  0  0  0  0  0  0  0  0
    1.1985    4.1244    1.9672 C   0  0  0  0  0  0  0  0  0  0  0  0
   -6.0425    7.7157   -3.0090 H   0  0  0  0  0  0  0  0  0  0  0  0
   -7.2703    8.2123   -1.7758 H   0  0  0  0  0  0  0  0  0  0  0  0
   -7.6666    6.9022   -2.9695 H   0  0  0  0  0  0  0  0  0  0  0  0
   -8.2357    6.0037   -0.5012 H   0  0  0  0  0  0  0  0  0  0  0  0
   -6.1695    3.9388   -0.1417 H   0  0  0  0  0  0  0  0  0  0  0  0
   -6.3044    4.4949    2.5542 H   0  0  0  0  0  0  0  0  0  0  0  0
   -6.4449    6.1475    1.9372 H   0  0  0  0  0  0  0  0  0  0  0  0
   -4.5944    3.0134    2.4326 H   0  0  0  0  0  0  0  0  0  0  0  0
   -3.7182    4.1509    3.4961 H   0  0  0  0  0  0  0  0  0  0  0  0
   -1.3152    4.8609    2.6930 H   0  0  0  0  0  0  0  0  0  0  0  0
    0.8629    1.7169    0.7086 H   0  0  0  0  0  0  0  0  0  0  0  0
   -3.4024    1.4231    1.1536 H   0  0  0  0  0  0  0  0  0  0  0  0
   -2.2491   -0.1036   -0.3009 H   0  0  0  0  0  0  0  0  0  0  0  0
   -0.5112    0.1370   -0.6936 H   0  0  0  0  0  0  0  0  0  0  0  0
    0.2934   -2.3488   -0.5156 H   0  0  0  0  0  0  0  0  0  0  0  0
   -1.4933   -2.4470   -0.6650 H   0  0  0  0  0  0  0  0  0  0  0  0
   -0.6397   -4.6315   -0.2076 H   0  0  0  0  0  0  0  0  0  0  0  0
   -1.8444   -3.8445    2.4457 H   0  0  0  0  0  0  0  0  0  0  0  0
   -2.5935   -4.7684   -1.1035 H   0  0  0  0  0  0  0  0  0  0  0  0
   -3.2251   -7.1030   -0.7001 H   0  0  0  0  0  0  0  0  0  0  0  0
   -4.3293   -6.3062   -1.8866 H   0  0  0  0  0  0  0  0  0  0  0  0
   -4.8848   -6.5940   -0.1956 H   0  0  0  0  0  0  0  0  0  0  0  0
   -4.2209   -3.1804   -1.3951 H   0  0  0  0  0  0  0  0  0  0  0  0
   -6.6131   -3.8854   -2.1019 H   0  0  0  0  0  0  0  0  0  0  0  0
   -8.4714   -4.6708    0.2378 H   0  0  0  0  0  0  0  0  0  0  0  0
   -7.5680   -5.8151   -0.8231 H   0  0  0  0  0  0  0  0  0  0  0  0
   -8.8230   -4.7608   -1.5405 H   0  0  0  0  0  0  0  0  0  0  0  0
   -6.7200   -1.6042   -0.9649 H   0  0  0  0  0  0  0  0  0  0  0  0
   -9.2575    0.0033    0.1210 H   0  0  0  0  0  0  0  0  0  0  0  0
  -11.1241   -1.3367    0.8915 H   0  0  0  0  0  0  0  0  0  0  0  0
  -10.0301   -2.4441    1.8129 H   0  0  0  0  0  0  0  0  0  0  0  0
  -10.2501   -0.7320    2.3412 H   0  0  0  0  0  0  0  0  0  0  0  0
   -7.5397   -1.7076    1.9677 H   0  0  0  0  0  0  0  0  0  0  0  0
   -6.0293    2.0690    0.9355 H   0  0  0  0  0  0  0  0  0  0  0  0
   -6.7525    2.1303   -1.4244 H   0  0  0  0  0  0  0  0  0  0  0  0
   -5.8719    0.6268   -1.0116 H   0  0  0  0  0  0  0  0  0  0  0  0
   -7.6646    0.6150   -1.2290 H   0  0  0  0  0  0  0  0  0  0  0  0
   -8.9623    1.9401    1.3221 H   0  0  0  0  0  0  0  0  0  0  0  0
    2.3298   -5.3602    1.8886 H   0  0  0  0  0  0  0  0  0  0  0  0
    1.2225   -5.5741   -0.8574 H   0  0  0  0  0  0  0  0  0  0  0  0
    0.3890   -7.9131   -0.6109 H   0  0  0  0  0  0  0  0  0  0  0  0
    0.7059   -7.8591    1.1684 H   0  0  0  0  0  0  0  0  0  0  0  0
   -0.5599   -6.8176    0.4441 H   0  0  0  0  0  0  0  0  0  0  0  0
    4.7371   -6.4899   -1.1907 H   0  0  0  0  0  0  0  0  0  0  0  0
    3.1232   -4.0528   -0.3005 H   0  0  0  0  0  0  0  0  0  0  0  0
    4.8831   -4.4550   -2.7744 H   0  0  0  0  0  0  0  0  0  0  0  0
    4.2759   -2.8524   -2.1682 H   0  0  0  0  0  0  0  0  0  0  0  0
    3.1212   -4.1329   -2.7021 H   0  0  0  0  0  0  0  0  0  0  0  0
    6.6349   -3.7642   -1.4853 H   0  0  0  0  0  0  0  0  0  0  0  0
    8.6191   -4.1420   -0.4049 H   0  0  0  0  0  0  0  0  0  0  0  0
    7.6546   -6.4080   -0.3513 H   0  0  0  0  0  0  0  0  0  0  0  0
    8.7251   -6.1066    1.0672 H   0  0  0  0  0  0  0  0  0  0  0  0
    6.9292   -6.0867    1.2704 H   0  0  0  0  0  0  0  0  0  0  0  0
    7.9922   -1.4970    2.3060 H   0  0  0  0  0  0  0  0  0  0  0  0
    8.0092   -1.7176   -0.6920 H   0  0  0  0  0  0  0  0  0  0  0  0
   10.5735   -1.1585    0.9359 H   0  0  0  0  0  0  0  0  0  0  0  0
   10.3921   -0.9358   -0.8477 H   0  0  0  0  0  0  0  0  0  0  0  0
   10.2705   -2.5748   -0.1267 H   0  0  0  0  0  0  0  0  0  0  0  0
    7.2372    0.3079   -1.5836 H   0  0  0  0  0  0  0  0  0  0  0  0
    7.4192    2.5341   -2.0393 H   0  0  0  0  0  0  0  0  0  0  0  0
    9.5550    2.7292    0.1888 H   0  0  0  0  0  0  0  0  0  0  0  0
    9.8706    2.1255   -1.4788 H   0  0  0  0  0  0  0  0  0  0  0  0
    9.3494    3.8203   -1.2105 H   0  0  0  0  0  0  0  0  0  0  0  0
    6.2615    5.0188    0.6451 H   0  0  0  0  0  0  0  0  0  0  0  0
    7.5427    4.7751   -2.0830 H   0  0  0  0  0  0  0  0  0  0  0  0
    7.5954    7.2016   -2.0648 H   0  0  0  0  0  0  0  0  0  0  0  0
    8.2955    6.5662   -0.5399 H   0  0  0  0  0  0  0  0  0  0  0  0
    6.6409    7.2610   -0.5382 H   0  0  0  0  0  0  0  0  0  0  0  0
    3.6527    4.3900   -2.4549 H   0  0  0  0  0  0  0  0  0  0  0  0
    4.0709    4.9457    0.3528 H   0  0  0  0  0  0  0  0  0  0  0  0
    3.0857    8.7777   -1.3183 H   0  0  0  0  0  0  0  0  0  0  0  0
    2.4894    7.3309   -2.2036 H   0  0  0  0  0  0  0  0  0  0  0  0
    2.0592    3.8284   -0.5095 H   0  0  0  0  0  0  0  0  0  0  0  0
    1.5876    5.2845   -1.4176 H   0  0  0  0  0  0  0  0  0  0  0  0
    2.0940    3.4973    1.7792 H   0  0  0  0  0  0  0  0  0  0  0  0
    1.2407    4.4299    3.0317 H   0  0  0  0  0  0  0  0  0  0  0  0
  1  2  1  0
  2  3  2  0
  2  4  1  0
  4  5  1  0
  5  6  1  0
  6  7  1  0
  7  8  1  0
  8  9  1  0
  9 10  2  0
 10 11  1  0
 11 12  2  0
 12 13  1  0
 13 14  2  0
 13 15  1  0
 15 16  1  0
 16 17  1  0
 17 18  1  0
 18 19  1  0
 19 20  1  0
 20 21  2  0
 20 22  1  0
 22 23  1  0
 22 24  1  0
 24 25  1  0
 25 26  2  0
 25 27  1  0
 27 28  1  0
 27 29  1  0
 29 30  1  0
 30 31  2  0
 30 32  1  0
 32 33  1  0
 32 34  1  0
 34 35  1  0
 35 36  2  0
 35 37  1  0
 37 38  1  0
 37 39  1  0
 39 40  1  0
 40 41  2  0
 18 42  1  0
 42 43  2  0
 42 44  1  0
 44 45  1  0
 45 46  1  0
 45 47  1  0
 47 48  2  0
 47 49  1  0
 49 50  1  0
 50 51  1  0
 50 52  1  0
 52 53  2  0
 52 54  1  0
 54 55  1  0
 55 56  1  0
 55 57  1  0
 57 58  2  0
 57 59  1  0
 59 60  1  0
 60 61  1  0
 60 62  1  0
 62 63  2  0
 62 64  1  0
 64 65  1  0
 65 66  1  0
 65 67  1  0
 67 68  2  0
 67 69  1  0
 69 70  1  0
 70 71  1  0
 70 72  1  0
 72 73  2  0
 72 74  1  0
 74 75  1  0
 75 76  1  0
 76 77  1  0
 76 78  2  0
 75 79  1  0
 79 80  1  0
 80 81  1  0
 40  5  1  0
 14  9  1  0
 81 11  1  0
  1 82  1  0
  1 83  1  0
  1 84  1  0
  4 85  1  0
  5 86  1  6
  6 87  1  0
  6 88  1  0
  8 89  1  0
  8 90  1  0
 10 91  1  0
 12 92  1  0
 14 93  1  0
 15 94  1  0
 15 95  1  0
 17 96  1  0
 17 97  1  0
 18 98  1  6
 19 99  1  0
 22100  1  6
 23101  1  0
 23102  1  0
 23103  1  0
 24104  1  0
 27105  1  6
 28106  1  0
 28107  1  0
 28108  1  0
 29109  1  0
 32110  1  6
 33111  1  0
 33112  1  0
 33113  1  0
 34114  1  0
 37115  1  1
 38116  1  0
 38117  1  0
 38118  1  0
 39119  1  0
 44120  1  0
 45121  1  6
 46122  1  0
 46123  1  0
 46124  1  0
 49125  1  0
 50126  1  1
 51127  1  0
 51128  1  0
 51129  1  0
 54130  1  0
 55131  1  6
 56132  1  0
 56133  1  0
 56134  1  0
 59135  1  0
 60136  1  6
 61137  1  0
 61138  1  0
 61139  1  0
 64140  1  0
 65141  1  6
 66142  1  0
 66143  1  0
 66144  1  0
 69145  1  0
 70146  1  6
 71147  1  0
 71148  1  0
 71149  1  0
 74150  1  0
 75151  1  1
 77152  1  0
 77153  1  0
 79154  1  0
 79155  1  0
 81156  1  0
 81157  1  0
M  END
