
     RDKit          3D

157159  0  0  0  0  0  0  0  0999 V2000
   -7.9739    4.9817    2.9264 C   0  0  0  0  0  0  0  0  0  0  0  0
   -7.0928    5.6212    1.9008 C   0  0  0  0  0  0  0  0  0  0  0  0
   -6.3397    6.5708    2.2436 O   0  0  0  0  0  0  0  0  0  0  0  0
   -7.1762    5.2480    0.5158 N   0  0  0  0  0  0  0  0  0  0  0  0
   -6.7983    3.9364   -0.0396 C   0  0  1  0  0  0  0  0  0  0  0  0
   -5.4188    4.0429   -0.7096 C   0  0  0  0  0  0  0  0  0  0  0  0
   -5.0438    2.5293   -1.6645 S   0  0  0  0  0  0  0  0  0  0  0  0
   -3.4398    3.1143   -2.3114 C   0  0  0  0  0  0  0  0  0  0  0  0
   -2.3686    2.9507   -1.2723 C   0  0  0  0  0  0  0  0  0  0  0  0
   -1.8882    4.0659   -0.5723 C   0  0  0  0  0  0  0  0  0  0  0  0
   -0.8970    3.9128    0.4091 C   0  0  0  0  0  0  0  0  0  0  0  0
   -0.3912    2.6366    0.6875 C   0  0  0  0  0  0  0  0  0  0  0  0
   -0.8151    1.5246   -0.0545 C   0  0  0  0  0  0  0  0  0  0  0  0
   -1.8150    1.6878   -1.0232 C   0  0  0  0  0  0  0  0  0  0  0  0
   -0.1799    0.1795    0.1684 C   0  0  0  0  0  0  0  0  0  0  0  0
   -1.2857   -0.8896    1.1554 S   0  0  0  0  0  0  0  0  0  0  0  0
   -1.9872   -1.8726   -0.2258 C   0  0  0  0  0  0  0  0  0  0  0  0
   -1.6008   -3.3633   -0.1873 C   0  0  2  0  0  0  0  0  0  0  0  0
   -2.0284   -3.9851    1.0721 N   0  0  0  0  0  0  0  0  0  0  0  0
   -2.9320   -5.1001    1.1866 C   0  0  0  0  0  0  0  0  0  0  0  0
   -3.4463   -5.3334    2.3171 O   0  0  0  0  0  0  0  0  0  0  0  0
   -3.2036   -6.0573    0.0356 C   0  0  1  0  0  0  0  0  0  0  0  0
   -3.8658   -7.3664    0.4864 C   0  0  0  0  0  0  0  0  0  0  0  0
   -3.9801   -5.4517   -1.0543 N   0  0  0  0  0  0  0  0  0  0  0  0
   -5.0137   -4.4670   -0.9082 C   0  0  0  0  0  0  0  0  0  0  0  0
   -4.9098   -3.3988   -1.5675 O   0  0  0  0  0  0  0  0  0  0  0  0
   -6.2633   -4.7309   -0.0938 C   0  0  1  0  0  0  0  0  0  0  0  0
   -6.2140   -4.1330    1.3217 C   0  0  0  0  0  0  0  0  0  0  0  0
   -7.4817   -4.3291   -0.8235 N   0  0  0  0  0  0  0  0  0  0  0  0
   -8.0407   -3.0058   -0.9805 C   0  0  0  0  0  0  0  0  0  0  0  0
   -9.2080   -2.9122   -1.4482 O   0  0  0  0  0  0  0  0  0  0  0  0
   -7.2873   -1.7327   -0.6681 C   0  0  1  0  0  0  0  0  0  0  0  0
   -7.0133   -0.9425   -1.9521 C   0  0  0  0  0  0  0  0  0  0  0  0
   -8.0118   -0.9200    0.3183 N   0  0  0  0  0  0  0  0  0  0  0  0
   -9.0455    0.0073   -0.0402 C   0  0  0  0  0  0  0  0  0  0  0  0
  -10.1201   -0.4301   -0.5284 O   0  0  0  0  0  0  0  0  0  0  0  0
   -8.7770    1.4959   -0.0073 C   0  0  1  0  0  0  0  0  0  0  0  0
  -10.0667    2.3046    0.1674 C   0  0  0  0  0  0  0  0  0  0  0  0
   -7.8479    1.8318    1.0777 N   0  0  0  0  0  0  0  0  0  0  0  0
   -6.8109    2.8296    1.0035 C   0  0  0  0  0  0  0  0  0  0  0  0
   -5.9054    2.8126    1.8832 O   0  0  0  0  0  0  0  0  0  0  0  0
   -0.1296   -3.6128   -0.4390 C   0  0  0  0  0  0  0  0  0  0  0  0
    0.2241   -4.0454   -1.5668 O   0  0  0  0  0  0  0  0  0  0  0  0
    0.8538   -3.4432    0.5980 N   0  0  0  0  0  0  0  0  0  0  0  0
    2.1016   -4.2150    0.6211 C   0  0  2  0  0  0  0  0  0  0  0  0
    2.0270   -5.2514    1.7448 C   0  0  0  0  0  0  0  0  0  0  0  0
    3.2902   -3.3031    0.8367 C   0  0  0  0  0  0  0  0  0  0  0  0
    3.2370   -2.4660    1.7807 O   0  0  0  0  0  0  0  0  0  0  0  0
    4.5016   -3.3738    0.0492 N   0  0  0  0  0  0  0  0  0  0  0  0
    4.7578   -4.3229   -1.0475 C   0  0  2  0  0  0  0  0  0  0  0  0
    4.9131   -5.7574   -0.5264 C   0  0  0  0  0  0  0  0  0  0  0  0
    5.9685   -3.9337   -1.8764 C   0  0  0  0  0  0  0  0  0  0  0  0
    5.9649   -4.2185   -3.1047 O   0  0  0  0  0  0  0  0  0  0  0  0
    7.0911   -3.2072   -1.3467 N   0  0  0  0  0  0  0  0  0  0  0  0
    8.1327   -3.7859   -0.4874 C   0  0  2  0  0  0  0  0  0  0  0  0
    8.4870   -5.2249   -0.8968 C   0  0  0  0  0  0  0  0  0  0  0  0
    7.7686   -3.6449    0.9725 C   0  0  0  0  0  0  0  0  0  0  0  0
    7.4418   -4.6664    1.6398 O   0  0  0  0  0  0  0  0  0  0  0  0
    7.7739   -2.3652    1.6336 N   0  0  0  0  0  0  0  0  0  0  0  0
    8.4731   -1.1827    1.1201 C   0  0  2  0  0  0  0  0  0  0  0  0
    9.9496   -1.2288    1.5320 C   0  0  0  0  0  0  0  0  0  0  0  0
    7.8000    0.0663    1.6325 C   0  0  0  0  0  0  0  0  0  0  0  0
    7.9149    0.3956    2.8432 O   0  0  0  0  0  0  0  0  0  0  0  0
    6.9294    0.8145    0.7777 N   0  0  0  0  0  0  0  0  0  0  0  0
    7.3685    1.9370   -0.0606 C   0  0  2  0  0  0  0  0  0  0  0  0
    8.6406    1.6073   -0.8473 C   0  0  0  0  0  0  0  0  0  0  0  0
    7.5762    3.1785    0.7831 C   0  0  0  0  0  0  0  0  0  0  0  0
    8.3560    3.1184    1.7733 O   0  0  0  0  0  0  0  0  0  0  0  0
    6.9004    4.4176    0.5165 N   0  0  0  0  0  0  0  0  0  0  0  0
    6.3575    4.8061   -0.7907 C   0  0  2  0  0  0  0  0  0  0  0  0
    6.8254    6.2190   -1.1566 C   0  0  0  0  0  0  0  0  0  0  0  0
    4.8512    4.6857   -0.7796 C   0  0  0  0  0  0  0  0  0  0  0  0
    4.3289    3.5574   -1.0019 O   0  0  0  0  0  0  0  0  0  0  0  0
    4.0058    5.8211   -0.5316 N   0  0  0  0  0  0  0  0  0  0  0  0
    2.7910    6.0454   -1.3192 C   0  0  2  0  0  0  0  0  0  0  0  0
    2.4901    7.5238   -1.4312 C   0  0  0  0  0  0  0  0  0  0  0  0
    2.0379    8.2901   -0.3117 N   0  0  0  0  0  0  0  0  0  0  0  0
    2.6805    8.1042   -2.5344 O   0  0  0  0  0  0  0  0  0  0  0  0
    1.5905    5.2350   -0.7963 C   0  0  0  0  0  0  0  0  0  0  0  0
    1.4753    5.2144    1.0381 S   0  0  0  0  0  0  0  0  0  0  0  0
   -0.3532    5.1266    1.1246 C   0  0  0  0  0  0  0  0  0  0  0  0
   -8.6678    4.2543    2.4593 H   0  0  0  0  0  0  0  0  0  0  0  0
   -7.3486    4.4656    3.6851 H   0  0  0  0  0  0  0  0  0  0  0  0
   -8.5791    5.7639    3.4304 H   0  0  0  0  0  0  0  0  0  0  0  0
   -7.2379    6.0380   -0.1644 H   0  0  0  0  0  0  0  0  0  0  0  0
   -7.5260    3.7232   -0.8419 H   0  0  0  0  0  0  0  0  0  0  0  0
   -5.4203    4.9106   -1.4045 H   0  0  0  0  0  0  0  0  0  0  0  0
   -4.6327    4.2142    0.0563 H   0  0  0  0  0  0  0  0  0  0  0  0
   -3.1761    2.5074   -3.2035 H   0  0  0  0  0  0  0  0  0  0  0  0
   -3.5203    4.1731   -2.6467 H   0  0  0  0  0  0  0  0  0  0  0  0
   -2.2847    5.0539   -0.7953 H   0  0  0  0  0  0  0  0  0  0  0  0
    0.3667    2.5213    1.4496 H   0  0  0  0  0  0  0  0  0  0  0  0
   -2.1580    0.8365   -1.5944 H   0  0  0  0  0  0  0  0  0  0  0  0
    0.7737    0.2923    0.7342 H   0  0  0  0  0  0  0  0  0  0  0  0
    0.0999   -0.2800   -0.8054 H   0  0  0  0  0  0  0  0  0  0  0  0
   -3.0915   -1.8036   -0.1331 H   0  0  0  0  0  0  0  0  0  0  0  0
   -1.7334   -1.4497   -1.2163 H   0  0  0  0  0  0  0  0  0  0  0  0
   -2.1405   -3.8194   -1.0368 H   0  0  0  0  0  0  0  0  0  0  0  0
   -1.7043   -3.5545    1.9688 H   0  0  0  0  0  0  0  0  0  0  0  0
   -2.2097   -6.3417   -0.3745 H   0  0  0  0  0  0  0  0  0  0  0  0
   -4.8091   -7.1768    1.0332 H   0  0  0  0  0  0  0  0  0  0  0  0
   -3.1815   -7.9248    1.1555 H   0  0  0  0  0  0  0  0  0  0  0  0
   -4.0849   -8.0050   -0.3967 H   0  0  0  0  0  0  0  0  0  0  0  0
   -3.5571   -5.5230   -2.0053 H   0  0  0  0  0  0  0  0  0  0  0  0
   -6.3332   -5.8328    0.0311 H   0  0  0  0  0  0  0  0  0  0  0  0
   -5.9018   -4.9131    2.0493 H   0  0  0  0  0  0  0  0  0  0  0  0
   -5.4937   -3.2935    1.3975 H   0  0  0  0  0  0  0  0  0  0  0  0
   -7.2207   -3.7839    1.6439 H   0  0  0  0  0  0  0  0  0  0  0  0
   -8.0481   -5.1121   -1.2242 H   0  0  0  0  0  0  0  0  0  0  0  0
   -6.3010   -1.9641   -0.2321 H   0  0  0  0  0  0  0  0  0  0  0  0
   -7.9605   -0.6727   -2.4689 H   0  0  0  0  0  0  0  0  0  0  0  0
   -6.3934   -1.5414   -2.6490 H   0  0  0  0  0  0  0  0  0  0  0  0
   -6.4592   -0.0146   -1.7056 H   0  0  0  0  0  0  0  0  0  0  0  0
   -7.6082   -0.8599    1.2822 H   0  0  0  0  0  0  0  0  0  0  0  0
   -8.3290    1.7409   -0.9921 H   0  0  0  0  0  0  0  0  0  0  0  0
  -10.7732    2.0953   -0.6632 H   0  0  0  0  0  0  0  0  0  0  0  0
  -10.5592    2.0556    1.1335 H   0  0  0  0  0  0  0  0  0  0  0  0
   -9.8346    3.3922    0.1512 H   0  0  0  0  0  0  0  0  0  0  0  0
   -7.9776    1.3597    2.0023 H   0  0  0  0  0  0  0  0  0  0  0  0
    0.5845   -2.9395    1.4699 H   0  0  0  0  0  0  0  0  0  0  0  0
    2.2057   -4.7659   -0.3310 H   0  0  0  0  0  0  0  0  0  0  0  0
    1.8586   -4.7561    2.7260 H   0  0  0  0  0  0  0  0  0  0  0  0
    2.9700   -5.8370    1.8121 H   0  0  0  0  0  0  0  0  0  0  0  0
    1.1916   -5.9551    1.5558 H   0  0  0  0  0  0  0  0  0  0  0  0
    5.2167   -2.6391    0.2547 H   0  0  0  0  0  0  0  0  0  0  0  0
    3.8885   -4.3015   -1.7436 H   0  0  0  0  0  0  0  0  0  0  0  0
    3.9296   -6.2040   -0.2856 H   0  0  0  0  0  0  0  0  0  0  0  0
    5.3628   -6.4099   -1.3059 H   0  0  0  0  0  0  0  0  0  0  0  0
    5.5365   -5.7836    0.3842 H   0  0  0  0  0  0  0  0  0  0  0  0
    7.3716   -2.3633   -1.8928 H   0  0  0  0  0  0  0  0  0  0  0  0
    9.0762   -3.2183   -0.6486 H   0  0  0  0  0  0  0  0  0  0  0  0
    7.6469   -5.9228   -0.7227 H   0  0  0  0  0  0  0  0  0  0  0  0
    8.7597   -5.2567   -1.9729 H   0  0  0  0  0  0  0  0  0  0  0  0
    9.3613   -5.5837   -0.3104 H   0  0  0  0  0  0  0  0  0  0  0  0
    7.4375   -2.3453    2.6255 H   0  0  0  0  0  0  0  0  0  0  0  0
    8.4145   -1.1626    0.0149 H   0  0  0  0  0  0  0  0  0  0  0  0
   10.4259   -2.1549    1.1427 H   0  0  0  0  0  0  0  0  0  0  0  0
   10.4952   -0.3571    1.1195 H   0  0  0  0  0  0  0  0  0  0  0  0
   10.0482   -1.2314    2.6381 H   0  0  0  0  0  0  0  0  0  0  0  0
    5.9124    0.7868    1.0242 H   0  0  0  0  0  0  0  0  0  0  0  0
    6.5680    2.1066   -0.8051 H   0  0  0  0  0  0  0  0  0  0  0  0
    9.4990    1.4336   -0.1663 H   0  0  0  0  0  0  0  0  0  0  0  0
    8.4808    0.7052   -1.4745 H   0  0  0  0  0  0  0  0  0  0  0  0
    8.8977    2.4499   -1.5220 H   0  0  0  0  0  0  0  0  0  0  0  0
    6.8891    5.1343    1.2808 H   0  0  0  0  0  0  0  0  0  0  0  0
    6.7563    4.1506   -1.5933 H   0  0  0  0  0  0  0  0  0  0  0  0
    7.9291    6.2231   -1.3002 H   0  0  0  0  0  0  0  0  0  0  0  0
    6.3495    6.5533   -2.1014 H   0  0  0  0  0  0  0  0  0  0  0  0
    6.5815    6.9461   -0.3523 H   0  0  0  0  0  0  0  0  0  0  0  0
    4.3380    6.5628    0.1308 H   0  0  0  0  0  0  0  0  0  0  0  0
    2.9904    5.6874   -2.3556 H   0  0  0  0  0  0  0  0  0  0  0  0
    1.8217    9.3095   -0.4401 H   0  0  0  0  0  0  0  0  0  0  0  0
    1.8800    7.8603    0.6182 H   0  0  0  0  0  0  0  0  0  0  0  0
    0.6606    5.6311   -1.2524 H   0  0  0  0  0  0  0  0  0  0  0  0
    1.6949    4.1812   -1.1227 H   0  0  0  0  0  0  0  0  0  0  0  0
   -0.6606    5.0890    2.1919 H   0  0  0  0  0  0  0  0  0  0  0  0
   -0.7625    6.0681    0.6915 H   0  0  0  0  0  0  0  0  0  0  0  0
  1  2  1  0
  2  3  2  0
  2  4  1  0
  4  5  1  0
  5  6  1  0
  6  7  1  0
  7  8  1  0
  8  9  1  0
  9 10  2  0
 10 11  1  0
 11 12  2  0
 12 13  1  0
 13 14  2  0
 13 15  1  0
 15 16  1  0
 16 17  1  0
 17 18  1  0
 18 19  1  0
 19 20  1  0
 20 21  2  0
 20 22  1  0
 22 23  1  0
 22 24  1  0
 24 25  1  0
 25 26  2  0
 25 27  1  0
 27 28  1  0
 27 29  1  0
 29 30  1  0
 30 31  2  0
 30 32  1  0
 32 33  1  0
 32 34  1  0
 34 35  1  0
 35 36  2  0
 35 37  1  0
 37 38  1  0
 37 39  1  0
 39 40  1  0
 40 41  2  0
 18 42  1  0
 42 43  2  0
 42 44  1  0
 44 45  1  0
 45 46  1  0
 45 47  1  0
 47 48  2  0
 47 49  1  0
 49 50  1  0
 50 51  1  0
 50 52  1  0
 52 53  2  0
 52 54  1  0
 54 55  1  0
 55 56  1  0
 55 57  1  0
 57 58  2  0
 57 59  1  0
 59 60  1  0
 60 61  1  0
 60 62  1  0
 62 63  2  0
 62 64  1  0
 64 65  1  0
 65 66  1  0
 65 67  1  0
 67 68  2  0
 67 69  1  0
 69 70  1  0
 70 71  1  0
 70 72  1  0
 72 73  2  0
 72 74  1  0
 74 75  1  0
 75 76  1  0
 76 77  1  0
 76 78  2  0
 75 79  1  0
 79 80  1  0
 80 81  1  0
 40  5  1  0
 14  9  1  0
 81 11  1  0
  1 82  1  0
  1 83  1  0
  1 84  1  0
  4 85  1  0
  5 86  1  6
  6 87  1  0
  6 88  1  0
  8 89  1  0
  8 90  1  0
 10 91  1  0
 12 92  1  0
 14 93  1  0
 15 94  1  0
 15 95  1  0
 17 96  1  0
 17 97  1  0
 18 98  1  6
 19 99  1  0
 22100  1  6
 23101  1  0
 23102  1  0
 23103  1  0
 24104  1  0
 27105  1  1
 28106  1  0
 28107  1  0
 28108  1  0
 29109  1  0
 32110  1  1
 33111  1  0
 33112  1  0
 33113  1  0
 34114  1  0
 37115  1  6
 38116  1  0
 38117  1  0
 38118  1  0
 39119  1  0
 44120  1  0
 45121  1  6
 46122  1  0
 46123  1  0
 46124  1  0
 49125  1  0
 50126  1  6
 51127  1  0
 51128  1  0
 51129  1  0
 54130  1  0
 55131  1  1
 56132  1  0
 56133  1  0
 56134  1  0
 59135  1  0
 60136  1  6
 61137  1  0
 61138  1  0
 61139  1  0
 64140  1  0
 65141  1  6
 66142  1  0
 66143  1  0
 66144  1  0
 69145  1  0
 70146  1  6
 71147  1  0
 71148  1  0
 71149  1  0
 74150  1  0
 75151  1  6
 77152  1  0
 77153  1  0
 79154  1  0
 79155  1  0
 81156  1  0
 81157  1  0
M  END
