
     RDKit          3D

147149  0  0  0  0  0  0  0  0999 V2000
   11.2760   -2.1839   -1.9890 C   0  0  0  0  0  0  0  0  0  0  0  0
    9.8471   -1.7697   -1.8214 C   0  0  0  0  0  0  0  0  0  0  0  0
    9.1757   -1.4594   -2.8451 O   0  0  0  0  0  0  0  0  0  0  0  0
    9.2556   -1.7176   -0.5122 N   0  0  0  0  0  0  0  0  0  0  0  0
    7.9434   -1.1091   -0.2521 C   0  0  1  0  0  0  0  0  0  0  0  0
    6.9663   -2.1549    0.3105 C   0  0  0  0  0  0  0  0  0  0  0  0
    6.7767   -3.6173   -0.7853 S   0  0  0  0  0  0  0  0  0  0  0  0
    5.7239   -2.8651   -2.0819 C   0  0  0  0  0  0  0  0  0  0  0  0
    4.3744   -2.4568   -1.5537 C   0  0  0  0  0  0  0  0  0  0  0  0
    3.9934   -1.1083   -1.5652 C   0  0  0  0  0  0  0  0  0  0  0  0
    2.7586   -0.7081   -1.0443 C   0  0  0  0  0  0  0  0  0  0  0  0
    1.8670   -1.6783   -0.5637 C   0  0  0  0  0  0  0  0  0  0  0  0
    2.2132   -3.0362   -0.5860 C   0  0  0  0  0  0  0  0  0  0  0  0
    3.4706   -3.4229   -1.0797 C   0  0  0  0  0  0  0  0  0  0  0  0
    1.2230   -4.0705   -0.1187 C   0  0  0  0  0  0  0  0  0  0  0  0
    1.8921   -5.0050    1.3043 S   0  0  0  0  0  0  0  0  0  0  0  0
    0.2772   -5.4134    2.0795 C   0  0  0  0  0  0  0  0  0  0  0  0
   -0.5813   -6.3727    1.2341 C   0  0  1  0  0  0  0  0  0  0  0  0
    0.1753   -7.6293    0.8877 C   0  0  0  0  0  0  0  0  0  0  0  0
    0.6612   -8.5061    1.9076 N   0  0  0  0  0  0  0  0  0  0  0  0
    0.3984   -7.9117   -0.3207 O   0  0  0  0  0  0  0  0  0  0  0  0
   -1.7921   -6.7177    1.9839 N   0  0  0  0  0  0  0  0  0  0  0  0
   -3.0340   -6.0257    1.7930 C   0  0  0  0  0  0  0  0  0  0  0  0
   -3.5199   -5.3856    2.7618 O   0  0  0  0  0  0  0  0  0  0  0  0
   -3.7736   -6.0426    0.4700 C   0  0  1  0  0  0  0  0  0  0  0  0
   -3.4336   -7.2896   -0.3614 C   0  0  0  0  0  0  0  0  0  0  0  0
   -5.2203   -6.0237    0.7185 N   0  0  0  0  0  0  0  0  0  0  0  0
   -6.2033   -5.4594   -0.1686 C   0  0  0  0  0  0  0  0  0  0  0  0
   -7.4217   -5.6264    0.1037 O   0  0  0  0  0  0  0  0  0  0  0  0
   -5.8232   -4.6205   -1.3756 C   0  0  1  0  0  0  0  0  0  0  0  0
   -6.8829   -4.6763   -2.4841 C   0  0  0  0  0  0  0  0  0  0  0  0
   -5.5573   -3.2356   -0.9774 N   0  0  0  0  0  0  0  0  0  0  0  0
   -6.4528   -2.4565   -0.1744 C   0  0  0  0  0  0  0  0  0  0  0  0
   -6.2785   -2.4160    1.0735 O   0  0  0  0  0  0  0  0  0  0  0  0
   -7.5113   -1.5987   -0.8306 C   0  0  1  0  0  0  0  0  0  0  0  0
   -8.5555   -1.1055    0.1844 C   0  0  0  0  0  0  0  0  0  0  0  0
   -6.8583   -0.5048   -1.5675 N   0  0  0  0  0  0  0  0  0  0  0  0
   -7.4240    0.8012   -1.7346 C   0  0  0  0  0  0  0  0  0  0  0  0
   -8.1247    1.0274   -2.7553 O   0  0  0  0  0  0  0  0  0  0  0  0
   -7.1243    1.9430   -0.7811 C   0  0  1  0  0  0  0  0  0  0  0  0
   -8.4128    2.4057   -0.0840 C   0  0  0  0  0  0  0  0  0  0  0  0
   -6.0928    1.5845    0.2099 N   0  0  0  0  0  0  0  0  0  0  0  0
   -5.3539    2.5146    1.0253 C   0  0  0  0  0  0  0  0  0  0  0  0
   -4.5047    2.0540    1.8387 O   0  0  0  0  0  0  0  0  0  0  0  0
   -5.5766    4.0106    0.9852 C   0  0  1  0  0  0  0  0  0  0  0  0
   -6.3349    4.4543    2.2377 C   0  0  0  0  0  0  0  0  0  0  0  0
   -4.2912    4.7095    0.9221 N   0  0  0  0  0  0  0  0  0  0  0  0
   -3.9233    5.4818   -0.2257 C   0  0  0  0  0  0  0  0  0  0  0  0
   -4.0682    4.9865   -1.3774 O   0  0  0  0  0  0  0  0  0  0  0  0
   -3.4497    6.9075   -0.0990 C   0  0  1  0  0  0  0  0  0  0  0  0
   -3.1964    7.3839    1.3402 C   0  0  0  0  0  0  0  0  0  0  0  0
   -2.2932    7.1705   -0.9668 N   0  0  0  0  0  0  0  0  0  0  0  0
   -0.9897    6.5587   -0.9093 C   0  0  0  0  0  0  0  0  0  0  0  0
   -0.1077    6.9615   -1.7162 O   0  0  0  0  0  0  0  0  0  0  0  0
   -0.6063    5.5022    0.1018 C   0  0  1  0  0  0  0  0  0  0  0  0
   -0.0935    4.2497   -0.6214 C   0  0  0  0  0  0  0  0  0  0  0  0
    0.3796    6.0739    1.0320 N   0  0  0  0  0  0  0  0  0  0  0  0
    1.3392    5.2994    1.7613 C   0  0  0  0  0  0  0  0  0  0  0  0
    1.0833    4.9626    2.9495 O   0  0  0  0  0  0  0  0  0  0  0  0
    2.6468    4.8870    1.1248 C   0  0  1  0  0  0  0  0  0  0  0  0
    3.1831    5.9781    0.1926 C   0  0  0  0  0  0  0  0  0  0  0  0
    3.6545    4.5982    2.1525 N   0  0  0  0  0  0  0  0  0  0  0  0
    4.1421    3.2868    2.4774 C   0  0  0  0  0  0  0  0  0  0  0  0
    4.1640    2.9431    3.6891 O   0  0  0  0  0  0  0  0  0  0  0  0
    4.7487    2.3370    1.4620 C   0  0  1  0  0  0  0  0  0  0  0  0
    3.9534    1.0283    1.3355 C   0  0  0  0  0  0  0  0  0  0  0  0
    2.2132    1.2701    0.8064 S   0  0  0  0  0  0  0  0  0  0  0  0
    2.4114    0.7536   -0.9421 C   0  0  0  0  0  0  0  0  0  0  0  0
    4.9695    2.9647    0.1555 N   0  0  0  0  0  0  0  0  0  0  0  0
    6.2724    3.0767   -0.4239 C   0  0  0  0  0  0  0  0  0  0  0  0
    6.7461    4.2228   -0.6613 O   0  0  0  0  0  0  0  0  0  0  0  0
    7.0509    1.8350   -0.7704 C   0  0  1  0  0  0  0  0  0  0  0  0
    7.9359    2.0408   -2.0084 C   0  0  0  0  0  0  0  0  0  0  0  0
    7.8749    1.4142    0.3656 N   0  0  0  0  0  0  0  0  0  0  0  0
    8.1179    0.0423    0.7223 C   0  0  0  0  0  0  0  0  0  0  0  0
    8.5450   -0.2114    1.8804 O   0  0  0  0  0  0  0  0  0  0  0  0
   11.3234   -3.0668   -2.6568 H   0  0  0  0  0  0  0  0  0  0  0  0
   11.7297   -2.4501   -1.0127 H   0  0  0  0  0  0  0  0  0  0  0  0
   11.8523   -1.3481   -2.4433 H   0  0  0  0  0  0  0  0  0  0  0  0
    9.8027   -2.0837    0.3012 H   0  0  0  0  0  0  0  0  0  0  0  0
    7.5223   -0.7336   -1.1963 H   0  0  0  0  0  0  0  0  0  0  0  0
    5.9777   -1.6915    0.5042 H   0  0  0  0  0  0  0  0  0  0  0  0
    7.3533   -2.5275    1.2848 H   0  0  0  0  0  0  0  0  0  0  0  0
    5.5796   -3.6147   -2.8884 H   0  0  0  0  0  0  0  0  0  0  0  0
    6.2582   -2.0110   -2.5463 H   0  0  0  0  0  0  0  0  0  0  0  0
    4.6724   -0.3665   -1.9601 H   0  0  0  0  0  0  0  0  0  0  0  0
    0.9071   -1.3715   -0.1728 H   0  0  0  0  0  0  0  0  0  0  0  0
    3.7415   -4.4749   -1.1063 H   0  0  0  0  0  0  0  0  0  0  0  0
    0.2644   -3.5881    0.1558 H   0  0  0  0  0  0  0  0  0  0  0  0
    1.0176   -4.7796   -0.9487 H   0  0  0  0  0  0  0  0  0  0  0  0
    0.4941   -5.8786    3.0641 H   0  0  0  0  0  0  0  0  0  0  0  0
   -0.2872   -4.4757    2.2760 H   0  0  0  0  0  0  0  0  0  0  0  0
   -0.8635   -5.8497    0.2977 H   0  0  0  0  0  0  0  0  0  0  0  0
    0.4265   -8.3391    2.9102 H   0  0  0  0  0  0  0  0  0  0  0  0
    1.2352   -9.3415    1.6584 H   0  0  0  0  0  0  0  0  0  0  0  0
   -1.6719   -7.2211    2.8908 H   0  0  0  0  0  0  0  0  0  0  0  0
   -3.4626   -5.1319   -0.0846 H   0  0  0  0  0  0  0  0  0  0  0  0
   -3.5057   -8.2047    0.2648 H   0  0  0  0  0  0  0  0  0  0  0  0
   -2.4132   -7.2163   -0.7791 H   0  0  0  0  0  0  0  0  0  0  0  0
   -4.1409   -7.3919   -1.2117 H   0  0  0  0  0  0  0  0  0  0  0  0
   -5.5846   -6.5917    1.5173 H   0  0  0  0  0  0  0  0  0  0  0  0
   -4.8993   -5.0393   -1.8271 H   0  0  0  0  0  0  0  0  0  0  0  0
   -7.8929   -4.4197   -2.1037 H   0  0  0  0  0  0  0  0  0  0  0  0
   -6.6183   -3.9711   -3.2999 H   0  0  0  0  0  0  0  0  0  0  0  0
   -6.9279   -5.7010   -2.9097 H   0  0  0  0  0  0  0  0  0  0  0  0
   -4.5824   -2.8780   -1.0784 H   0  0  0  0  0  0  0  0  0  0  0  0
   -8.0612   -2.2241   -1.5727 H   0  0  0  0  0  0  0  0  0  0  0  0
   -9.3566   -0.5272   -0.3232 H   0  0  0  0  0  0  0  0  0  0  0  0
   -9.0379   -1.9740    0.6830 H   0  0  0  0  0  0  0  0  0  0  0  0
   -8.0771   -0.4749    0.9656 H   0  0  0  0  0  0  0  0  0  0  0  0
   -6.1801   -0.8015   -2.3118 H   0  0  0  0  0  0  0  0  0  0  0  0
   -6.7384    2.7667   -1.4167 H   0  0  0  0  0  0  0  0  0  0  0  0
   -9.2845    2.3492   -0.7715 H   0  0  0  0  0  0  0  0  0  0  0  0
   -8.6299    1.7898    0.8121 H   0  0  0  0  0  0  0  0  0  0  0  0
   -8.3252    3.4627    0.2333 H   0  0  0  0  0  0  0  0  0  0  0  0
   -5.8866    0.5777    0.3934 H   0  0  0  0  0  0  0  0  0  0  0  0
   -6.1837    4.2953    0.1027 H   0  0  0  0  0  0  0  0  0  0  0  0
   -7.3055    3.9197    2.3274 H   0  0  0  0  0  0  0  0  0  0  0  0
   -5.7380    4.2481    3.1514 H   0  0  0  0  0  0  0  0  0  0  0  0
   -6.5376    5.5453    2.1895 H   0  0  0  0  0  0  0  0  0  0  0  0
   -3.6803    4.7228    1.7683 H   0  0  0  0  0  0  0  0  0  0  0  0
   -4.2915    7.5333   -0.4729 H   0  0  0  0  0  0  0  0  0  0  0  0
   -2.8898    8.4519    1.3328 H   0  0  0  0  0  0  0  0  0  0  0  0
   -2.4061    6.8060    1.8543 H   0  0  0  0  0  0  0  0  0  0  0  0
   -4.1318    7.2996    1.9352 H   0  0  0  0  0  0  0  0  0  0  0  0
   -2.4412    7.8731   -1.7286 H   0  0  0  0  0  0  0  0  0  0  0  0
   -1.4787    5.1759    0.6910 H   0  0  0  0  0  0  0  0  0  0  0  0
    0.8285    4.4678   -1.1987 H   0  0  0  0  0  0  0  0  0  0  0  0
   -0.8686    3.8718   -1.3232 H   0  0  0  0  0  0  0  0  0  0  0  0
    0.1133    3.4407    0.1097 H   0  0  0  0  0  0  0  0  0  0  0  0
    0.1306    6.9932    1.4613 H   0  0  0  0  0  0  0  0  0  0  0  0
    2.4304    3.9796    0.5399 H   0  0  0  0  0  0  0  0  0  0  0  0
    2.4679    6.1776   -0.6351 H   0  0  0  0  0  0  0  0  0  0  0  0
    3.3603    6.9176    0.7551 H   0  0  0  0  0  0  0  0  0  0  0  0
    4.1462    5.6544   -0.2570 H   0  0  0  0  0  0  0  0  0  0  0  0
    3.8709    5.3637    2.8345 H   0  0  0  0  0  0  0  0  0  0  0  0
    5.7406    2.0533    1.8793 H   0  0  0  0  0  0  0  0  0  0  0  0
    3.9260    0.5289    2.3256 H   0  0  0  0  0  0  0  0  0  0  0  0
    4.5038    0.3431    0.6633 H   0  0  0  0  0  0  0  0  0  0  0  0
    3.1721    1.3886   -1.4422 H   0  0  0  0  0  0  0  0  0  0  0  0
    1.4475    0.9336   -1.4611 H   0  0  0  0  0  0  0  0  0  0  0  0
    4.1697    3.2466   -0.4498 H   0  0  0  0  0  0  0  0  0  0  0  0
    6.3030    1.0522   -1.0033 H   0  0  0  0  0  0  0  0  0  0  0  0
    8.5587    2.9550   -1.9122 H   0  0  0  0  0  0  0  0  0  0  0  0
    7.3091    2.1118   -2.9192 H   0  0  0  0  0  0  0  0  0  0  0  0
    8.6237    1.1828   -2.1322 H   0  0  0  0  0  0  0  0  0  0  0  0
    8.2862    2.1516    0.9785 H   0  0  0  0  0  0  0  0  0  0  0  0
  1  2  1  0
  2  3  2  0
  2  4  1  0
  4  5  1  0
  5  6  1  0
  6  7  1  0
  7  8  1  0
  8  9  1  0
  9 10  1  0
 10 11  2  0
 11 12  1  0
 12 13  2  0
 13 14  1  0
 13 15  1  0
 15 16  1  0
 16 17  1  0
 17 18  1  0
 18 19  1  0
 19 20  1  0
 19 21  2  0
 18 22  1  0
 22 23  1  0
 23 24  2  0
 23 25  1  0
 25 26  1  0
 25 27  1  0
 27 28  1  0
 28 29  2  0
 28 30  1  0
 30 31  1  0
 30 32  1  0
 32 33  1  0
 33 34  2  0
 33 35  1  0
 35 36  1  0
 35 37  1  0
 37 38  1  0
 38 39  2  0
 38 40  1  0
 40 41  1  0
 40 42  1  0
 42 43  1  0
 43 44  2  0
 43 45  1  0
 45 46  1  0
 45 47  1  0
 47 48  1  0
 48 49  2  0
 48 50  1  0
 50 51  1  0
 50 52  1  0
 52 53  1  0
 53 54  2  0
 53 55  1  0
 55 56  1  0
 55 57  1  0
 57 58  1  0
 58 59  2  0
 58 60  1  0
 60 61  1  0
 60 62  1  0
 62 63  1  0
 63 64  2  0
 63 65  1  0
 65 66  1  0
 66 67  1  0
 67 68  1  0
 65 69  1  0
 69 70  1  0
 70 71  2  0
 70 72  1  0
 72 73  1  0
 72 74  1  0
 74 75  1  0
 75 76  2  0
 75  5  1  0
 14  9  2  0
 68 11  1  0
  1 77  1  0
  1 78  1  0
  1 79  1  0
  4 80  1  0
  5 81  1  6
  6 82  1  0
  6 83  1  0
  8 84  1  0
  8 85  1  0
 10 86  1  0
 12 87  1  0
 14 88  1  0
 15 89  1  0
 15 90  1  0
 17 91  1  0
 17 92  1  0
 18 93  1  6
 20 94  1  0
 20 95  1  0
 22 96  1  0
 25 97  1  6
 26 98  1  0
 26 99  1  0
 26100  1  0
 27101  1  0
 30102  1  6
 31103  1  0
 31104  1  0
 31105  1  0
 32106  1  0
 35107  1  6
 36108  1  0
 36109  1  0
 36110  1  0
 37111  1  0
 40112  1  6
 41113  1  0
 41114  1  0
 41115  1  0
 42116  1  0
 45117  1  6
 46118  1  0
 46119  1  0
 46120  1  0
 47121  1  0
 50122  1  6
 51123  1  0
 51124  1  0
 51125  1  0
 52126  1  0
 55127  1  1
 56128  1  0
 56129  1  0
 56130  1  0
 57131  1  0
 60132  1  6
 61133  1  0
 61134  1  0
 61135  1  0
 62136  1  0
 65137  1  1
 66138  1  0
 66139  1  0
 68140  1  0
 68141  1  0
 69142  1  0
 72143  1  6
 73144  1  0
 73145  1  0
 73146  1  0
 74147  1  0
M  END
