
     RDKit          3D

157159  0  0  0  0  0  0  0  0999 V2000
    6.7000   -5.3115   -2.3939 C   0  0  0  0  0  0  0  0  0  0  0  0
    7.4500   -4.8451   -1.1851 C   0  0  0  0  0  0  0  0  0  0  0  0
    8.6492   -4.4828   -1.3153 O   0  0  0  0  0  0  0  0  0  0  0  0
    6.8210   -4.8916    0.1103 N   0  0  0  0  0  0  0  0  0  0  0  0
    7.0945   -4.0139    1.2641 C   0  0  2  0  0  0  0  0  0  0  0  0
    5.9199   -3.0351    1.5325 C   0  0  0  0  0  0  0  0  0  0  0  0
    5.1061   -2.4198   -0.0021 S   0  0  0  0  0  0  0  0  0  0  0  0
    3.7869   -3.7064   -0.1169 C   0  0  0  0  0  0  0  0  0  0  0  0
    2.3883   -3.1443   -0.1491 C   0  0  0  0  0  0  0  0  0  0  0  0
    1.3627   -3.9631   -0.6535 C   0  0  0  0  0  0  0  0  0  0  0  0
    0.0326   -3.5122   -0.6811 C   0  0  0  0  0  0  0  0  0  0  0  0
   -0.2689   -2.2408   -0.1862 C   0  0  0  0  0  0  0  0  0  0  0  0
    0.7390   -1.4159    0.3326 C   0  0  0  0  0  0  0  0  0  0  0  0
    2.0553   -1.8998    0.4119 C   0  0  0  0  0  0  0  0  0  0  0  0
    0.3659   -0.0459    0.8539 C   0  0  0  0  0  0  0  0  0  0  0  0
    1.6280    1.2620    0.5783 S   0  0  0  0  0  0  0  0  0  0  0  0
    1.9369    0.9449   -1.2048 C   0  0  0  0  0  0  0  0  0  0  0  0
    2.0014    2.2413   -2.0219 C   0  0  2  0  0  0  0  0  0  0  0  0
    3.0748    3.1043   -1.5139 N   0  0  0  0  0  0  0  0  0  0  0  0
    4.3177    3.2905   -2.2184 C   0  0  0  0  0  0  0  0  0  0  0  0
    4.7130    2.4112   -3.0312 O   0  0  0  0  0  0  0  0  0  0  0  0
    5.0923    4.5855   -2.1112 C   0  0  1  0  0  0  0  0  0  0  0  0
    5.0099    5.3419   -3.4441 C   0  0  0  0  0  0  0  0  0  0  0  0
    4.5789    5.4303   -1.0209 N   0  0  0  0  0  0  0  0  0  0  0  0
    4.9240    5.2924    0.3637 C   0  0  0  0  0  0  0  0  0  0  0  0
    4.2036    5.8771    1.2124 O   0  0  0  0  0  0  0  0  0  0  0  0
    6.1588    4.5323    0.8136 C   0  0  1  0  0  0  0  0  0  0  0  0
    7.3949    5.4150    0.6424 C   0  0  0  0  0  0  0  0  0  0  0  0
    6.0356    4.0956    2.2136 N   0  0  0  0  0  0  0  0  0  0  0  0
    6.4915    2.8129    2.6670 C   0  0  0  0  0  0  0  0  0  0  0  0
    5.6735    2.0475    3.2485 O   0  0  0  0  0  0  0  0  0  0  0  0
    7.9282    2.3772    2.4881 C   0  0  1  0  0  0  0  0  0  0  0  0
    8.4368    1.6832    3.7609 C   0  0  0  0  0  0  0  0  0  0  0  0
    8.0311    1.5218    1.2904 N   0  0  0  0  0  0  0  0  0  0  0  0
    8.9013    0.3903    1.1742 C   0  0  0  0  0  0  0  0  0  0  0  0
   10.1265    0.5108    1.4582 O   0  0  0  0  0  0  0  0  0  0  0  0
    8.3744   -0.9115    0.6302 C   0  0  1  0  0  0  0  0  0  0  0  0
    8.8861   -1.1396   -0.7958 C   0  0  0  0  0  0  0  0  0  0  0  0
    8.7495   -2.0131    1.5297 N   0  0  0  0  0  0  0  0  0  0  0  0
    8.4885   -3.4033    1.2520 C   0  0  0  0  0  0  0  0  0  0  0  0
    9.4767   -4.1905    1.2147 O   0  0  0  0  0  0  0  0  0  0  0  0
    0.6600    2.9561   -2.0471 C   0  0  0  0  0  0  0  0  0  0  0  0
   -0.3728    2.2923   -2.3260 O   0  0  0  0  0  0  0  0  0  0  0  0
    0.5503    4.3661   -1.7779 N   0  0  0  0  0  0  0  0  0  0  0  0
   -0.7315    5.0784   -1.6211 C   0  0  2  0  0  0  0  0  0  0  0  0
   -0.4804    6.4721   -1.0140 C   0  0  0  0  0  0  0  0  0  0  0  0
   -1.7030    4.3267   -0.7467 C   0  0  0  0  0  0  0  0  0  0  0  0
   -1.3620    3.9626    0.4164 O   0  0  0  0  0  0  0  0  0  0  0  0
   -3.0218    4.0395   -1.2424 N   0  0  0  0  0  0  0  0  0  0  0  0
   -4.2680    4.4917   -0.6121 C   0  0  2  0  0  0  0  0  0  0  0  0
   -4.1102    5.8901    0.0001 C   0  0  0  0  0  0  0  0  0  0  0  0
   -4.7300    3.5001    0.4377 C   0  0  0  0  0  0  0  0  0  0  0  0
   -3.9140    3.1458    1.3272 O   0  0  0  0  0  0  0  0  0  0  0  0
   -6.0699    2.9607    0.4830 N   0  0  0  0  0  0  0  0  0  0  0  0
   -7.1393    3.2148   -0.4995 C   0  0  2  0  0  0  0  0  0  0  0  0
   -7.7951    4.5718   -0.2173 C   0  0  0  0  0  0  0  0  0  0  0  0
   -8.2044    2.1382   -0.4667 C   0  0  0  0  0  0  0  0  0  0  0  0
   -9.2234    2.2366   -1.2021 O   0  0  0  0  0  0  0  0  0  0  0  0
   -8.0896    1.0098    0.4082 N   0  0  0  0  0  0  0  0  0  0  0  0
   -9.1387    0.6506    1.3740 C   0  0  2  0  0  0  0  0  0  0  0  0
   -9.6078    1.8964    2.1460 C   0  0  0  0  0  0  0  0  0  0  0  0
   -8.6086   -0.4156    2.3159 C   0  0  0  0  0  0  0  0  0  0  0  0
   -8.3273   -0.1144    3.5122 O   0  0  0  0  0  0  0  0  0  0  0  0
   -8.3432   -1.7624    1.8712 N   0  0  0  0  0  0  0  0  0  0  0  0
   -8.8893   -2.3667    0.6490 C   0  0  2  0  0  0  0  0  0  0  0  0
  -10.1495   -3.1655    1.0080 C   0  0  0  0  0  0  0  0  0  0  0  0
   -7.8603   -3.2671    0.0151 C   0  0  0  0  0  0  0  0  0  0  0  0
   -7.7010   -3.2580   -1.2298 O   0  0  0  0  0  0  0  0  0  0  0  0
   -7.0792   -4.1538    0.8199 N   0  0  0  0  0  0  0  0  0  0  0  0
   -7.3456   -5.5896    0.8376 C   0  0  2  0  0  0  0  0  0  0  0  0
   -6.7427   -6.2546    2.0806 C   0  0  0  0  0  0  0  0  0  0  0  0
   -6.8785   -6.2585   -0.4384 C   0  0  0  0  0  0  0  0  0  0  0  0
   -7.7498   -6.6596   -1.2493 O   0  0  0  0  0  0  0  0  0  0  0  0
   -5.4886   -6.4909   -0.7481 N   0  0  0  0  0  0  0  0  0  0  0  0
   -4.4216   -5.5089   -0.5160 C   0  0  2  0  0  0  0  0  0  0  0  0
   -4.4357   -4.4853   -1.6241 C   0  0  0  0  0  0  0  0  0  0  0  0
   -4.2464   -4.8814   -2.9834 N   0  0  0  0  0  0  0  0  0  0  0  0
   -4.6392   -3.2729   -1.3526 O   0  0  0  0  0  0  0  0  0  0  0  0
   -3.0632   -6.2248   -0.4330 C   0  0  0  0  0  0  0  0  0  0  0  0
   -1.7983   -5.1927    0.3954 S   0  0  0  0  0  0  0  0  0  0  0  0
   -1.0716   -4.4389   -1.1018 C   0  0  0  0  0  0  0  0  0  0  0  0
    5.8614   -4.6141   -2.5897 H   0  0  0  0  0  0  0  0  0  0  0  0
    6.3043   -6.3287   -2.2222 H   0  0  0  0  0  0  0  0  0  0  0  0
    7.3697   -5.3307   -3.2829 H   0  0  0  0  0  0  0  0  0  0  0  0
    5.9874   -5.5119    0.1951 H   0  0  0  0  0  0  0  0  0  0  0  0
    7.1107   -4.6869    2.1553 H   0  0  0  0  0  0  0  0  0  0  0  0
    6.2490   -2.1687    2.1490 H   0  0  0  0  0  0  0  0  0  0  0  0
    5.1664   -3.5419    2.1773 H   0  0  0  0  0  0  0  0  0  0  0  0
    3.8417   -4.4634    0.6963 H   0  0  0  0  0  0  0  0  0  0  0  0
    3.9833   -4.2492   -1.0686 H   0  0  0  0  0  0  0  0  0  0  0  0
    1.5961   -4.9682   -0.9949 H   0  0  0  0  0  0  0  0  0  0  0  0
   -1.2996   -1.9037   -0.1852 H   0  0  0  0  0  0  0  0  0  0  0  0
    2.8141   -1.2920    0.8806 H   0  0  0  0  0  0  0  0  0  0  0  0
    0.1748   -0.1121    1.9481 H   0  0  0  0  0  0  0  0  0  0  0  0
   -0.5788    0.3080    0.3804 H   0  0  0  0  0  0  0  0  0  0  0  0
    1.1608    0.2879   -1.6447 H   0  0  0  0  0  0  0  0  0  0  0  0
    2.9058    0.4147   -1.2956 H   0  0  0  0  0  0  0  0  0  0  0  0
    2.2282    1.9582   -3.0736 H   0  0  0  0  0  0  0  0  0  0  0  0
    2.9487    3.5275   -0.5639 H   0  0  0  0  0  0  0  0  0  0  0  0
    6.1655    4.3527   -1.9459 H   0  0  0  0  0  0  0  0  0  0  0  0
    3.9547    5.5351   -3.7291 H   0  0  0  0  0  0  0  0  0  0  0  0
    5.4959    4.7578   -4.2513 H   0  0  0  0  0  0  0  0  0  0  0  0
    5.5376    6.3159   -3.3520 H   0  0  0  0  0  0  0  0  0  0  0  0
    3.7967    6.0869   -1.2523 H   0  0  0  0  0  0  0  0  0  0  0  0
    6.2629    3.6370    0.1713 H   0  0  0  0  0  0  0  0  0  0  0  0
    8.3141    4.7977    0.6602 H   0  0  0  0  0  0  0  0  0  0  0  0
    7.3726    5.9542   -0.3260 H   0  0  0  0  0  0  0  0  0  0  0  0
    7.4539    6.1691    1.4609 H   0  0  0  0  0  0  0  0  0  0  0  0
    5.4654    4.6525    2.8859 H   0  0  0  0  0  0  0  0  0  0  0  0
    8.5539    3.2861    2.3303 H   0  0  0  0  0  0  0  0  0  0  0  0
    8.2239    2.3118    4.6540 H   0  0  0  0  0  0  0  0  0  0  0  0
    9.5335    1.5390    3.7127 H   0  0  0  0  0  0  0  0  0  0  0  0
    7.9468    0.6966    3.8867 H   0  0  0  0  0  0  0  0  0  0  0  0
    7.4279    1.7321    0.4599 H   0  0  0  0  0  0  0  0  0  0  0  0
    7.2700   -0.8200    0.5918 H   0  0  0  0  0  0  0  0  0  0  0  0
    8.3120   -1.9654   -1.2735 H   0  0  0  0  0  0  0  0  0  0  0  0
    8.7422   -0.2178   -1.4019 H   0  0  0  0  0  0  0  0  0  0  0  0
    9.9697   -1.4017   -0.7880 H   0  0  0  0  0  0  0  0  0  0  0  0
    9.4726   -1.8345    2.2592 H   0  0  0  0  0  0  0  0  0  0  0  0
    1.4333    4.9342   -1.7198 H   0  0  0  0  0  0  0  0  0  0  0  0
   -1.1905    5.2339   -2.6269 H   0  0  0  0  0  0  0  0  0  0  0  0
    0.0597    7.1158   -1.7422 H   0  0  0  0  0  0  0  0  0  0  0  0
   -1.4462    6.9693   -0.7595 H   0  0  0  0  0  0  0  0  0  0  0  0
    0.1310    6.3673   -0.0845 H   0  0  0  0  0  0  0  0  0  0  0  0
   -3.0900    3.4471   -2.1093 H   0  0  0  0  0  0  0  0  0  0  0  0
   -5.0209    4.5840   -1.4136 H   0  0  0  0  0  0  0  0  0  0  0  0
   -3.8503    6.6191   -0.7952 H   0  0  0  0  0  0  0  0  0  0  0  0
   -5.0534    6.2187    0.4731 H   0  0  0  0  0  0  0  0  0  0  0  0
   -3.3172    5.9037    0.7762 H   0  0  0  0  0  0  0  0  0  0  0  0
   -6.3139    2.4530    1.3641 H   0  0  0  0  0  0  0  0  0  0  0  0
   -6.7251    3.2038   -1.5288 H   0  0  0  0  0  0  0  0  0  0  0  0
   -7.0540    5.3876   -0.2999 H   0  0  0  0  0  0  0  0  0  0  0  0
   -8.2256    4.5832    0.8088 H   0  0  0  0  0  0  0  0  0  0  0  0
   -8.6050    4.7788   -0.9500 H   0  0  0  0  0  0  0  0  0  0  0  0
   -7.3156    0.3251    0.2064 H   0  0  0  0  0  0  0  0  0  0  0  0
  -10.0279    0.2518    0.8334 H   0  0  0  0  0  0  0  0  0  0  0  0
   -8.7515    2.4072    2.6344 H   0  0  0  0  0  0  0  0  0  0  0  0
  -10.3521    1.6068    2.9213 H   0  0  0  0  0  0  0  0  0  0  0  0
  -10.1067    2.6103    1.4565 H   0  0  0  0  0  0  0  0  0  0  0  0
   -7.8963   -2.3985    2.5701 H   0  0  0  0  0  0  0  0  0  0  0  0
   -9.1643   -1.5895   -0.0914 H   0  0  0  0  0  0  0  0  0  0  0  0
  -10.5759   -3.6113    0.0895 H   0  0  0  0  0  0  0  0  0  0  0  0
  -10.9118   -2.4857    1.4495 H   0  0  0  0  0  0  0  0  0  0  0  0
   -9.9128   -3.9692    1.7382 H   0  0  0  0  0  0  0  0  0  0  0  0
   -6.2090   -3.7560    1.2659 H   0  0  0  0  0  0  0  0  0  0  0  0
   -8.4431   -5.7293    0.9243 H   0  0  0  0  0  0  0  0  0  0  0  0
   -7.0130   -5.6832    2.9965 H   0  0  0  0  0  0  0  0  0  0  0  0
   -5.6368   -6.3402    2.0199 H   0  0  0  0  0  0  0  0  0  0  0  0
   -7.1609   -7.2722    2.1869 H   0  0  0  0  0  0  0  0  0  0  0  0
   -5.2991   -7.2418   -1.4531 H   0  0  0  0  0  0  0  0  0  0  0  0
   -4.5803   -5.0042    0.4566 H   0  0  0  0  0  0  0  0  0  0  0  0
   -4.1350   -5.8954   -3.2399 H   0  0  0  0  0  0  0  0  0  0  0  0
   -4.1777   -4.1649   -3.7485 H   0  0  0  0  0  0  0  0  0  0  0  0
   -3.1816   -7.1363    0.1956 H   0  0  0  0  0  0  0  0  0  0  0  0
   -2.7006   -6.5589   -1.4306 H   0  0  0  0  0  0  0  0  0  0  0  0
   -1.8358   -3.8657   -1.6586 H   0  0  0  0  0  0  0  0  0  0  0  0
   -0.6850   -5.2288   -1.7753 H   0  0  0  0  0  0  0  0  0  0  0  0
  1  2  1  0
  2  3  2  0
  2  4  1  0
  4  5  1  0
  5  6  1  0
  6  7  1  0
  7  8  1  0
  8  9  1  0
  9 10  2  0
 10 11  1  0
 11 12  2  0
 12 13  1  0
 13 14  2  0
 13 15  1  0
 15 16  1  0
 16 17  1  0
 17 18  1  0
 18 19  1  0
 19 20  1  0
 20 21  2  0
 20 22  1  0
 22 23  1  0
 22 24  1  0
 24 25  1  0
 25 26  2  0
 25 27  1  0
 27 28  1  0
 27 29  1  0
 29 30  1  0
 30 31  2  0
 30 32  1  0
 32 33  1  0
 32 34  1  0
 34 35  1  0
 35 36  2  0
 35 37  1  0
 37 38  1  0
 37 39  1  0
 39 40  1  0
 40 41  2  0
 18 42  1  0
 42 43  2  0
 42 44  1  0
 44 45  1  0
 45 46  1  0
 45 47  1  0
 47 48  2  0
 47 49  1  0
 49 50  1  0
 50 51  1  0
 50 52  1  0
 52 53  2  0
 52 54  1  0
 54 55  1  0
 55 56  1  0
 55 57  1  0
 57 58  2  0
 57 59  1  0
 59 60  1  0
 60 61  1  0
 60 62  1  0
 62 63  2  0
 62 64  1  0
 64 65  1  0
 65 66  1  0
 65 67  1  0
 67 68  2  0
 67 69  1  0
 69 70  1  0
 70 71  1  0
 70 72  1  0
 72 73  2  0
 72 74  1  0
 74 75  1  0
 75 76  1  0
 76 77  1  0
 76 78  2  0
 75 79  1  0
 79 80  1  0
 80 81  1  0
 40  5  1  0
 14  9  1  0
 81 11  1  0
  1 82  1  0
  1 83  1  0
  1 84  1  0
  4 85  1  0
  5 86  1  1
  6 87  1  0
  6 88  1  0
  8 89  1  0
  8 90  1  0
 10 91  1  0
 12 92  1  0
 14 93  1  0
 15 94  1  0
 15 95  1  0
 17 96  1  0
 17 97  1  0
 18 98  1  6
 19 99  1  0
 22100  1  1
 23101  1  0
 23102  1  0
 23103  1  0
 24104  1  0
 27105  1  6
 28106  1  0
 28107  1  0
 28108  1  0
 29109  1  0
 32110  1  6
 33111  1  0
 33112  1  0
 33113  1  0
 34114  1  0
 37115  1  6
 38116  1  0
 38117  1  0
 38118  1  0
 39119  1  0
 44120  1  0
 45121  1  6
 46122  1  0
 46123  1  0
 46124  1  0
 49125  1  0
 50126  1  6
 51127  1  0
 51128  1  0
 51129  1  0
 54130  1  0
 55131  1  6
 56132  1  0
 56133  1  0
 56134  1  0
 59135  1  0
 60136  1  6
 61137  1  0
 61138  1  0
 61139  1  0
 64140  1  0
 65141  1  6
 66142  1  0
 66143  1  0
 66144  1  0
 69145  1  0
 70146  1  1
 71147  1  0
 71148  1  0
 71149  1  0
 74150  1  0
 75151  1  1
 77152  1  0
 77153  1  0
 79154  1  0
 79155  1  0
 81156  1  0
 81157  1  0
M  END
