
     RDKit          3D

147149  0  0  0  0  0  0  0  0999 V2000
   -8.2759    5.6643    1.0833 C   0  0  0  0  0  0  0  0  0  0  0  0
   -8.2146    4.2114    1.4343 C   0  0  0  0  0  0  0  0  0  0  0  0
   -9.1411    3.7307    2.1443 O   0  0  0  0  0  0  0  0  0  0  0  0
   -7.1260    3.3533    1.0360 N   0  0  0  0  0  0  0  0  0  0  0  0
   -6.2131    3.5567   -0.1013 C   0  0  2  0  0  0  0  0  0  0  0  0
   -5.1731    4.6478    0.2129 C   0  0  0  0  0  0  0  0  0  0  0  0
   -3.9152    4.7264   -1.1171 S   0  0  0  0  0  0  0  0  0  0  0  0
   -2.4796    5.2138   -0.0933 C   0  0  0  0  0  0  0  0  0  0  0  0
   -1.4500    4.1262   -0.1932 C   0  0  0  0  0  0  0  0  0  0  0  0
   -0.2847    4.3164   -0.9492 C   0  0  0  0  0  0  0  0  0  0  0  0
    0.6261    3.2644   -1.1304 C   0  0  0  0  0  0  0  0  0  0  0  0
    0.3388    2.0047   -0.5769 C   0  0  0  0  0  0  0  0  0  0  0  0
   -0.8057    1.8146    0.2179 C   0  0  0  0  0  0  0  0  0  0  0  0
   -1.7033    2.8796    0.3884 C   0  0  0  0  0  0  0  0  0  0  0  0
   -1.1723    0.4513    0.7581 C   0  0  0  0  0  0  0  0  0  0  0  0
    0.2791   -0.4732    1.3924 S   0  0  0  0  0  0  0  0  0  0  0  0
   -0.6592   -1.9501    1.9435 C   0  0  0  0  0  0  0  0  0  0  0  0
   -0.0853   -3.2348    1.3211 C   0  0  2  0  0  0  0  0  0  0  0  0
   -1.0121   -4.3359    1.5837 N   0  0  0  0  0  0  0  0  0  0  0  0
   -1.8683   -4.9158    0.5860 C   0  0  0  0  0  0  0  0  0  0  0  0
   -2.0806   -6.1637    0.6276 O   0  0  0  0  0  0  0  0  0  0  0  0
   -2.6037   -4.0606   -0.4270 C   0  0  1  0  0  0  0  0  0  0  0  0
   -2.9504   -4.8443   -1.6965 C   0  0  0  0  0  0  0  0  0  0  0  0
   -3.8241   -3.4630    0.1380 N   0  0  0  0  0  0  0  0  0  0  0  0
   -4.8877   -4.2279    0.7365 C   0  0  0  0  0  0  0  0  0  0  0  0
   -4.6350   -5.3428    1.2686 O   0  0  0  0  0  0  0  0  0  0  0  0
   -6.2978   -3.6756    0.7526 C   0  0  1  0  0  0  0  0  0  0  0  0
   -7.3263   -4.7771    1.0608 C   0  0  0  0  0  0  0  0  0  0  0  0
   -6.4011   -2.6021    1.7462 N   0  0  0  0  0  0  0  0  0  0  0  0
   -7.4461   -1.6089    1.7404 C   0  0  0  0  0  0  0  0  0  0  0  0
   -7.8660   -1.1743    2.8502 O   0  0  0  0  0  0  0  0  0  0  0  0
   -8.0562   -1.0765    0.4564 C   0  0  1  0  0  0  0  0  0  0  0  0
   -9.2158   -1.9664   -0.0116 C   0  0  0  0  0  0  0  0  0  0  0  0
   -8.5620    0.2887    0.6461 N   0  0  0  0  0  0  0  0  0  0  0  0
   -8.7733    1.2056   -0.4418 C   0  0  0  0  0  0  0  0  0  0  0  0
   -9.8016    1.9332   -0.4302 O   0  0  0  0  0  0  0  0  0  0  0  0
   -7.7899    1.3319   -1.5761 C   0  0  1  0  0  0  0  0  0  0  0  0
   -8.2159    0.4293   -2.7422 C   0  0  0  0  0  0  0  0  0  0  0  0
   -7.7215    2.7286   -2.0338 N   0  0  0  0  0  0  0  0  0  0  0  0
   -6.9734    3.7768   -1.3965 C   0  0  0  0  0  0  0  0  0  0  0  0
   -6.9339    4.9074   -1.9578 O   0  0  0  0  0  0  0  0  0  0  0  0
    1.2831   -3.6048    1.8599 C   0  0  0  0  0  0  0  0  0  0  0  0
    1.8082   -2.9122    2.7790 O   0  0  0  0  0  0  0  0  0  0  0  0
    1.9810   -4.7678    1.3863 N   0  0  0  0  0  0  0  0  0  0  0  0
    1.7965   -5.3665    0.0569 C   0  0  2  0  0  0  0  0  0  0  0  0
    1.8378   -6.8913    0.1950 C   0  0  0  0  0  0  0  0  0  0  0  0
    2.8762   -4.8926   -0.8888 C   0  0  0  0  0  0  0  0  0  0  0  0
    2.9272   -5.3497   -2.0647 O   0  0  0  0  0  0  0  0  0  0  0  0
    3.8212   -3.9007   -0.4715 N   0  0  0  0  0  0  0  0  0  0  0  0
    5.2808   -4.0732   -0.5653 C   0  0  2  0  0  0  0  0  0  0  0  0
    5.6862   -5.5490   -0.4373 C   0  0  0  0  0  0  0  0  0  0  0  0
    5.9484   -3.2769    0.5323 C   0  0  0  0  0  0  0  0  0  0  0  0
    5.4777   -3.3260    1.6999 O   0  0  0  0  0  0  0  0  0  0  0  0
    7.1015   -2.4593    0.2848 N   0  0  0  0  0  0  0  0  0  0  0  0
    8.2291   -2.9018   -0.5479 C   0  0  2  0  0  0  0  0  0  0  0  0
    9.2028   -3.7030    0.3227 C   0  0  0  0  0  0  0  0  0  0  0  0
    8.9341   -1.7192   -1.1726 C   0  0  0  0  0  0  0  0  0  0  0  0
   10.0189   -1.9125   -1.7816 O   0  0  0  0  0  0  0  0  0  0  0  0
    8.3317   -0.4114   -1.1748 N   0  0  0  0  0  0  0  0  0  0  0  0
    9.0054    0.8383   -0.8012 C   0  0  2  0  0  0  0  0  0  0  0  0
   10.5236    0.7975   -1.0335 C   0  0  0  0  0  0  0  0  0  0  0  0
    8.7324    1.1377    0.6608 C   0  0  0  0  0  0  0  0  0  0  0  0
    9.0195    0.2462    1.5081 O   0  0  0  0  0  0  0  0  0  0  0  0
    8.2275    2.3976    1.1502 N   0  0  0  0  0  0  0  0  0  0  0  0
    7.6335    3.4848    0.3568 C   0  0  2  0  0  0  0  0  0  0  0  0
    8.3091    4.8037    0.7315 C   0  0  0  0  0  0  0  0  0  0  0  0
    6.1529    3.5850    0.6182 C   0  0  0  0  0  0  0  0  0  0  0  0
    5.6039    2.8801    1.5130 O   0  0  0  0  0  0  0  0  0  0  0  0
    5.3623    4.4874   -0.1522 N   0  0  0  0  0  0  0  0  0  0  0  0
    4.3550    5.3548    0.4768 C   0  0  1  0  0  0  0  0  0  0  0  0
    4.6256    6.8074    0.1779 C   0  0  0  0  0  0  0  0  0  0  0  0
    4.1442    7.8264    1.0559 N   0  0  0  0  0  0  0  0  0  0  0  0
    5.2838    7.1399   -0.8483 O   0  0  0  0  0  0  0  0  0  0  0  0
    2.9476    4.9227    0.0490 C   0  0  0  0  0  0  0  0  0  0  0  0
    2.7037    5.0470   -1.7639 S   0  0  0  0  0  0  0  0  0  0  0  0
    1.8512    3.4351   -2.0000 C   0  0  0  0  0  0  0  0  0  0  0  0
   -7.4274    6.2010    1.5532 H   0  0  0  0  0  0  0  0  0  0  0  0
   -9.2162    6.1084    1.4744 H   0  0  0  0  0  0  0  0  0  0  0  0
   -8.2704    5.8085   -0.0114 H   0  0  0  0  0  0  0  0  0  0  0  0
   -7.0561    2.4357    1.5365 H   0  0  0  0  0  0  0  0  0  0  0  0
   -5.6189    2.6215   -0.2212 H   0  0  0  0  0  0  0  0  0  0  0  0
   -4.7045    4.4056    1.1897 H   0  0  0  0  0  0  0  0  0  0  0  0
   -5.6376    5.6526    0.2846 H   0  0  0  0  0  0  0  0  0  0  0  0
   -2.0867    6.1696   -0.5011 H   0  0  0  0  0  0  0  0  0  0  0  0
   -2.7354    5.3920    0.9714 H   0  0  0  0  0  0  0  0  0  0  0  0
   -0.1082    5.2712   -1.4298 H   0  0  0  0  0  0  0  0  0  0  0  0
    0.9964    1.1692   -0.7798 H   0  0  0  0  0  0  0  0  0  0  0  0
   -2.6261    2.7215    0.9355 H   0  0  0  0  0  0  0  0  0  0  0  0
   -1.6480   -0.1278   -0.0594 H   0  0  0  0  0  0  0  0  0  0  0  0
   -1.9047    0.5548    1.5947 H   0  0  0  0  0  0  0  0  0  0  0  0
   -1.7330   -1.8678    1.6528 H   0  0  0  0  0  0  0  0  0  0  0  0
   -0.6309   -2.0049    3.0573 H   0  0  0  0  0  0  0  0  0  0  0  0
    0.0229   -3.0673    0.2270 H   0  0  0  0  0  0  0  0  0  0  0  0
   -0.9354   -4.8369    2.5007 H   0  0  0  0  0  0  0  0  0  0  0  0
   -1.9415   -3.2305   -0.7498 H   0  0  0  0  0  0  0  0  0  0  0  0
   -2.0251   -5.2284   -2.1825 H   0  0  0  0  0  0  0  0  0  0  0  0
   -3.4743   -4.1796   -2.4176 H   0  0  0  0  0  0  0  0  0  0  0  0
   -3.6219   -5.7015   -1.4651 H   0  0  0  0  0  0  0  0  0  0  0  0
   -4.0581   -2.4948   -0.1863 H   0  0  0  0  0  0  0  0  0  0  0  0
   -6.5013   -3.2705   -0.2624 H   0  0  0  0  0  0  0  0  0  0  0  0
   -8.3313   -4.3439    1.2361 H   0  0  0  0  0  0  0  0  0  0  0  0
   -7.0473   -5.3307    1.9840 H   0  0  0  0  0  0  0  0  0  0  0  0
   -7.3842   -5.4913    0.2130 H   0  0  0  0  0  0  0  0  0  0  0  0
   -5.9061   -2.7498    2.6564 H   0  0  0  0  0  0  0  0  0  0  0  0
   -7.2637   -1.0708   -0.3203 H   0  0  0  0  0  0  0  0  0  0  0  0
   -9.8834   -2.2291    0.8383 H   0  0  0  0  0  0  0  0  0  0  0  0
   -8.8358   -2.8958   -0.4859 H   0  0  0  0  0  0  0  0  0  0  0  0
   -9.8225   -1.4453   -0.7816 H   0  0  0  0  0  0  0  0  0  0  0  0
   -9.1182    0.4812    1.5096 H   0  0  0  0  0  0  0  0  0  0  0  0
   -6.7792    1.0008   -1.2539 H   0  0  0  0  0  0  0  0  0  0  0  0
   -7.5451    0.5945   -3.6124 H   0  0  0  0  0  0  0  0  0  0  0  0
   -8.1428   -0.6413   -2.4603 H   0  0  0  0  0  0  0  0  0  0  0  0
   -9.2621    0.6469   -3.0517 H   0  0  0  0  0  0  0  0  0  0  0  0
   -8.2642    2.9965   -2.8911 H   0  0  0  0  0  0  0  0  0  0  0  0
    2.8193   -5.0663    1.9301 H   0  0  0  0  0  0  0  0  0  0  0  0
    0.8134   -5.0962   -0.3759 H   0  0  0  0  0  0  0  0  0  0  0  0
    2.7790   -7.2145    0.6861 H   0  0  0  0  0  0  0  0  0  0  0  0
    1.7584   -7.3873   -0.7965 H   0  0  0  0  0  0  0  0  0  0  0  0
    0.9783   -7.2299    0.8205 H   0  0  0  0  0  0  0  0  0  0  0  0
    3.4416   -3.0440   -0.0052 H   0  0  0  0  0  0  0  0  0  0  0  0
    5.6095   -3.7005   -1.5578 H   0  0  0  0  0  0  0  0  0  0  0  0
    5.3199   -6.1365   -1.3040 H   0  0  0  0  0  0  0  0  0  0  0  0
    6.7951   -5.6490   -0.4134 H   0  0  0  0  0  0  0  0  0  0  0  0
    5.2689   -5.9863    0.4982 H   0  0  0  0  0  0  0  0  0  0  0  0
    7.3038   -1.7223    0.9973 H   0  0  0  0  0  0  0  0  0  0  0  0
    7.8723   -3.5539   -1.3701 H   0  0  0  0  0  0  0  0  0  0  0  0
    8.6715   -4.5449    0.8173 H   0  0  0  0  0  0  0  0  0  0  0  0
    9.6489   -3.0575    1.1084 H   0  0  0  0  0  0  0  0  0  0  0  0
   10.0166   -4.1290   -0.2989 H   0  0  0  0  0  0  0  0  0  0  0  0
    7.2896   -0.3638   -1.2617 H   0  0  0  0  0  0  0  0  0  0  0  0
    8.6158    1.6227   -1.4680 H   0  0  0  0  0  0  0  0  0  0  0  0
   10.9625    1.7923   -0.8029 H   0  0  0  0  0  0  0  0  0  0  0  0
   11.0086    0.0412   -0.3780 H   0  0  0  0  0  0  0  0  0  0  0  0
   10.7428    0.5696   -2.1015 H   0  0  0  0  0  0  0  0  0  0  0  0
    8.2042    2.5105    2.1927 H   0  0  0  0  0  0  0  0  0  0  0  0
    7.7754    3.3388   -0.7252 H   0  0  0  0  0  0  0  0  0  0  0  0
    9.4067    4.7251    0.5806 H   0  0  0  0  0  0  0  0  0  0  0  0
    8.1120    5.0602    1.7981 H   0  0  0  0  0  0  0  0  0  0  0  0
    7.9278    5.6304    0.0868 H   0  0  0  0  0  0  0  0  0  0  0  0
    5.6186    4.6386   -1.1552 H   0  0  0  0  0  0  0  0  0  0  0  0
    4.4048    5.2318    1.5781 H   0  0  0  0  0  0  0  0  0  0  0  0
    3.5585    7.5848    1.8897 H   0  0  0  0  0  0  0  0  0  0  0  0
    4.3774    8.8289    0.8792 H   0  0  0  0  0  0  0  0  0  0  0  0
    2.7819    3.8820    0.4050 H   0  0  0  0  0  0  0  0  0  0  0  0
    2.1937    5.5725    0.5480 H   0  0  0  0  0  0  0  0  0  0  0  0
    2.5878    2.6246   -1.8048 H   0  0  0  0  0  0  0  0  0  0  0  0
    1.5377    3.3610   -3.0638 H   0  0  0  0  0  0  0  0  0  0  0  0
  1  2  1  0
  2  3  2  0
  2  4  1  0
  4  5  1  0
  5  6  1  0
  6  7  1  0
  7  8  1  0
  8  9  1  0
  9 10  2  0
 10 11  1  0
 11 12  2  0
 12 13  1  0
 13 14  2  0
 13 15  1  0
 15 16  1  0
 16 17  1  0
 17 18  1  0
 18 19  1  0
 19 20  1  0
 20 21  2  0
 20 22  1  0
 22 23  1  0
 22 24  1  0
 24 25  1  0
 25 26  2  0
 25 27  1  0
 27 28  1  0
 27 29  1  0
 29 30  1  0
 30 31  2  0
 30 32  1  0
 32 33  1  0
 32 34  1  0
 34 35  1  0
 35 36  2  0
 35 37  1  0
 37 38  1  0
 37 39  1  0
 39 40  1  0
 40 41  2  0
 18 42  1  0
 42 43  2  0
 42 44  1  0
 44 45  1  0
 45 46  1  0
 45 47  1  0
 47 48  2  0
 47 49  1  0
 49 50  1  0
 50 51  1  0
 50 52  1  0
 52 53  2  0
 52 54  1  0
 54 55  1  0
 55 56  1  0
 55 57  1  0
 57 58  2  0
 57 59  1  0
 59 60  1  0
 60 61  1  0
 60 62  1  0
 62 63  2  0
 62 64  1  0
 64 65  1  0
 65 66  1  0
 65 67  1  0
 67 68  2  0
 67 69  1  0
 69 70  1  0
 70 71  1  0
 71 72  1  0
 71 73  2  0
 70 74  1  0
 74 75  1  0
 75 76  1  0
 40  5  1  0
 14  9  1  0
 76 11  1  0
  1 77  1  0
  1 78  1  0
  1 79  1  0
  4 80  1  0
  5 81  1  6
  6 82  1  0
  6 83  1  0
  8 84  1  0
  8 85  1  0
 10 86  1  0
 12 87  1  0
 14 88  1  0
 15 89  1  0
 15 90  1  0
 17 91  1  0
 17 92  1  0
 18 93  1  6
 19 94  1  0
 22 95  1  6
 23 96  1  0
 23 97  1  0
 23 98  1  0
 24 99  1  0
 27100  1  6
 28101  1  0
 28102  1  0
 28103  1  0
 29104  1  0
 32105  1  6
 33106  1  0
 33107  1  0
 33108  1  0
 34109  1  0
 37110  1  1
 38111  1  0
 38112  1  0
 38113  1  0
 39114  1  0
 44115  1  0
 45116  1  6
 46117  1  0
 46118  1  0
 46119  1  0
 49120  1  0
 50121  1  6
 51122  1  0
 51123  1  0
 51124  1  0
 54125  1  0
 55126  1  6
 56127  1  0
 56128  1  0
 56129  1  0
 59130  1  0
 60131  1  6
 61132  1  0
 61133  1  0
 61134  1  0
 64135  1  0
 65136  1  6
 66137  1  0
 66138  1  0
 66139  1  0
 69140  1  0
 70141  1  1
 72142  1  0
 72143  1  0
 74144  1  0
 74145  1  0
 76146  1  0
 76147  1  0
M  END
