
     RDKit          3D

147149  0  0  0  0  0  0  0  0999 V2000
   -7.6140    6.3112    0.7344 C   0  0  0  0  0  0  0  0  0  0  0  0
   -6.5600    5.7277    1.6251 C   0  0  0  0  0  0  0  0  0  0  0  0
   -6.6422    5.9105    2.8708 O   0  0  0  0  0  0  0  0  0  0  0  0
   -5.4523    4.9771    1.1036 N   0  0  0  0  0  0  0  0  0  0  0  0
   -5.2289    4.7500   -0.3335 C   0  0  1  0  0  0  0  0  0  0  0  0
   -3.8347    4.1510   -0.5713 C   0  0  0  0  0  0  0  0  0  0  0  0
   -3.3817    4.2958   -2.3412 S   0  0  0  0  0  0  0  0  0  0  0  0
   -2.9496    2.5293   -2.6073 C   0  0  0  0  0  0  0  0  0  0  0  0
   -1.7608    2.0457   -1.8098 C   0  0  0  0  0  0  0  0  0  0  0  0
   -0.7399    2.9063   -1.3678 C   0  0  0  0  0  0  0  0  0  0  0  0
    0.3636    2.4048   -0.6574 C   0  0  0  0  0  0  0  0  0  0  0  0
    0.4682    1.0266   -0.4307 C   0  0  0  0  0  0  0  0  0  0  0  0
   -0.5369    0.1572   -0.8723 C   0  0  0  0  0  0  0  0  0  0  0  0
   -1.6376    0.6704   -1.5733 C   0  0  0  0  0  0  0  0  0  0  0  0
   -0.4190   -1.3190   -0.6265 C   0  0  0  0  0  0  0  0  0  0  0  0
   -1.8507   -1.9190    0.3233 S   0  0  0  0  0  0  0  0  0  0  0  0
   -1.2359   -3.5983    0.7378 C   0  0  0  0  0  0  0  0  0  0  0  0
   -0.6937   -4.4051   -0.4596 C   0  0  2  0  0  0  0  0  0  0  0  0
   -1.6283   -4.3600   -1.5979 N   0  0  0  0  0  0  0  0  0  0  0  0
   -2.9387   -4.9490   -1.5947 C   0  0  0  0  0  0  0  0  0  0  0  0
   -3.0555   -6.1815   -1.8453 O   0  0  0  0  0  0  0  0  0  0  0  0
   -4.1691   -4.0838   -1.4394 C   0  0  1  0  0  0  0  0  0  0  0  0
   -4.3831   -3.2008   -2.6716 C   0  0  0  0  0  0  0  0  0  0  0  0
   -5.3493   -4.9182   -1.2101 N   0  0  0  0  0  0  0  0  0  0  0  0
   -5.8415   -5.2180    0.1042 C   0  0  0  0  0  0  0  0  0  0  0  0
   -6.0001   -6.4269    0.4336 O   0  0  0  0  0  0  0  0  0  0  0  0
   -6.2402   -4.1377    1.0933 C   0  0  1  0  0  0  0  0  0  0  0  0
   -5.1154   -3.8107    2.0805 C   0  0  0  0  0  0  0  0  0  0  0  0
   -6.6997   -2.9258    0.4072 N   0  0  0  0  0  0  0  0  0  0  0  0
   -8.1009   -2.7115    0.1743 C   0  0  0  0  0  0  0  0  0  0  0  0
   -8.8141   -3.6744   -0.2257 O   0  0  0  0  0  0  0  0  0  0  0  0
   -8.7645   -1.3957    0.4760 C   0  0  1  0  0  0  0  0  0  0  0  0
   -9.2725   -1.4083    1.9186 C   0  0  0  0  0  0  0  0  0  0  0  0
   -7.8559   -0.2632    0.2692 N   0  0  0  0  0  0  0  0  0  0  0  0
   -8.2408    0.8199   -0.5903 C   0  0  0  0  0  0  0  0  0  0  0  0
   -8.6967    0.5691   -1.7440 O   0  0  0  0  0  0  0  0  0  0  0  0
   -8.1177    2.2502   -0.1461 C   0  0  1  0  0  0  0  0  0  0  0  0
   -8.7086    2.4349    1.2576 C   0  0  0  0  0  0  0  0  0  0  0  0
   -6.7140    2.6767   -0.1528 N   0  0  0  0  0  0  0  0  0  0  0  0
   -6.2904    3.8339   -0.8854 C   0  0  0  0  0  0  0  0  0  0  0  0
   -6.8361    4.1157   -1.9886 O   0  0  0  0  0  0  0  0  0  0  0  0
   -0.3968   -5.8320   -0.0233 C   0  0  0  0  0  0  0  0  0  0  0  0
   -1.3655   -6.5977    0.2433 O   0  0  0  0  0  0  0  0  0  0  0  0
    0.9357   -6.3236    0.2451 N   0  0  0  0  0  0  0  0  0  0  0  0
    2.2144   -5.6409   -0.0149 C   0  0  2  0  0  0  0  0  0  0  0  0
    3.2375   -6.7202   -0.3999 C   0  0  0  0  0  0  0  0  0  0  0  0
    2.6296   -4.8486    1.2228 C   0  0  0  0  0  0  0  0  0  0  0  0
    1.9190   -4.9468    2.2623 O   0  0  0  0  0  0  0  0  0  0  0  0
    3.7858   -3.9742    1.2837 N   0  0  0  0  0  0  0  0  0  0  0  0
    4.8536   -3.8765    0.2821 C   0  0  2  0  0  0  0  0  0  0  0  0
    5.9830   -4.8468    0.6434 C   0  0  0  0  0  0  0  0  0  0  0  0
    5.4183   -2.4723    0.2130 C   0  0  0  0  0  0  0  0  0  0  0  0
    4.9424   -1.5516    0.9346 O   0  0  0  0  0  0  0  0  0  0  0  0
    6.4723   -2.1767   -0.7102 N   0  0  0  0  0  0  0  0  0  0  0  0
    7.7654   -1.5548   -0.3833 C   0  0  2  0  0  0  0  0  0  0  0  0
    8.8758   -2.6111   -0.4241 C   0  0  0  0  0  0  0  0  0  0  0  0
    7.7772   -0.8458    0.9609 C   0  0  0  0  0  0  0  0  0  0  0  0
    7.5594   -1.4931    2.0133 O   0  0  0  0  0  0  0  0  0  0  0  0
    8.0815    0.5547    1.0494 N   0  0  0  0  0  0  0  0  0  0  0  0
    9.3420    1.1047    0.5350 C   0  0  2  0  0  0  0  0  0  0  0  0
   10.2940    1.4052    1.7010 C   0  0  0  0  0  0  0  0  0  0  0  0
    9.0667    2.3278   -0.2873 C   0  0  0  0  0  0  0  0  0  0  0  0
    9.2998    2.2945   -1.5298 O   0  0  0  0  0  0  0  0  0  0  0  0
    8.5567    3.5231    0.3145 N   0  0  0  0  0  0  0  0  0  0  0  0
    7.4576    4.2772   -0.2946 C   0  0  2  0  0  0  0  0  0  0  0  0
    7.9842    5.2383   -1.3647 C   0  0  0  0  0  0  0  0  0  0  0  0
    6.7170    5.0429    0.7728 C   0  0  0  0  0  0  0  0  0  0  0  0
    7.3017    5.9577    1.4020 O   0  0  0  0  0  0  0  0  0  0  0  0
    5.3824    4.6747    1.1523 N   0  0  0  0  0  0  0  0  0  0  0  0
    4.2032    4.9470    0.3256 C   0  0  1  0  0  0  0  0  0  0  0  0
    4.2198    6.3659   -0.1937 C   0  0  0  0  0  0  0  0  0  0  0  0
    3.9687    7.4426    0.7004 N   0  0  0  0  0  0  0  0  0  0  0  0
    4.4193    6.6157   -1.4155 O   0  0  0  0  0  0  0  0  0  0  0  0
    4.0463    3.8932   -0.7862 C   0  0  0  0  0  0  0  0  0  0  0  0
    2.3999    3.9630   -1.5747 S   0  0  0  0  0  0  0  0  0  0  0  0
    1.4336    3.3328   -0.1556 C   0  0  0  0  0  0  0  0  0  0  0  0
   -8.3520    6.8975    1.3301 H   0  0  0  0  0  0  0  0  0  0  0  0
   -7.1609    6.9837   -0.0199 H   0  0  0  0  0  0  0  0  0  0  0  0
   -8.1723    5.5024    0.2279 H   0  0  0  0  0  0  0  0  0  0  0  0
   -4.7592    4.6022    1.7957 H   0  0  0  0  0  0  0  0  0  0  0  0
   -5.2710    5.7314   -0.8540 H   0  0  0  0  0  0  0  0  0  0  0  0
   -3.0823    4.7352   -0.0001 H   0  0  0  0  0  0  0  0  0  0  0  0
   -3.8010    3.1053   -0.2045 H   0  0  0  0  0  0  0  0  0  0  0  0
   -3.8407    1.9177   -2.3637 H   0  0  0  0  0  0  0  0  0  0  0  0
   -2.7329    2.3908   -3.6888 H   0  0  0  0  0  0  0  0  0  0  0  0
   -0.7838    3.9668   -1.5679 H   0  0  0  0  0  0  0  0  0  0  0  0
    1.3388    0.6292    0.0835 H   0  0  0  0  0  0  0  0  0  0  0  0
   -2.4023   -0.0060   -1.9251 H   0  0  0  0  0  0  0  0  0  0  0  0
    0.5117   -1.5629   -0.0629 H   0  0  0  0  0  0  0  0  0  0  0  0
   -0.3767   -1.8173   -1.6124 H   0  0  0  0  0  0  0  0  0  0  0  0
   -2.0964   -4.1547    1.1823 H   0  0  0  0  0  0  0  0  0  0  0  0
   -0.4489   -3.5043    1.5158 H   0  0  0  0  0  0  0  0  0  0  0  0
    0.2448   -3.9208   -0.7672 H   0  0  0  0  0  0  0  0  0  0  0  0
   -1.3765   -3.7599   -2.4161 H   0  0  0  0  0  0  0  0  0  0  0  0
   -4.0168   -3.4131   -0.5767 H   0  0  0  0  0  0  0  0  0  0  0  0
   -5.3362   -2.6479   -2.5851 H   0  0  0  0  0  0  0  0  0  0  0  0
   -4.3969   -3.8110   -3.5978 H   0  0  0  0  0  0  0  0  0  0  0  0
   -3.5672   -2.4529   -2.7356 H   0  0  0  0  0  0  0  0  0  0  0  0
   -5.6565   -5.5553   -1.9872 H   0  0  0  0  0  0  0  0  0  0  0  0
   -7.0783   -4.5511    1.7042 H   0  0  0  0  0  0  0  0  0  0  0  0
   -5.5232   -3.2233    2.9183 H   0  0  0  0  0  0  0  0  0  0  0  0
   -4.6689   -4.7471    2.4954 H   0  0  0  0  0  0  0  0  0  0  0  0
   -4.3174   -3.2169    1.6001 H   0  0  0  0  0  0  0  0  0  0  0  0
   -6.0244   -2.1462    0.2241 H   0  0  0  0  0  0  0  0  0  0  0  0
   -9.6567   -1.2922   -0.1907 H   0  0  0  0  0  0  0  0  0  0  0  0
  -10.0955   -2.1466    2.0306 H   0  0  0  0  0  0  0  0  0  0  0  0
   -9.6760   -0.4048    2.1864 H   0  0  0  0  0  0  0  0  0  0  0  0
   -8.4589   -1.6636    2.6346 H   0  0  0  0  0  0  0  0  0  0  0  0
   -7.0899   -0.0978    0.9648 H   0  0  0  0  0  0  0  0  0  0  0  0
   -8.7170    2.8841   -0.8387 H   0  0  0  0  0  0  0  0  0  0  0  0
   -8.1477    1.8342    2.0124 H   0  0  0  0  0  0  0  0  0  0  0  0
   -8.6608    3.5027    1.5518 H   0  0  0  0  0  0  0  0  0  0  0  0
   -9.7776    2.1247    1.2677 H   0  0  0  0  0  0  0  0  0  0  0  0
   -6.0776    2.2878    0.5781 H   0  0  0  0  0  0  0  0  0  0  0  0
    0.9835   -7.2155    0.7956 H   0  0  0  0  0  0  0  0  0  0  0  0
    2.1136   -4.9602   -0.8823 H   0  0  0  0  0  0  0  0  0  0  0  0
    3.5611   -7.2962    0.4884 H   0  0  0  0  0  0  0  0  0  0  0  0
    2.7807   -7.4231   -1.1201 H   0  0  0  0  0  0  0  0  0  0  0  0
    4.1152   -6.2944   -0.9115 H   0  0  0  0  0  0  0  0  0  0  0  0
    3.9739   -3.5391    2.2182 H   0  0  0  0  0  0  0  0  0  0  0  0
    4.4550   -4.1065   -0.7209 H   0  0  0  0  0  0  0  0  0  0  0  0
    6.5433   -4.4901    1.5391 H   0  0  0  0  0  0  0  0  0  0  0  0
    5.5867   -5.8601    0.8704 H   0  0  0  0  0  0  0  0  0  0  0  0
    6.6893   -4.9451   -0.2156 H   0  0  0  0  0  0  0  0  0  0  0  0
    6.3935   -2.5935   -1.6748 H   0  0  0  0  0  0  0  0  0  0  0  0
    7.9881   -0.8133   -1.1812 H   0  0  0  0  0  0  0  0  0  0  0  0
    8.8513   -3.1519   -1.3963 H   0  0  0  0  0  0  0  0  0  0  0  0
    8.7474   -3.3534    0.3955 H   0  0  0  0  0  0  0  0  0  0  0  0
    9.8792   -2.1314   -0.3147 H   0  0  0  0  0  0  0  0  0  0  0  0
    7.5527    1.1271    1.7478 H   0  0  0  0  0  0  0  0  0  0  0  0
    9.8421    0.3448   -0.1103 H   0  0  0  0  0  0  0  0  0  0  0  0
   10.5317    0.4652    2.2488 H   0  0  0  0  0  0  0  0  0  0  0  0
    9.8361    2.1194    2.4178 H   0  0  0  0  0  0  0  0  0  0  0  0
   11.2454    1.8401    1.3160 H   0  0  0  0  0  0  0  0  0  0  0  0
    9.1149    3.9647    1.0875 H   0  0  0  0  0  0  0  0  0  0  0  0
    6.7783    3.5481   -0.7763 H   0  0  0  0  0  0  0  0  0  0  0  0
    7.1277    5.7954   -1.8156 H   0  0  0  0  0  0  0  0  0  0  0  0
    8.7002    5.9640   -0.9277 H   0  0  0  0  0  0  0  0  0  0  0  0
    8.5012    4.6864   -2.1746 H   0  0  0  0  0  0  0  0  0  0  0  0
    5.2208    4.5034    2.1702 H   0  0  0  0  0  0  0  0  0  0  0  0
    3.3115    4.8668    0.9895 H   0  0  0  0  0  0  0  0  0  0  0  0
    3.7508    7.2621    1.7034 H   0  0  0  0  0  0  0  0  0  0  0  0
    4.0203    8.4310    0.3689 H   0  0  0  0  0  0  0  0  0  0  0  0
    4.2272    2.8786   -0.3771 H   0  0  0  0  0  0  0  0  0  0  0  0
    4.7928    4.0686   -1.5858 H   0  0  0  0  0  0  0  0  0  0  0  0
    0.9610    4.1910    0.3761 H   0  0  0  0  0  0  0  0  0  0  0  0
    2.0861    2.8121    0.5757 H   0  0  0  0  0  0  0  0  0  0  0  0
  1  2  1  0
  2  3  2  0
  2  4  1  0
  4  5  1  0
  5  6  1  0
  6  7  1  0
  7  8  1  0
  8  9  1  0
  9 10  2  0
 10 11  1  0
 11 12  2  0
 12 13  1  0
 13 14  2  0
 13 15  1  0
 15 16  1  0
 16 17  1  0
 17 18  1  0
 18 19  1  0
 19 20  1  0
 20 21  2  0
 20 22  1  0
 22 23  1  0
 22 24  1  0
 24 25  1  0
 25 26  2  0
 25 27  1  0
 27 28  1  0
 27 29  1  0
 29 30  1  0
 30 31  2  0
 30 32  1  0
 32 33  1  0
 32 34  1  0
 34 35  1  0
 35 36  2  0
 35 37  1  0
 37 38  1  0
 37 39  1  0
 39 40  1  0
 40 41  2  0
 18 42  1  0
 42 43  2  0
 42 44  1  0
 44 45  1  0
 45 46  1  0
 45 47  1  0
 47 48  2  0
 47 49  1  0
 49 50  1  0
 50 51  1  0
 50 52  1  0
 52 53  2  0
 52 54  1  0
 54 55  1  0
 55 56  1  0
 55 57  1  0
 57 58  2  0
 57 59  1  0
 59 60  1  0
 60 61  1  0
 60 62  1  0
 62 63  2  0
 62 64  1  0
 64 65  1  0
 65 66  1  0
 65 67  1  0
 67 68  2  0
 67 69  1  0
 69 70  1  0
 70 71  1  0
 71 72  1  0
 71 73  2  0
 70 74  1  0
 74 75  1  0
 75 76  1  0
 40  5  1  0
 14  9  1  0
 76 11  1  0
  1 77  1  0
  1 78  1  0
  1 79  1  0
  4 80  1  0
  5 81  1  6
  6 82  1  0
  6 83  1  0
  8 84  1  0
  8 85  1  0
 10 86  1  0
 12 87  1  0
 14 88  1  0
 15 89  1  0
 15 90  1  0
 17 91  1  0
 17 92  1  0
 18 93  1  6
 19 94  1  0
 22 95  1  1
 23 96  1  0
 23 97  1  0
 23 98  1  0
 24 99  1  0
 27100  1  1
 28101  1  0
 28102  1  0
 28103  1  0
 29104  1  0
 32105  1  6
 33106  1  0
 33107  1  0
 33108  1  0
 34109  1  0
 37110  1  6
 38111  1  0
 38112  1  0
 38113  1  0
 39114  1  0
 44115  1  0
 45116  1  6
 46117  1  0
 46118  1  0
 46119  1  0
 49120  1  0
 50121  1  6
 51122  1  0
 51123  1  0
 51124  1  0
 54125  1  0
 55126  1  6
 56127  1  0
 56128  1  0
 56129  1  0
 59130  1  0
 60131  1  6
 61132  1  0
 61133  1  0
 61134  1  0
 64135  1  0
 65136  1  6
 66137  1  0
 66138  1  0
 66139  1  0
 69140  1  0
 70141  1  1
 72142  1  0
 72143  1  0
 74144  1  0
 74145  1  0
 76146  1  0
 76147  1  0
M  END
