
     RDKit          3D

137139  0  0  0  0  0  0  0  0999 V2000
    7.5427    6.4337    0.0603 C   0  0  0  0  0  0  0  0  0  0  0  0
    6.9291    5.7977    1.2723 C   0  0  0  0  0  0  0  0  0  0  0  0
    7.3066    6.1827    2.4111 O   0  0  0  0  0  0  0  0  0  0  0  0
    5.9497    4.7410    1.1911 N   0  0  0  0  0  0  0  0  0  0  0  0
    5.2809    4.2456   -0.0210 C   0  0  1  0  0  0  0  0  0  0  0  0
    4.3247    5.3162   -0.5898 C   0  0  0  0  0  0  0  0  0  0  0  0
    2.9722    4.5427   -1.5536 S   0  0  0  0  0  0  0  0  0  0  0  0
    1.8551    4.2937   -0.1284 C   0  0  0  0  0  0  0  0  0  0  0  0
    0.8448    3.2382   -0.4656 C   0  0  0  0  0  0  0  0  0  0  0  0
   -0.3700    3.5909   -1.0681 C   0  0  0  0  0  0  0  0  0  0  0  0
   -1.3369    2.6097   -1.3475 C   0  0  0  0  0  0  0  0  0  0  0  0
   -1.0321    1.2616   -1.1023 C   0  0  0  0  0  0  0  0  0  0  0  0
    0.1902    0.8953   -0.5113 C   0  0  0  0  0  0  0  0  0  0  0  0
    1.1231    1.8917   -0.1952 C   0  0  0  0  0  0  0  0  0  0  0  0
    0.5279   -0.5576   -0.2986 C   0  0  0  0  0  0  0  0  0  0  0  0
   -0.8273   -1.3903    0.5954 S   0  0  0  0  0  0  0  0  0  0  0  0
    0.0048   -2.9902    0.9382 C   0  0  0  0  0  0  0  0  0  0  0  0
   -0.1613   -4.0593   -0.1653 C   0  0  2  0  0  0  0  0  0  0  0  0
    0.5026   -3.6274   -1.3993 N   0  0  0  0  0  0  0  0  0  0  0  0
    1.8055   -4.0588   -1.8360 C   0  0  0  0  0  0  0  0  0  0  0  0
    2.1499   -3.8301   -3.0293 O   0  0  0  0  0  0  0  0  0  0  0  0
    2.7467   -4.8353   -0.9446 C   0  0  1  0  0  0  0  0  0  0  0  0
    2.5735   -6.3375   -1.2193 C   0  0  0  0  0  0  0  0  0  0  0  0
    4.1379   -4.4008   -1.1604 N   0  0  0  0  0  0  0  0  0  0  0  0
    5.2406   -4.9627   -0.4308 C   0  0  0  0  0  0  0  0  0  0  0  0
    5.4079   -6.2118   -0.4013 O   0  0  0  0  0  0  0  0  0  0  0  0
    6.2260   -4.0565    0.2647 C   0  0  1  0  0  0  0  0  0  0  0  0
    6.5444   -4.6055    1.6635 C   0  0  0  0  0  0  0  0  0  0  0  0
    7.4543   -3.9296   -0.5311 N   0  0  0  0  0  0  0  0  0  0  0  0
    8.3446   -2.7998   -0.4803 C   0  0  0  0  0  0  0  0  0  0  0  0
    9.2390   -2.6957   -1.3628 O   0  0  0  0  0  0  0  0  0  0  0  0
    8.3030   -1.7710    0.6273 C   0  0  1  0  0  0  0  0  0  0  0  0
    9.5274   -1.9201    1.5372 C   0  0  0  0  0  0  0  0  0  0  0  0
    8.2699   -0.4211    0.0632 N   0  0  0  0  0  0  0  0  0  0  0  0
    7.0880    0.3849    0.1458 C   0  0  0  0  0  0  0  0  0  0  0  0
    5.9709   -0.1187   -0.1722 O   0  0  0  0  0  0  0  0  0  0  0  0
    7.1599    1.8415    0.5181 C   0  0  1  0  0  0  0  0  0  0  0  0
    8.3685    2.1547    1.4046 C   0  0  0  0  0  0  0  0  0  0  0  0
    7.2100    2.6603   -0.6961 N   0  0  0  0  0  0  0  0  0  0  0  0
    6.2827    3.7095   -1.0277 C   0  0  0  0  0  0  0  0  0  0  0  0
    6.3173    4.1956   -2.1921 O   0  0  0  0  0  0  0  0  0  0  0  0
   -1.5797   -4.4862   -0.4876 C   0  0  0  0  0  0  0  0  0  0  0  0
   -1.7354   -5.3848   -1.3601 O   0  0  0  0  0  0  0  0  0  0  0  0
   -2.7391   -3.9142    0.1413 N   0  0  0  0  0  0  0  0  0  0  0  0
   -4.0454   -3.9428   -0.5288 C   0  0  2  0  0  0  0  0  0  0  0  0
   -4.0586   -2.9296   -1.6790 C   0  0  0  0  0  0  0  0  0  0  0  0
   -5.1624   -3.7153    0.4660 C   0  0  0  0  0  0  0  0  0  0  0  0
   -5.2713   -4.4873    1.4521 O   0  0  0  0  0  0  0  0  0  0  0  0
   -6.1675   -2.7149    0.2360 N   0  0  0  0  0  0  0  0  0  0  0  0
   -7.6084   -2.9483    0.4012 C   0  0  2  0  0  0  0  0  0  0  0  0
   -8.0021   -4.4059    0.1033 C   0  0  0  0  0  0  0  0  0  0  0  0
   -8.3770   -2.0469   -0.5310 C   0  0  0  0  0  0  0  0  0  0  0  0
   -8.1992   -2.1489   -1.7750 O   0  0  0  0  0  0  0  0  0  0  0  0
   -9.3563   -1.1281   -0.0417 N   0  0  0  0  0  0  0  0  0  0  0  0
   -8.9873    0.0558    0.7399 C   0  0  2  0  0  0  0  0  0  0  0  0
   -9.1581   -0.2129    2.2390 C   0  0  0  0  0  0  0  0  0  0  0  0
   -9.8662    1.2261    0.3390 C   0  0  0  0  0  0  0  0  0  0  0  0
  -11.1097    1.1193    0.5216 O   0  0  0  0  0  0  0  0  0  0  0  0
   -9.3706    2.4613   -0.2158 N   0  0  0  0  0  0  0  0  0  0  0  0
   -8.0372    2.7608   -0.7656 C   0  0  2  0  0  0  0  0  0  0  0  0
   -7.6049    1.7633   -1.8508 C   0  0  0  0  0  0  0  0  0  0  0  0
   -6.9866    2.9278    0.3036 C   0  0  0  0  0  0  0  0  0  0  0  0
   -7.1312    2.3965    1.4359 O   0  0  0  0  0  0  0  0  0  0  0  0
   -5.8253    3.7268    0.0331 N   0  0  0  0  0  0  0  0  0  0  0  0
   -4.5183    3.4692    0.6522 C   0  0  2  0  0  0  0  0  0  0  0  0
   -4.6082    3.5451    2.1552 C   0  0  0  0  0  0  0  0  0  0  0  0
   -5.1850    4.6849    2.7992 N   0  0  0  0  0  0  0  0  0  0  0  0
   -4.1545    2.6036    2.8551 O   0  0  0  0  0  0  0  0  0  0  0  0
   -3.4571    4.4762    0.1677 C   0  0  0  0  0  0  0  0  0  0  0  0
   -3.3102    4.6082   -1.6596 S   0  0  0  0  0  0  0  0  0  0  0  0
   -2.6416    2.9435   -2.0320 C   0  0  0  0  0  0  0  0  0  0  0  0
    6.7650    6.9396   -0.5407 H   0  0  0  0  0  0  0  0  0  0  0  0
    8.2863    7.1987    0.3669 H   0  0  0  0  0  0  0  0  0  0  0  0
    8.0711    5.6708   -0.5496 H   0  0  0  0  0  0  0  0  0  0  0  0
    5.6509    4.3128    2.0964 H   0  0  0  0  0  0  0  0  0  0  0  0
    4.6481    3.3832    0.2790 H   0  0  0  0  0  0  0  0  0  0  0  0
    3.8905    5.9215    0.2347 H   0  0  0  0  0  0  0  0  0  0  0  0
    4.8574    6.0231   -1.2604 H   0  0  0  0  0  0  0  0  0  0  0  0
    2.4260    3.9830    0.7729 H   0  0  0  0  0  0  0  0  0  0  0  0
    1.3528    5.2540    0.1162 H   0  0  0  0  0  0  0  0  0  0  0  0
   -0.5608    4.6290   -1.3043 H   0  0  0  0  0  0  0  0  0  0  0  0
   -1.7446    0.4925   -1.3829 H   0  0  0  0  0  0  0  0  0  0  0  0
    2.0766    1.6176    0.2439 H   0  0  0  0  0  0  0  0  0  0  0  0
    1.4601   -0.6537    0.2925 H   0  0  0  0  0  0  0  0  0  0  0  0
    0.6874   -1.0291   -1.2868 H   0  0  0  0  0  0  0  0  0  0  0  0
   -0.4116   -3.3925    1.8880 H   0  0  0  0  0  0  0  0  0  0  0  0
    1.0847   -2.8224    1.1229 H   0  0  0  0  0  0  0  0  0  0  0  0
    0.3259   -4.9821    0.2163 H   0  0  0  0  0  0  0  0  0  0  0  0
   -0.0517   -3.0476   -2.0671 H   0  0  0  0  0  0  0  0  0  0  0  0
    2.5064   -4.6323    0.1218 H   0  0  0  0  0  0  0  0  0  0  0  0
    1.4987   -6.6068   -1.2531 H   0  0  0  0  0  0  0  0  0  0  0  0
    3.0320   -6.9335   -0.4055 H   0  0  0  0  0  0  0  0  0  0  0  0
    3.0450   -6.6083   -2.1893 H   0  0  0  0  0  0  0  0  0  0  0  0
    4.3114   -3.4843   -1.6357 H   0  0  0  0  0  0  0  0  0  0  0  0
    5.7424   -3.0643    0.3687 H   0  0  0  0  0  0  0  0  0  0  0  0
    6.9446   -5.6387    1.5993 H   0  0  0  0  0  0  0  0  0  0  0  0
    5.6186   -4.6151    2.2837 H   0  0  0  0  0  0  0  0  0  0  0  0
    7.2989   -3.9850    2.1838 H   0  0  0  0  0  0  0  0  0  0  0  0
    7.7046   -4.7092   -1.1852 H   0  0  0  0  0  0  0  0  0  0  0  0
    7.4095   -1.9117    1.2626 H   0  0  0  0  0  0  0  0  0  0  0  0
   10.4601   -1.7292    0.9673 H   0  0  0  0  0  0  0  0  0  0  0  0
    9.4667   -1.1909    2.3722 H   0  0  0  0  0  0  0  0  0  0  0  0
    9.5666   -2.9447    1.9639 H   0  0  0  0  0  0  0  0  0  0  0  0
    9.1514   -0.0028   -0.3164 H   0  0  0  0  0  0  0  0  0  0  0  0
    6.2524    2.0636    1.1153 H   0  0  0  0  0  0  0  0  0  0  0  0
    8.3971    1.4672    2.2767 H   0  0  0  0  0  0  0  0  0  0  0  0
    8.2950    3.1960    1.7844 H   0  0  0  0  0  0  0  0  0  0  0  0
    9.3160    2.0618    0.8346 H   0  0  0  0  0  0  0  0  0  0  0  0
    7.9593    2.4425   -1.3929 H   0  0  0  0  0  0  0  0  0  0  0  0
   -2.6493   -3.3622    1.0190 H   0  0  0  0  0  0  0  0  0  0  0  0
   -4.2122   -4.9558   -0.9567 H   0  0  0  0  0  0  0  0  0  0  0  0
   -3.2804   -3.1957   -2.4256 H   0  0  0  0  0  0  0  0  0  0  0  0
   -5.0455   -2.9373   -2.1898 H   0  0  0  0  0  0  0  0  0  0  0  0
   -3.8442   -1.9091   -1.2968 H   0  0  0  0  0  0  0  0  0  0  0  0
   -5.8468   -1.7335    0.0518 H   0  0  0  0  0  0  0  0  0  0  0  0
   -7.8891   -2.7342    1.4520 H   0  0  0  0  0  0  0  0  0  0  0  0
   -7.5833   -4.7333   -0.8699 H   0  0  0  0  0  0  0  0  0  0  0  0
   -7.6389   -5.0821    0.9048 H   0  0  0  0  0  0  0  0  0  0  0  0
   -9.1082   -4.5092    0.0717 H   0  0  0  0  0  0  0  0  0  0  0  0
  -10.2680   -1.1214   -0.5546 H   0  0  0  0  0  0  0  0  0  0  0  0
   -7.9217    0.2855    0.5661 H   0  0  0  0  0  0  0  0  0  0  0  0
   -9.0597    0.7374    2.8132 H   0  0  0  0  0  0  0  0  0  0  0  0
  -10.1595   -0.6495    2.4506 H   0  0  0  0  0  0  0  0  0  0  0  0
   -8.3753   -0.9026    2.6105 H   0  0  0  0  0  0  0  0  0  0  0  0
  -10.0891    3.2104   -0.3611 H   0  0  0  0  0  0  0  0  0  0  0  0
   -8.1204    3.7473   -1.2762 H   0  0  0  0  0  0  0  0  0  0  0  0
   -7.2357    0.8079   -1.4308 H   0  0  0  0  0  0  0  0  0  0  0  0
   -8.4563    1.5470   -2.5361 H   0  0  0  0  0  0  0  0  0  0  0  0
   -6.7799    2.2070   -2.4515 H   0  0  0  0  0  0  0  0  0  0  0  0
   -5.9006    4.4318   -0.7335 H   0  0  0  0  0  0  0  0  0  0  0  0
   -4.1904    2.4447    0.3710 H   0  0  0  0  0  0  0  0  0  0  0  0
   -5.1713    4.7656    3.8375 H   0  0  0  0  0  0  0  0  0  0  0  0
   -5.6151    5.4533    2.2375 H   0  0  0  0  0  0  0  0  0  0  0  0
   -3.7273    5.4925    0.5313 H   0  0  0  0  0  0  0  0  0  0  0  0
   -2.4673    4.2315    0.6095 H   0  0  0  0  0  0  0  0  0  0  0  0
   -2.4750    2.8903   -3.1280 H   0  0  0  0  0  0  0  0  0  0  0  0
   -3.4212    2.1908   -1.7871 H   0  0  0  0  0  0  0  0  0  0  0  0
  1  2  1  0
  2  3  2  0
  2  4  1  0
  4  5  1  0
  5  6  1  0
  6  7  1  0
  7  8  1  0
  8  9  1  0
  9 10  2  0
 10 11  1  0
 11 12  2  0
 12 13  1  0
 13 14  2  0
 13 15  1  0
 15 16  1  0
 16 17  1  0
 17 18  1  0
 18 19  1  0
 19 20  1  0
 20 21  2  0
 20 22  1  0
 22 23  1  0
 22 24  1  0
 24 25  1  0
 25 26  2  0
 25 27  1  0
 27 28  1  0
 27 29  1  0
 29 30  1  0
 30 31  2  0
 30 32  1  0
 32 33  1  0
 32 34  1  0
 34 35  1  0
 35 36  2  0
 35 37  1  0
 37 38  1  0
 37 39  1  0
 39 40  1  0
 40 41  2  0
 18 42  1  0
 42 43  2  0
 42 44  1  0
 44 45  1  0
 45 46  1  0
 45 47  1  0
 47 48  2  0
 47 49  1  0
 49 50  1  0
 50 51  1  0
 50 52  1  0
 52 53  2  0
 52 54  1  0
 54 55  1  0
 55 56  1  0
 55 57  1  0
 57 58  2  0
 57 59  1  0
 59 60  1  0
 60 61  1  0
 60 62  1  0
 62 63  2  0
 62 64  1  0
 64 65  1  0
 65 66  1  0
 66 67  1  0
 66 68  2  0
 65 69  1  0
 69 70  1  0
 70 71  1  0
 40  5  1  0
 14  9  1  0
 71 11  1  0
  1 72  1  0
  1 73  1  0
  1 74  1  0
  4 75  1  0
  5 76  1  1
  6 77  1  0
  6 78  1  0
  8 79  1  0
  8 80  1  0
 10 81  1  0
 12 82  1  0
 14 83  1  0
 15 84  1  0
 15 85  1  0
 17 86  1  0
 17 87  1  0
 18 88  1  1
 19 89  1  0
 22 90  1  1
 23 91  1  0
 23 92  1  0
 23 93  1  0
 24 94  1  0
 27 95  1  1
 28 96  1  0
 28 97  1  0
 28 98  1  0
 29 99  1  0
 32100  1  1
 33101  1  0
 33102  1  0
 33103  1  0
 34104  1  0
 37105  1  1
 38106  1  0
 38107  1  0
 38108  1  0
 39109  1  0
 44110  1  0
 45111  1  6
 46112  1  0
 46113  1  0
 46114  1  0
 49115  1  0
 50116  1  1
 51117  1  0
 51118  1  0
 51119  1  0
 54120  1  0
 55121  1  1
 56122  1  0
 56123  1  0
 56124  1  0
 59125  1  0
 60126  1  6
 61127  1  0
 61128  1  0
 61129  1  0
 64130  1  0
 65131  1  1
 67132  1  0
 67133  1  0
 69134  1  0
 69135  1  0
 71136  1  0
 71137  1  0
M  END
