
     RDKit          3D

187189  0  0  0  0  0  0  0  0999 V2000
   10.4128    5.1063    1.4451 C   0  0  0  0  0  0  0  0  0  0  0  0
    9.3988    4.4841    0.5393 C   0  0  0  0  0  0  0  0  0  0  0  0
    8.9587    5.1476   -0.4374 O   0  0  0  0  0  0  0  0  0  0  0  0
    8.9484    3.1389    0.7707 N   0  0  0  0  0  0  0  0  0  0  0  0
    7.9292    2.4581   -0.0413 C   0  0  1  0  0  0  0  0  0  0  0  0
    6.5554    3.1354    0.1353 C   0  0  0  0  0  0  0  0  0  0  0  0
    6.1014    3.2427    1.9030 S   0  0  0  0  0  0  0  0  0  0  0  0
    4.7555    4.4600    1.6776 C   0  0  0  0  0  0  0  0  0  0  0  0
    3.5065    3.8079    1.1448 C   0  0  0  0  0  0  0  0  0  0  0  0
    2.9170    4.2485   -0.0521 C   0  0  0  0  0  0  0  0  0  0  0  0
    1.7137    3.6892   -0.5030 C   0  0  0  0  0  0  0  0  0  0  0  0
    1.1256    2.6449    0.2240 C   0  0  0  0  0  0  0  0  0  0  0  0
    1.7237    2.1698    1.3994 C   0  0  0  0  0  0  0  0  0  0  0  0
    2.8929    2.7820    1.8741 C   0  0  0  0  0  0  0  0  0  0  0  0
    1.1383    0.9898    2.1218 C   0  0  0  0  0  0  0  0  0  0  0  0
    2.3192   -0.4057    2.1441 S   0  0  0  0  0  0  0  0  0  0  0  0
    2.1592   -0.7962    0.3641 C   0  0  0  0  0  0  0  0  0  0  0  0
    3.1831   -1.8655   -0.0404 C   0  0  2  0  0  0  0  0  0  0  0  0
    4.5454   -1.3109   -0.0159 N   0  0  0  0  0  0  0  0  0  0  0  0
    5.7560   -2.0897   -0.0946 C   0  0  0  0  0  0  0  0  0  0  0  0
    6.8585   -1.4999    0.0865 O   0  0  0  0  0  0  0  0  0  0  0  0
    5.7636   -3.5646   -0.4532 C   0  0  1  0  0  0  0  0  0  0  0  0
    6.5417   -3.7988   -1.7494 C   0  0  0  0  0  0  0  0  0  0  0  0
    6.2926   -4.4247    0.6195 N   0  0  0  0  0  0  0  0  0  0  0  0
    7.4860   -4.1444    1.3621 C   0  0  0  0  0  0  0  0  0  0  0  0
    7.5215   -3.1447    2.1334 O   0  0  0  0  0  0  0  0  0  0  0  0
    8.6731   -5.0846    1.3503 C   0  0  1  0  0  0  0  0  0  0  0  0
    8.6058   -6.1632    0.2541 C   0  0  0  0  0  0  0  0  0  0  0  0
    9.9128   -4.3119    1.2460 N   0  0  0  0  0  0  0  0  0  0  0  0
   10.2466   -3.5338    0.0886 C   0  0  0  0  0  0  0  0  0  0  0  0
   10.5119   -4.1108   -1.0021 O   0  0  0  0  0  0  0  0  0  0  0  0
   10.3635   -2.0330    0.1997 C   0  0  1  0  0  0  0  0  0  0  0  0
   11.7825   -1.6548    0.6517 C   0  0  0  0  0  0  0  0  0  0  0  0
    9.9912   -1.4129   -1.0842 N   0  0  0  0  0  0  0  0  0  0  0  0
   10.6503   -0.2929   -1.6811 C   0  0  0  0  0  0  0  0  0  0  0  0
   11.2203   -0.4406   -2.7933 O   0  0  0  0  0  0  0  0  0  0  0  0
   10.5344    1.0787   -1.0674 C   0  0  1  0  0  0  0  0  0  0  0  0
   11.9057    1.7621   -0.9726 C   0  0  0  0  0  0  0  0  0  0  0  0
    9.6414    1.8951   -1.8954 N   0  0  0  0  0  0  0  0  0  0  0  0
    8.3577    2.4005   -1.4958 C   0  0  0  0  0  0  0  0  0  0  0  0
    7.5846    2.8406   -2.3932 O   0  0  0  0  0  0  0  0  0  0  0  0
    2.8359   -2.3766   -1.4211 C   0  0  0  0  0  0  0  0  0  0  0  0
    3.3766   -1.8420   -2.4273 O   0  0  0  0  0  0  0  0  0  0  0  0
    1.8790   -3.4317   -1.6276 N   0  0  0  0  0  0  0  0  0  0  0  0
    1.1832   -4.1485   -0.5510 C   0  0  2  0  0  0  0  0  0  0  0  0
    1.9986   -5.3771   -0.1230 C   0  0  0  0  0  0  0  0  0  0  0  0
   -0.2105   -4.5042   -0.9900 C   0  0  0  0  0  0  0  0  0  0  0  0
   -1.0239   -3.5772   -1.2609 O   0  0  0  0  0  0  0  0  0  0  0  0
   -0.6386   -5.8634   -1.0870 N   0  0  0  0  0  0  0  0  0  0  0  0
   -1.7048   -6.3807   -0.2282 C   0  0  2  0  0  0  0  0  0  0  0  0
   -1.3042   -7.7605    0.3054 C   0  0  0  0  0  0  0  0  0  0  0  0
   -3.0094   -6.4703   -0.9818 C   0  0  0  0  0  0  0  0  0  0  0  0
   -3.0088   -6.3473   -2.2403 O   0  0  0  0  0  0  0  0  0  0  0  0
   -4.2596   -6.7552   -0.3244 N   0  0  0  0  0  0  0  0  0  0  0  0
   -4.5455   -6.5215    1.0959 C   0  0  2  0  0  0  0  0  0  0  0  0
   -5.0962   -7.8097    1.7170 C   0  0  0  0  0  0  0  0  0  0  0  0
   -5.5394   -5.3980    1.2675 C   0  0  0  0  0  0  0  0  0  0  0  0
   -5.8621   -5.0294    2.4315 O   0  0  0  0  0  0  0  0  0  0  0  0
   -6.1531   -4.7761    0.1297 N   0  0  0  0  0  0  0  0  0  0  0  0
   -7.6114   -4.6145    0.0219 C   0  0  2  0  0  0  0  0  0  0  0  0
   -8.3194   -5.9182    0.4302 C   0  0  0  0  0  0  0  0  0  0  0  0
   -8.0105   -4.2792   -1.4011 C   0  0  0  0  0  0  0  0  0  0  0  0
   -7.3563   -4.7904   -2.3481 O   0  0  0  0  0  0  0  0  0  0  0  0
   -9.2050   -3.5413   -1.7180 N   0  0  0  0  0  0  0  0  0  0  0  0
   -9.8893   -2.5759   -0.8344 C   0  0  2  0  0  0  0  0  0  0  0  0
  -10.7747   -3.3216    0.1744 C   0  0  0  0  0  0  0  0  0  0  0  0
  -10.7572   -1.6130   -1.6320 C   0  0  0  0  0  0  0  0  0  0  0  0
  -10.9396   -1.7913   -2.8699 O   0  0  0  0  0  0  0  0  0  0  0  0
  -11.4779   -0.5594   -0.9825 N   0  0  0  0  0  0  0  0  0  0  0  0
  -10.8226    0.4729   -0.1706 C   0  0  2  0  0  0  0  0  0  0  0  0
  -11.4054    0.4418    1.2447 C   0  0  0  0  0  0  0  0  0  0  0  0
  -11.0313    1.8379   -0.7992 C   0  0  0  0  0  0  0  0  0  0  0  0
  -11.8410    1.9596   -1.7550 O   0  0  0  0  0  0  0  0  0  0  0  0
  -10.4064    3.0290   -0.2861 N   0  0  0  0  0  0  0  0  0  0  0  0
   -9.1530    3.0665    0.4732 C   0  0  2  0  0  0  0  0  0  0  0  0
   -9.3115    3.9929    1.6795 C   0  0  0  0  0  0  0  0  0  0  0  0
   -8.0296    3.5661   -0.3990 C   0  0  0  0  0  0  0  0  0  0  0  0
   -6.9190    2.9652   -0.3920 O   0  0  0  0  0  0  0  0  0  0  0  0
   -8.1775    4.7662   -1.1726 N   0  0  0  0  0  0  0  0  0  0  0  0
   -7.3839    5.9570   -0.8512 C   0  0  2  0  0  0  0  0  0  0  0  0
   -8.0161    7.2081   -1.4745 C   0  0  0  0  0  0  0  0  0  0  0  0
   -5.9618    5.7811   -1.3424 C   0  0  0  0  0  0  0  0  0  0  0  0
   -5.7611    5.7042   -2.5884 O   0  0  0  0  0  0  0  0  0  0  0  0
   -4.8366    5.6503   -0.4558 N   0  0  0  0  0  0  0  0  0  0  0  0
   -4.8583    5.9762    0.9772 C   0  0  2  0  0  0  0  0  0  0  0  0
   -4.9560    7.4916    1.1976 C   0  0  0  0  0  0  0  0  0  0  0  0
   -3.6580    5.3875    1.6861 C   0  0  0  0  0  0  0  0  0  0  0  0
   -3.7926    4.2863    2.2880 O   0  0  0  0  0  0  0  0  0  0  0  0
   -2.3951    6.0660    1.7583 N   0  0  0  0  0  0  0  0  0  0  0  0
   -1.6674    6.5263    0.5704 C   0  0  1  0  0  0  0  0  0  0  0  0
   -0.8190    7.7148    0.9442 C   0  0  0  0  0  0  0  0  0  0  0  0
   -1.1135    9.0100    0.4256 N   0  0  0  0  0  0  0  0  0  0  0  0
    0.1704    7.5647    1.7136 O   0  0  0  0  0  0  0  0  0  0  0  0
   -0.8051    5.3740    0.0295 C   0  0  0  0  0  0  0  0  0  0  0  0
    0.2720    5.8992   -1.3572 S   0  0  0  0  0  0  0  0  0  0  0  0
    1.0056    4.2554   -1.7092 C   0  0  0  0  0  0  0  0  0  0  0  0
   11.3023    5.4097    0.8585 H   0  0  0  0  0  0  0  0  0  0  0  0
   10.7313    4.3939    2.2378 H   0  0  0  0  0  0  0  0  0  0  0  0
    9.9713    6.0000    1.9334 H   0  0  0  0  0  0  0  0  0  0  0  0
    9.3360    2.6202    1.5910 H   0  0  0  0  0  0  0  0  0  0  0  0
    7.8290    1.4090    0.3223 H   0  0  0  0  0  0  0  0  0  0  0  0
    5.7742    2.5497   -0.3978 H   0  0  0  0  0  0  0  0  0  0  0  0
    6.5867    4.1555   -0.3081 H   0  0  0  0  0  0  0  0  0  0  0  0
    5.0945    5.2886    1.0246 H   0  0  0  0  0  0  0  0  0  0  0  0
    4.5296    4.9080    2.6637 H   0  0  0  0  0  0  0  0  0  0  0  0
    3.3610    5.0639   -0.6079 H   0  0  0  0  0  0  0  0  0  0  0  0
    0.2019    2.2004   -0.1210 H   0  0  0  0  0  0  0  0  0  0  0  0
    3.3231    2.4518    2.8090 H   0  0  0  0  0  0  0  0  0  0  0  0
    0.9146    1.2765    3.1715 H   0  0  0  0  0  0  0  0  0  0  0  0
    0.1780    0.6649    1.6646 H   0  0  0  0  0  0  0  0  0  0  0  0
    2.3229    0.1120   -0.2524 H   0  0  0  0  0  0  0  0  0  0  0  0
    1.1252   -1.1524    0.1765 H   0  0  0  0  0  0  0  0  0  0  0  0
    3.1477   -2.6954    0.6984 H   0  0  0  0  0  0  0  0  0  0  0  0
    4.6634   -0.2793    0.1205 H   0  0  0  0  0  0  0  0  0  0  0  0
    4.7359   -3.9063   -0.6537 H   0  0  0  0  0  0  0  0  0  0  0  0
    7.6197   -3.5675   -1.6044 H   0  0  0  0  0  0  0  0  0  0  0  0
    6.4436   -4.8611   -2.0657 H   0  0  0  0  0  0  0  0  0  0  0  0
    6.1363   -3.1564   -2.5624 H   0  0  0  0  0  0  0  0  0  0  0  0
    5.9613   -5.4162    0.6104 H   0  0  0  0  0  0  0  0  0  0  0  0
    8.6756   -5.6194    2.3287 H   0  0  0  0  0  0  0  0  0  0  0  0
    8.4669   -5.7054   -0.7473 H   0  0  0  0  0  0  0  0  0  0  0  0
    7.7714   -6.8676    0.4523 H   0  0  0  0  0  0  0  0  0  0  0  0
    9.5515   -6.7470    0.2451 H   0  0  0  0  0  0  0  0  0  0  0  0
   10.5197   -4.2220    2.0956 H   0  0  0  0  0  0  0  0  0  0  0  0
    9.6404   -1.6936    0.9737 H   0  0  0  0  0  0  0  0  0  0  0  0
   11.8152   -0.5817    0.9397 H   0  0  0  0  0  0  0  0  0  0  0  0
   12.5199   -1.8452   -0.1569 H   0  0  0  0  0  0  0  0  0  0  0  0
   12.0731   -2.2407    1.5469 H   0  0  0  0  0  0  0  0  0  0  0  0
    9.1800   -1.8054   -1.6121 H   0  0  0  0  0  0  0  0  0  0  0  0
   10.1394    0.9651   -0.0374 H   0  0  0  0  0  0  0  0  0  0  0  0
   12.6775    1.0598   -0.5906 H   0  0  0  0  0  0  0  0  0  0  0  0
   12.2259    2.1334   -1.9680 H   0  0  0  0  0  0  0  0  0  0  0  0
   11.8455    2.6287   -0.2808 H   0  0  0  0  0  0  0  0  0  0  0  0
    9.9211    2.0496   -2.8953 H   0  0  0  0  0  0  0  0  0  0  0  0
    1.7625   -3.7871   -2.6032 H   0  0  0  0  0  0  0  0  0  0  0  0
    1.0645   -3.4958    0.3374 H   0  0  0  0  0  0  0  0  0  0  0  0
    1.4465   -5.9620    0.6433 H   0  0  0  0  0  0  0  0  0  0  0  0
    2.9617   -5.0640    0.3327 H   0  0  0  0  0  0  0  0  0  0  0  0
    2.2125   -6.0273   -0.9978 H   0  0  0  0  0  0  0  0  0  0  0  0
   -0.1252   -6.5082   -1.7344 H   0  0  0  0  0  0  0  0  0  0  0  0
   -1.8177   -5.6857    0.6334 H   0  0  0  0  0  0  0  0  0  0  0  0
   -2.0847   -8.1638    0.9807 H   0  0  0  0  0  0  0  0  0  0  0  0
   -1.1569   -8.4736   -0.5345 H   0  0  0  0  0  0  0  0  0  0  0  0
   -0.3581   -7.6830    0.8804 H   0  0  0  0  0  0  0  0  0  0  0  0
   -5.0648   -7.0311   -0.9352 H   0  0  0  0  0  0  0  0  0  0  0  0
   -3.6237   -6.2549    1.6535 H   0  0  0  0  0  0  0  0  0  0  0  0
   -4.3955   -8.6526    1.5344 H   0  0  0  0  0  0  0  0  0  0  0  0
   -5.2169   -7.6863    2.8140 H   0  0  0  0  0  0  0  0  0  0  0  0
   -6.0769   -8.0680    1.2673 H   0  0  0  0  0  0  0  0  0  0  0  0
   -5.5291   -4.4736   -0.6548 H   0  0  0  0  0  0  0  0  0  0  0  0
   -7.9148   -3.7979    0.7097 H   0  0  0  0  0  0  0  0  0  0  0  0
   -8.2205   -6.0846    1.5219 H   0  0  0  0  0  0  0  0  0  0  0  0
   -7.8732   -6.7837   -0.1087 H   0  0  0  0  0  0  0  0  0  0  0  0
   -9.4041   -5.8869    0.1911 H   0  0  0  0  0  0  0  0  0  0  0  0
   -9.5993   -3.7261   -2.6699 H   0  0  0  0  0  0  0  0  0  0  0  0
   -9.1244   -1.9811   -0.2931 H   0  0  0  0  0  0  0  0  0  0  0  0
  -10.1673   -3.7939    0.9657 H   0  0  0  0  0  0  0  0  0  0  0  0
  -11.4753   -2.6324    0.6860 H   0  0  0  0  0  0  0  0  0  0  0  0
  -11.3678   -4.1045   -0.3417 H   0  0  0  0  0  0  0  0  0  0  0  0
  -12.4900   -0.4455   -1.2288 H   0  0  0  0  0  0  0  0  0  0  0  0
   -9.7310    0.2666   -0.1231 H   0  0  0  0  0  0  0  0  0  0  0  0
  -11.0008    1.2683    1.8622 H   0  0  0  0  0  0  0  0  0  0  0  0
  -11.1371   -0.5137    1.7419 H   0  0  0  0  0  0  0  0  0  0  0  0
  -12.5113    0.5324    1.2099 H   0  0  0  0  0  0  0  0  0  0  0  0
  -10.8129    3.9401   -0.6039 H   0  0  0  0  0  0  0  0  0  0  0  0
   -8.8844    2.0635    0.8620 H   0  0  0  0  0  0  0  0  0  0  0  0
   -8.3625    4.0408    2.2564 H   0  0  0  0  0  0  0  0  0  0  0  0
  -10.1127    3.6084    2.3482 H   0  0  0  0  0  0  0  0  0  0  0  0
   -9.5845    5.0206    1.3563 H   0  0  0  0  0  0  0  0  0  0  0  0
   -9.0194    4.8571   -1.7877 H   0  0  0  0  0  0  0  0  0  0  0  0
   -7.4227    6.1056    0.2452 H   0  0  0  0  0  0  0  0  0  0  0  0
   -8.0453    7.1187   -2.5815 H   0  0  0  0  0  0  0  0  0  0  0  0
   -7.4332    8.1115   -1.1979 H   0  0  0  0  0  0  0  0  0  0  0  0
   -9.0572    7.3304   -1.1003 H   0  0  0  0  0  0  0  0  0  0  0  0
   -3.9598    5.2636   -0.8707 H   0  0  0  0  0  0  0  0  0  0  0  0
   -5.7444    5.5034    1.4412 H   0  0  0  0  0  0  0  0  0  0  0  0
   -4.1622    8.0310    0.6409 H   0  0  0  0  0  0  0  0  0  0  0  0
   -5.9365    7.8714    0.8437 H   0  0  0  0  0  0  0  0  0  0  0  0
   -4.8590    7.7347    2.2791 H   0  0  0  0  0  0  0  0  0  0  0  0
   -1.8308    5.8922    2.6196 H   0  0  0  0  0  0  0  0  0  0  0  0
   -2.3787    6.8306   -0.2204 H   0  0  0  0  0  0  0  0  0  0  0  0
   -1.9483    9.1621   -0.1822 H   0  0  0  0  0  0  0  0  0  0  0  0
   -0.4281    9.7868    0.5459 H   0  0  0  0  0  0  0  0  0  0  0  0
   -1.4663    4.5552   -0.3240 H   0  0  0  0  0  0  0  0  0  0  0  0
   -0.1822    4.9828    0.8571 H   0  0  0  0  0  0  0  0  0  0  0  0
    0.2126    3.5657   -2.0712 H   0  0  0  0  0  0  0  0  0  0  0  0
    1.7369    4.3701   -2.5355 H   0  0  0  0  0  0  0  0  0  0  0  0
  1  2  1  0
  2  3  2  0
  2  4  1  0
  4  5  1  0
  5  6  1  0
  6  7  1  0
  7  8  1  0
  8  9  1  0
  9 10  2  0
 10 11  1  0
 11 12  2  0
 12 13  1  0
 13 14  2  0
 13 15  1  0
 15 16  1  0
 16 17  1  0
 17 18  1  0
 18 19  1  0
 19 20  1  0
 20 21  2  0
 20 22  1  0
 22 23  1  0
 22 24  1  0
 24 25  1  0
 25 26  2  0
 25 27  1  0
 27 28  1  0
 27 29  1  0
 29 30  1  0
 30 31  2  0
 30 32  1  0
 32 33  1  0
 32 34  1  0
 34 35  1  0
 35 36  2  0
 35 37  1  0
 37 38  1  0
 37 39  1  0
 39 40  1  0
 40 41  2  0
 18 42  1  0
 42 43  2  0
 42 44  1  0
 44 45  1  0
 45 46  1  0
 45 47  1  0
 47 48  2  0
 47 49  1  0
 49 50  1  0
 50 51  1  0
 50 52  1  0
 52 53  2  0
 52 54  1  0
 54 55  1  0
 55 56  1  0
 55 57  1  0
 57 58  2  0
 57 59  1  0
 59 60  1  0
 60 61  1  0
 60 62  1  0
 62 63  2  0
 62 64  1  0
 64 65  1  0
 65 66  1  0
 65 67  1  0
 67 68  2  0
 67 69  1  0
 69 70  1  0
 70 71  1  0
 70 72  1  0
 72 73  2  0
 72 74  1  0
 74 75  1  0
 75 76  1  0
 75 77  1  0
 77 78  2  0
 77 79  1  0
 79 80  1  0
 80 81  1  0
 80 82  1  0
 82 83  2  0
 82 84  1  0
 84 85  1  0
 85 86  1  0
 85 87  1  0
 87 88  2  0
 87 89  1  0
 89 90  1  0
 90 91  1  0
 91 92  1  0
 91 93  2  0
 90 94  1  0
 94 95  1  0
 95 96  1  0
 40  5  1  0
 14  9  1  0
 96 11  1  0
  1 97  1  0
  1 98  1  0
  1 99  1  0
  4100  1  0
  5101  1  1
  6102  1  0
  6103  1  0
  8104  1  0
  8105  1  0
 10106  1  0
 12107  1  0
 14108  1  0
 15109  1  0
 15110  1  0
 17111  1  0
 17112  1  0
 18113  1  1
 19114  1  0
 22115  1  6
 23116  1  0
 23117  1  0
 23118  1  0
 24119  1  0
 27120  1  1
 28121  1  0
 28122  1  0
 28123  1  0
 29124  1  0
 32125  1  1
 33126  1  0
 33127  1  0
 33128  1  0
 34129  1  0
 37130  1  1
 38131  1  0
 38132  1  0
 38133  1  0
 39134  1  0
 44135  1  0
 45136  1  1
 46137  1  0
 46138  1  0
 46139  1  0
 49140  1  0
 50141  1  1
 51142  1  0
 51143  1  0
 51144  1  0
 54145  1  0
 55146  1  1
 56147  1  0
 56148  1  0
 56149  1  0
 59150  1  0
 60151  1  1
 61152  1  0
 61153  1  0
 61154  1  0
 64155  1  0
 65156  1  1
 66157  1  0
 66158  1  0
 66159  1  0
 69160  1  0
 70161  1  1
 71162  1  0
 71163  1  0
 71164  1  0
 74165  1  0
 75166  1  1
 76167  1  0
 76168  1  0
 76169  1  0
 79170  1  0
 80171  1  1
 81172  1  0
 81173  1  0
 81174  1  0
 84175  1  0
 85176  1  1
 86177  1  0
 86178  1  0
 86179  1  0
 89180  1  0
 90181  1  6
 92182  1  0
 92183  1  0
 94184  1  0
 94185  1  0
 96186  1  0
 96187  1  0
M  END
