
     RDKit          3D

167169  0  0  0  0  0  0  0  0999 V2000
   -8.3856    5.8227   -0.8362 C   0  0  0  0  0  0  0  0  0  0  0  0
   -8.0566    4.6231   -1.6774 C   0  0  0  0  0  0  0  0  0  0  0  0
   -8.4977    4.5656   -2.8563 O   0  0  0  0  0  0  0  0  0  0  0  0
   -7.2342    3.5615   -1.1812 N   0  0  0  0  0  0  0  0  0  0  0  0
   -6.8460    3.4096    0.2275 C   0  0  2  0  0  0  0  0  0  0  0  0
   -5.8184    2.2726    0.3995 C   0  0  0  0  0  0  0  0  0  0  0  0
   -5.2661    2.0927    2.1364 S   0  0  0  0  0  0  0  0  0  0  0  0
   -4.0389    3.4457    2.1422 C   0  0  0  0  0  0  0  0  0  0  0  0
   -2.7564    3.0135    1.4918 C   0  0  0  0  0  0  0  0  0  0  0  0
   -2.3018    3.6380    0.3207 C   0  0  0  0  0  0  0  0  0  0  0  0
   -1.0340    3.3402   -0.2043 C   0  0  0  0  0  0  0  0  0  0  0  0
   -0.2509    2.3559    0.4200 C   0  0  0  0  0  0  0  0  0  0  0  0
   -0.7103    1.7030    1.5730 C   0  0  0  0  0  0  0  0  0  0  0  0
   -1.9574    2.0481    2.1114 C   0  0  0  0  0  0  0  0  0  0  0  0
    0.1372    0.6806    2.2748 C   0  0  0  0  0  0  0  0  0  0  0  0
   -0.7574   -0.9153    2.3701 S   0  0  0  0  0  0  0  0  0  0  0  0
    0.1227   -1.7129    0.9760 C   0  0  0  0  0  0  0  0  0  0  0  0
   -0.5544   -3.0267    0.5312 C   0  0  2  0  0  0  0  0  0  0  0  0
   -1.9535   -2.7434    0.1529 N   0  0  0  0  0  0  0  0  0  0  0  0
   -3.0751   -3.6131    0.4112 C   0  0  0  0  0  0  0  0  0  0  0  0
   -2.9078   -4.8617    0.4363 O   0  0  0  0  0  0  0  0  0  0  0  0
   -4.4644   -3.0695    0.6498 C   0  0  1  0  0  0  0  0  0  0  0  0
   -4.4959   -1.5488    0.8938 C   0  0  0  0  0  0  0  0  0  0  0  0
   -5.3371   -3.4013   -0.4759 N   0  0  0  0  0  0  0  0  0  0  0  0
   -6.1518   -4.5833   -0.4953 C   0  0  0  0  0  0  0  0  0  0  0  0
   -5.8601   -5.4915   -1.3183 O   0  0  0  0  0  0  0  0  0  0  0  0
   -7.4146   -4.7396    0.3260 C   0  0  1  0  0  0  0  0  0  0  0  0
   -7.5377   -3.8613    1.5800 C   0  0  0  0  0  0  0  0  0  0  0  0
   -8.6126   -4.6475   -0.5183 N   0  0  0  0  0  0  0  0  0  0  0  0
   -9.0178   -3.5388   -1.3529 C   0  0  0  0  0  0  0  0  0  0  0  0
   -9.9441   -3.7311   -2.1878 O   0  0  0  0  0  0  0  0  0  0  0  0
   -8.4538   -2.1430   -1.2113 C   0  0  1  0  0  0  0  0  0  0  0  0
   -8.1409   -1.5369   -2.5871 C   0  0  0  0  0  0  0  0  0  0  0  0
   -9.4055   -1.2926   -0.5081 N   0  0  0  0  0  0  0  0  0  0  0  0
   -8.9486   -0.1918    0.2830 C   0  0  0  0  0  0  0  0  0  0  0  0
   -8.2716   -0.4197    1.3233 O   0  0  0  0  0  0  0  0  0  0  0  0
   -9.1266    1.2272   -0.1866 C   0  0  1  0  0  0  0  0  0  0  0  0
  -10.4709    1.4439   -0.8881 C   0  0  0  0  0  0  0  0  0  0  0  0
   -9.0252    2.1485    0.9506 N   0  0  0  0  0  0  0  0  0  0  0  0
   -8.0599    3.2007    1.1195 C   0  0  0  0  0  0  0  0  0  0  0  0
   -8.1878    3.9695    2.1148 O   0  0  0  0  0  0  0  0  0  0  0  0
   -0.4487   -4.0824    1.6202 C   0  0  0  0  0  0  0  0  0  0  0  0
   -1.1100   -3.9281    2.6855 O   0  0  0  0  0  0  0  0  0  0  0  0
    0.2990   -5.3049    1.4602 N   0  0  0  0  0  0  0  0  0  0  0  0
    1.5929   -5.4636    0.7680 C   0  0  2  0  0  0  0  0  0  0  0  0
    2.5535   -4.3191    1.1215 C   0  0  0  0  0  0  0  0  0  0  0  0
    1.4096   -5.6349   -0.7233 C   0  0  0  0  0  0  0  0  0  0  0  0
    0.2387   -5.7897   -1.1671 O   0  0  0  0  0  0  0  0  0  0  0  0
    2.4961   -5.6039   -1.6709 N   0  0  0  0  0  0  0  0  0  0  0  0
    3.8664   -6.1271   -1.5228 C   0  0  2  0  0  0  0  0  0  0  0  0
    3.9610   -7.3748   -0.6457 C   0  0  0  0  0  0  0  0  0  0  0  0
    4.8503   -5.0284   -1.1886 C   0  0  0  0  0  0  0  0  0  0  0  0
    4.8041   -3.9452   -1.8370 O   0  0  0  0  0  0  0  0  0  0  0  0
    5.9098   -5.2305   -0.2412 N   0  0  0  0  0  0  0  0  0  0  0  0
    7.2730   -4.7396   -0.4832 C   0  0  2  0  0  0  0  0  0  0  0  0
    7.8976   -5.4994   -1.6550 C   0  0  0  0  0  0  0  0  0  0  0  0
    8.1206   -4.9171    0.7566 C   0  0  0  0  0  0  0  0  0  0  0  0
    8.2071   -6.0607    1.2754 O   0  0  0  0  0  0  0  0  0  0  0  0
    8.8445   -3.8295    1.3558 N   0  0  0  0  0  0  0  0  0  0  0  0
    9.4375   -2.7294    0.5823 C   0  0  2  0  0  0  0  0  0  0  0  0
   10.7581   -2.2928    1.2391 C   0  0  0  0  0  0  0  0  0  0  0  0
    8.4728   -1.5667    0.4700 C   0  0  0  0  0  0  0  0  0  0  0  0
    7.3054   -1.6651    0.9422 O   0  0  0  0  0  0  0  0  0  0  0  0
    8.8605   -0.3624   -0.2071 N   0  0  0  0  0  0  0  0  0  0  0  0
    7.8887    0.5200   -0.8630 C   0  0  2  0  0  0  0  0  0  0  0  0
    7.5174   -0.0463   -2.2316 C   0  0  0  0  0  0  0  0  0  0  0  0
    8.4374    1.9152   -0.9981 C   0  0  0  0  0  0  0  0  0  0  0  0
    9.5627    2.1090   -1.5215 O   0  0  0  0  0  0  0  0  0  0  0  0
    7.6555    3.0359   -0.5817 N   0  0  0  0  0  0  0  0  0  0  0  0
    7.7427    3.5318    0.7955 C   0  0  2  0  0  0  0  0  0  0  0  0
    6.9426    2.6502    1.7645 C   0  0  0  0  0  0  0  0  0  0  0  0
    7.3359    4.9880    0.8910 C   0  0  0  0  0  0  0  0  0  0  0  0
    8.2434    5.8518    1.0173 O   0  0  0  0  0  0  0  0  0  0  0  0
    5.9651    5.4237    0.9603 N   0  0  0  0  0  0  0  0  0  0  0  0
    4.8992    4.9316    0.0861 C   0  0  2  0  0  0  0  0  0  0  0  0
    4.9517    5.6785   -1.2509 C   0  0  0  0  0  0  0  0  0  0  0  0
    3.5734    5.0692    0.7918 C   0  0  0  0  0  0  0  0  0  0  0  0
    3.1808    4.1442    1.5518 O   0  0  0  0  0  0  0  0  0  0  0  0
    2.7925    6.2673    0.6941 N   0  0  0  0  0  0  0  0  0  0  0  0
    1.8338    6.4550   -0.3924 C   0  0  2  0  0  0  0  0  0  0  0  0
    1.9604    7.8456   -0.9523 C   0  0  0  0  0  0  0  0  0  0  0  0
    1.8600    8.9960   -0.1094 N   0  0  0  0  0  0  0  0  0  0  0  0
    2.1771    7.9986   -2.1839 O   0  0  0  0  0  0  0  0  0  0  0  0
    0.4106    6.1809    0.1073 C   0  0  0  0  0  0  0  0  0  0  0  0
   -0.7403    5.8858   -1.2874 S   0  0  0  0  0  0  0  0  0  0  0  0
   -0.5066    4.0735   -1.4144 C   0  0  0  0  0  0  0  0  0  0  0  0
   -7.4428    6.3075   -0.5001 H   0  0  0  0  0  0  0  0  0  0  0  0
   -8.9912    5.5242    0.0438 H   0  0  0  0  0  0  0  0  0  0  0  0
   -8.9717    6.5584   -1.4272 H   0  0  0  0  0  0  0  0  0  0  0  0
   -6.8560    2.8870   -1.8863 H   0  0  0  0  0  0  0  0  0  0  0  0
   -6.3467    4.3531    0.5344 H   0  0  0  0  0  0  0  0  0  0  0  0
   -6.2584    1.3076    0.0928 H   0  0  0  0  0  0  0  0  0  0  0  0
   -4.9394    2.4549   -0.2572 H   0  0  0  0  0  0  0  0  0  0  0  0
   -4.4449    4.3569    1.6605 H   0  0  0  0  0  0  0  0  0  0  0  0
   -3.8251    3.7169    3.1988 H   0  0  0  0  0  0  0  0  0  0  0  0
   -2.9138    4.4015   -0.1499 H   0  0  0  0  0  0  0  0  0  0  0  0
    0.7332    2.1185    0.0300 H   0  0  0  0  0  0  0  0  0  0  0  0
   -2.3032    1.5755    3.0259 H   0  0  0  0  0  0  0  0  0  0  0  0
    0.3246    1.0301    3.3122 H   0  0  0  0  0  0  0  0  0  0  0  0
    1.1313    0.5635    1.7915 H   0  0  0  0  0  0  0  0  0  0  0  0
    1.1661   -1.8929    1.2878 H   0  0  0  0  0  0  0  0  0  0  0  0
    0.1498   -1.0159    0.1142 H   0  0  0  0  0  0  0  0  0  0  0  0
   -0.0177   -3.3689   -0.3739 H   0  0  0  0  0  0  0  0  0  0  0  0
   -2.1288   -1.8703   -0.3918 H   0  0  0  0  0  0  0  0  0  0  0  0
   -4.8373   -3.5542    1.5725 H   0  0  0  0  0  0  0  0  0  0  0  0
   -5.5146   -1.2392    1.2110 H   0  0  0  0  0  0  0  0  0  0  0  0
   -3.7768   -1.2715    1.6981 H   0  0  0  0  0  0  0  0  0  0  0  0
   -4.2484   -0.9925   -0.0338 H   0  0  0  0  0  0  0  0  0  0  0  0
   -5.0907   -2.9837   -1.4014 H   0  0  0  0  0  0  0  0  0  0  0  0
   -7.3806   -5.7808    0.7187 H   0  0  0  0  0  0  0  0  0  0  0  0
   -7.3181   -2.7998    1.3854 H   0  0  0  0  0  0  0  0  0  0  0  0
   -8.5704   -3.9332    1.9868 H   0  0  0  0  0  0  0  0  0  0  0  0
   -6.8514   -4.2209    2.3731 H   0  0  0  0  0  0  0  0  0  0  0  0
   -9.2168   -5.5033   -0.5780 H   0  0  0  0  0  0  0  0  0  0  0  0
   -7.4971   -2.1555   -0.6689 H   0  0  0  0  0  0  0  0  0  0  0  0
   -7.6657   -0.5430   -2.4560 H   0  0  0  0  0  0  0  0  0  0  0  0
   -7.4376   -2.1950   -3.1398 H   0  0  0  0  0  0  0  0  0  0  0  0
   -9.0725   -1.4079   -3.1781 H   0  0  0  0  0  0  0  0  0  0  0  0
  -10.3977   -1.2787   -0.8382 H   0  0  0  0  0  0  0  0  0  0  0  0
   -8.3378    1.4131   -0.9324 H   0  0  0  0  0  0  0  0  0  0  0  0
  -11.3161    1.1532   -0.2232 H   0  0  0  0  0  0  0  0  0  0  0  0
  -10.5152    0.8593   -1.8345 H   0  0  0  0  0  0  0  0  0  0  0  0
  -10.5846    2.5204   -1.1516 H   0  0  0  0  0  0  0  0  0  0  0  0
   -9.7578    2.0629    1.6902 H   0  0  0  0  0  0  0  0  0  0  0  0
    0.0076   -6.1041    2.0726 H   0  0  0  0  0  0  0  0  0  0  0  0
    2.0374   -6.3983    1.1641 H   0  0  0  0  0  0  0  0  0  0  0  0
    3.5878   -4.6999    1.1798 H   0  0  0  0  0  0  0  0  0  0  0  0
    2.5066   -3.5160    0.3567 H   0  0  0  0  0  0  0  0  0  0  0  0
    2.3114   -3.8949    2.1198 H   0  0  0  0  0  0  0  0  0  0  0  0
    2.2090   -5.3979   -2.6617 H   0  0  0  0  0  0  0  0  0  0  0  0
    4.1842   -6.4697   -2.5375 H   0  0  0  0  0  0  0  0  0  0  0  0
    3.9275   -7.1281    0.4352 H   0  0  0  0  0  0  0  0  0  0  0  0
    3.1380   -8.0752   -0.8915 H   0  0  0  0  0  0  0  0  0  0  0  0
    4.9271   -7.8942   -0.8370 H   0  0  0  0  0  0  0  0  0  0  0  0
    5.6788   -5.6697    0.6823 H   0  0  0  0  0  0  0  0  0  0  0  0
    7.2234   -3.6670   -0.7575 H   0  0  0  0  0  0  0  0  0  0  0  0
    7.8483   -6.5963   -1.4758 H   0  0  0  0  0  0  0  0  0  0  0  0
    8.9618   -5.2052   -1.7930 H   0  0  0  0  0  0  0  0  0  0  0  0
    7.3542   -5.2703   -2.5959 H   0  0  0  0  0  0  0  0  0  0  0  0
    9.1501   -3.9619    2.3481 H   0  0  0  0  0  0  0  0  0  0  0  0
    9.6813   -3.0898   -0.4396 H   0  0  0  0  0  0  0  0  0  0  0  0
   11.3435   -1.6374    0.5570 H   0  0  0  0  0  0  0  0  0  0  0  0
   11.3824   -3.1869    1.4530 H   0  0  0  0  0  0  0  0  0  0  0  0
   10.5652   -1.7608    2.1949 H   0  0  0  0  0  0  0  0  0  0  0  0
    9.8763   -0.1062   -0.2264 H   0  0  0  0  0  0  0  0  0  0  0  0
    6.9587    0.5675   -0.2517 H   0  0  0  0  0  0  0  0  0  0  0  0
    8.4238   -0.1650   -2.8594 H   0  0  0  0  0  0  0  0  0  0  0  0
    7.0299   -1.0368   -2.1103 H   0  0  0  0  0  0  0  0  0  0  0  0
    6.8028    0.6308   -2.7500 H   0  0  0  0  0  0  0  0  0  0  0  0
    6.8106    3.2289   -1.1533 H   0  0  0  0  0  0  0  0  0  0  0  0
    8.8110    3.4664    1.1141 H   0  0  0  0  0  0  0  0  0  0  0  0
    5.9158    2.4601    1.3997 H   0  0  0  0  0  0  0  0  0  0  0  0
    6.8824    3.1325    2.7650 H   0  0  0  0  0  0  0  0  0  0  0  0
    7.4518    1.6691    1.8875 H   0  0  0  0  0  0  0  0  0  0  0  0
    5.8006    6.3514    1.4111 H   0  0  0  0  0  0  0  0  0  0  0  0
    5.0301    3.8594   -0.1223 H   0  0  0  0  0  0  0  0  0  0  0  0
    5.9533    5.5466   -1.7149 H   0  0  0  0  0  0  0  0  0  0  0  0
    4.7821    6.7649   -1.1071 H   0  0  0  0  0  0  0  0  0  0  0  0
    4.2024    5.2683   -1.9553 H   0  0  0  0  0  0  0  0  0  0  0  0
    2.6510    6.8060    1.5741 H   0  0  0  0  0  0  0  0  0  0  0  0
    2.0587    5.7309   -1.2002 H   0  0  0  0  0  0  0  0  0  0  0  0
    1.6507    8.9044    0.9161 H   0  0  0  0  0  0  0  0  0  0  0  0
    2.0498    9.9450   -0.5003 H   0  0  0  0  0  0  0  0  0  0  0  0
    0.0284    7.0492    0.6848 H   0  0  0  0  0  0  0  0  0  0  0  0
    0.4049    5.3186    0.8023 H   0  0  0  0  0  0  0  0  0  0  0  0
    0.5708    3.8565   -1.5799 H   0  0  0  0  0  0  0  0  0  0  0  0
   -1.0633    3.7145   -2.3046 H   0  0  0  0  0  0  0  0  0  0  0  0
  1  2  1  0
  2  3  2  0
  2  4  1  0
  4  5  1  0
  5  6  1  0
  6  7  1  0
  7  8  1  0
  8  9  1  0
  9 10  2  0
 10 11  1  0
 11 12  2  0
 12 13  1  0
 13 14  2  0
 13 15  1  0
 15 16  1  0
 16 17  1  0
 17 18  1  0
 18 19  1  0
 19 20  1  0
 20 21  2  0
 20 22  1  0
 22 23  1  0
 22 24  1  0
 24 25  1  0
 25 26  2  0
 25 27  1  0
 27 28  1  0
 27 29  1  0
 29 30  1  0
 30 31  2  0
 30 32  1  0
 32 33  1  0
 32 34  1  0
 34 35  1  0
 35 36  2  0
 35 37  1  0
 37 38  1  0
 37 39  1  0
 39 40  1  0
 40 41  2  0
 18 42  1  0
 42 43  2  0
 42 44  1  0
 44 45  1  0
 45 46  1  0
 45 47  1  0
 47 48  2  0
 47 49  1  0
 49 50  1  0
 50 51  1  0
 50 52  1  0
 52 53  2  0
 52 54  1  0
 54 55  1  0
 55 56  1  0
 55 57  1  0
 57 58  2  0
 57 59  1  0
 59 60  1  0
 60 61  1  0
 60 62  1  0
 62 63  2  0
 62 64  1  0
 64 65  1  0
 65 66  1  0
 65 67  1  0
 67 68  2  0
 67 69  1  0
 69 70  1  0
 70 71  1  0
 70 72  1  0
 72 73  2  0
 72 74  1  0
 74 75  1  0
 75 76  1  0
 75 77  1  0
 77 78  2  0
 77 79  1  0
 79 80  1  0
 80 81  1  0
 81 82  1  0
 81 83  2  0
 80 84  1  0
 84 85  1  0
 85 86  1  0
 40  5  1  0
 14  9  1  0
 86 11  1  0
  1 87  1  0
  1 88  1  0
  1 89  1  0
  4 90  1  0
  5 91  1  1
  6 92  1  0
  6 93  1  0
  8 94  1  0
  8 95  1  0
 10 96  1  0
 12 97  1  0
 14 98  1  0
 15 99  1  0
 15100  1  0
 17101  1  0
 17102  1  0
 18103  1  6
 19104  1  0
 22105  1  1
 23106  1  0
 23107  1  0
 23108  1  0
 24109  1  0
 27110  1  1
 28111  1  0
 28112  1  0
 28113  1  0
 29114  1  0
 32115  1  1
 33116  1  0
 33117  1  0
 33118  1  0
 34119  1  0
 37120  1  6
 38121  1  0
 38122  1  0
 38123  1  0
 39124  1  0
 44125  1  0
 45126  1  1
 46127  1  0
 46128  1  0
 46129  1  0
 49130  1  0
 50131  1  6
 51132  1  0
 51133  1  0
 51134  1  0
 54135  1  0
 55136  1  6
 56137  1  0
 56138  1  0
 56139  1  0
 59140  1  0
 60141  1  6
 61142  1  0
 61143  1  0
 61144  1  0
 64145  1  0
 65146  1  1
 66147  1  0
 66148  1  0
 66149  1  0
 69150  1  0
 70151  1  1
 71152  1  0
 71153  1  0
 71154  1  0
 74155  1  0
 75156  1  6
 76157  1  0
 76158  1  0
 76159  1  0
 79160  1  0
 80161  1  6
 82162  1  0
 82163  1  0
 84164  1  0
 84165  1  0
 86166  1  0
 86167  1  0
M  END
