
     RDKit          3D

157159  0  0  0  0  0  0  0  0999 V2000
  -12.7127    1.5283    0.8271 C   0  0  0  0  0  0  0  0  0  0  0  0
  -11.2321    1.7107    0.7487 C   0  0  0  0  0  0  0  0  0  0  0  0
  -10.6557    2.3955    1.6353 O   0  0  0  0  0  0  0  0  0  0  0  0
  -10.4775    1.0903   -0.3043 N   0  0  0  0  0  0  0  0  0  0  0  0
   -9.0137    1.0979   -0.3485 C   0  0  2  0  0  0  0  0  0  0  0  0
   -8.5285    2.2381   -1.2715 C   0  0  0  0  0  0  0  0  0  0  0  0
   -8.3568    3.8092   -0.3317 S   0  0  0  0  0  0  0  0  0  0  0  0
   -6.8306    4.4091   -1.1529 C   0  0  0  0  0  0  0  0  0  0  0  0
   -5.5811    4.0804   -0.3647 C   0  0  0  0  0  0  0  0  0  0  0  0
   -4.5827    5.0549   -0.1830 C   0  0  0  0  0  0  0  0  0  0  0  0
   -3.3780    4.7364    0.4646 C   0  0  0  0  0  0  0  0  0  0  0  0
   -3.1496    3.4173    0.8919 C   0  0  0  0  0  0  0  0  0  0  0  0
   -4.1357    2.4323    0.7225 C   0  0  0  0  0  0  0  0  0  0  0  0
   -5.3603    2.7836    0.1261 C   0  0  0  0  0  0  0  0  0  0  0  0
   -3.9178    1.0364    1.2543 C   0  0  0  0  0  0  0  0  0  0  0  0
   -4.4954   -0.2245    0.0579 S   0  0  0  0  0  0  0  0  0  0  0  0
   -3.8749   -1.6709    0.9929 C   0  0  0  0  0  0  0  0  0  0  0  0
   -4.5019   -3.0186    0.5676 C   0  0  1  0  0  0  0  0  0  0  0  0
   -5.8334   -3.2304    1.1488 N   0  0  0  0  0  0  0  0  0  0  0  0
   -6.9179   -2.3042    1.0389 C   0  0  0  0  0  0  0  0  0  0  0  0
   -6.9314   -1.2814    1.7794 O   0  0  0  0  0  0  0  0  0  0  0  0
   -8.0971   -2.6146    0.1547 C   0  0  1  0  0  0  0  0  0  0  0  0
   -8.9181   -3.7650    0.7407 C   0  0  0  0  0  0  0  0  0  0  0  0
   -8.9481   -1.4268   -0.0035 N   0  0  0  0  0  0  0  0  0  0  0  0
   -8.5085   -0.2724   -0.7434 C   0  0  0  0  0  0  0  0  0  0  0  0
   -7.6809   -0.4147   -1.6845 O   0  0  0  0  0  0  0  0  0  0  0  0
   -4.5223   -3.2672   -0.9222 C   0  0  0  0  0  0  0  0  0  0  0  0
   -5.1448   -2.4818   -1.6868 O   0  0  0  0  0  0  0  0  0  0  0  0
   -3.8594   -4.4049   -1.4917 N   0  0  0  0  0  0  0  0  0  0  0  0
   -4.2664   -5.7930   -1.2396 C   0  0  2  0  0  0  0  0  0  0  0  0
   -5.7831   -5.9599   -1.3881 C   0  0  0  0  0  0  0  0  0  0  0  0
   -3.7435   -6.2716    0.0998 C   0  0  0  0  0  0  0  0  0  0  0  0
   -4.5485   -6.4876    1.0451 O   0  0  0  0  0  0  0  0  0  0  0  0
   -2.3378   -6.4724    0.3360 N   0  0  0  0  0  0  0  0  0  0  0  0
   -1.3540   -6.6480   -0.7381 C   0  0  2  0  0  0  0  0  0  0  0  0
   -1.4030   -8.0868   -1.2672 C   0  0  0  0  0  0  0  0  0  0  0  0
    0.0388   -6.3212   -0.2633 C   0  0  0  0  0  0  0  0  0  0  0  0
    0.6641   -5.3623   -0.7828 O   0  0  0  0  0  0  0  0  0  0  0  0
    0.6995   -7.1598    0.6981 N   0  0  0  0  0  0  0  0  0  0  0  0
    2.0218   -7.7163    0.4020 C   0  0  2  0  0  0  0  0  0  0  0  0
    1.9612   -9.2451    0.4317 C   0  0  0  0  0  0  0  0  0  0  0  0
    3.0369   -7.2136    1.3990 C   0  0  0  0  0  0  0  0  0  0  0  0
    2.8415   -7.4094    2.6316 O   0  0  0  0  0  0  0  0  0  0  0  0
    4.2640   -6.5891    0.9840 N   0  0  0  0  0  0  0  0  0  0  0  0
    4.3798   -5.7113   -0.1864 C   0  0  2  0  0  0  0  0  0  0  0  0
    4.9494   -6.5131   -1.3643 C   0  0  0  0  0  0  0  0  0  0  0  0
    5.2228   -4.5041    0.1771 C   0  0  0  0  0  0  0  0  0  0  0  0
    4.9047   -3.8325    1.1936 O   0  0  0  0  0  0  0  0  0  0  0  0
    6.3945   -4.1370   -0.5765 N   0  0  0  0  0  0  0  0  0  0  0  0
    7.6130   -3.6284    0.0596 C   0  0  2  0  0  0  0  0  0  0  0  0
    8.1632   -4.6619    1.0506 C   0  0  0  0  0  0  0  0  0  0  0  0
    7.3778   -2.2789    0.6916 C   0  0  0  0  0  0  0  0  0  0  0  0
    7.6149   -2.0892    1.9166 O   0  0  0  0  0  0  0  0  0  0  0  0
    6.8994   -1.1965   -0.1126 N   0  0  0  0  0  0  0  0  0  0  0  0
    7.7311   -0.0644   -0.5242 C   0  0  2  0  0  0  0  0  0  0  0  0
    8.9262   -0.5490   -1.3485 C   0  0  0  0  0  0  0  0  0  0  0  0
    8.1699    0.7531    0.6641 C   0  0  0  0  0  0  0  0  0  0  0  0
    9.0460    0.3103    1.4599 O   0  0  0  0  0  0  0  0  0  0  0  0
    7.5242    1.9958    0.9670 N   0  0  0  0  0  0  0  0  0  0  0  0
    7.7751    3.2684    0.2708 C   0  0  2  0  0  0  0  0  0  0  0  0
    8.8223    3.1426   -0.8506 C   0  0  0  0  0  0  0  0  0  0  0  0
    8.2115    4.3291    1.2650 C   0  0  0  0  0  0  0  0  0  0  0  0
    8.6221    3.9702    2.4011 O   0  0  0  0  0  0  0  0  0  0  0  0
    8.2186    5.7312    0.9447 N   0  0  0  0  0  0  0  0  0  0  0  0
    7.4609    6.3446   -0.1541 C   0  0  2  0  0  0  0  0  0  0  0  0
    8.2941    7.4437   -0.8153 C   0  0  0  0  0  0  0  0  0  0  0  0
    6.1514    6.8865    0.3601 C   0  0  0  0  0  0  0  0  0  0  0  0
    6.1210    8.0019    0.9457 O   0  0  0  0  0  0  0  0  0  0  0  0
    4.9411    6.1248    0.1822 N   0  0  0  0  0  0  0  0  0  0  0  0
    3.6184    6.7353   -0.0354 C   0  0  2  0  0  0  0  0  0  0  0  0
    3.7169    7.8404   -1.0980 C   0  0  0  0  0  0  0  0  0  0  0  0
    3.0050    7.2212    1.2674 C   0  0  0  0  0  0  0  0  0  0  0  0
    3.7730    7.4399    2.2418 O   0  0  0  0  0  0  0  0  0  0  0  0
    1.5849    7.3892    1.4817 N   0  0  0  0  0  0  0  0  0  0  0  0
    0.4916    7.5078    0.5030 C   0  0  1  0  0  0  0  0  0  0  0  0
    0.6761    8.7185   -0.3821 C   0  0  0  0  0  0  0  0  0  0  0  0
    1.1005    9.9599    0.1806 N   0  0  0  0  0  0  0  0  0  0  0  0
    0.4167    8.6572   -1.6135 O   0  0  0  0  0  0  0  0  0  0  0  0
    0.2601    6.1875   -0.2615 C   0  0  0  0  0  0  0  0  0  0  0  0
   -1.4383    6.0556   -0.9437 S   0  0  0  0  0  0  0  0  0  0  0  0
   -2.3138    5.7819    0.6406 C   0  0  0  0  0  0  0  0  0  0  0  0
  -13.2112    2.5175    0.7594 H   0  0  0  0  0  0  0  0  0  0  0  0
  -13.0825    0.8852   -0.0007 H   0  0  0  0  0  0  0  0  0  0  0  0
  -12.9816    1.0501    1.7940 H   0  0  0  0  0  0  0  0  0  0  0  0
  -10.9930    0.6156   -1.0792 H   0  0  0  0  0  0  0  0  0  0  0  0
   -8.6037    1.2654    0.6753 H   0  0  0  0  0  0  0  0  0  0  0  0
   -9.2527    2.4031   -2.1011 H   0  0  0  0  0  0  0  0  0  0  0  0
   -7.5590    1.9722   -1.7488 H   0  0  0  0  0  0  0  0  0  0  0  0
   -6.7349    3.9971   -2.1794 H   0  0  0  0  0  0  0  0  0  0  0  0
   -6.9287    5.5068   -1.2800 H   0  0  0  0  0  0  0  0  0  0  0  0
   -4.7290    6.0557   -0.5716 H   0  0  0  0  0  0  0  0  0  0  0  0
   -2.2186    3.1656    1.3853 H   0  0  0  0  0  0  0  0  0  0  0  0
   -6.1311    2.0350    0.0397 H   0  0  0  0  0  0  0  0  0  0  0  0
   -4.4786    0.9267    2.2052 H   0  0  0  0  0  0  0  0  0  0  0  0
   -2.8375    0.8622    1.4562 H   0  0  0  0  0  0  0  0  0  0  0  0
   -4.0480   -1.5221    2.0791 H   0  0  0  0  0  0  0  0  0  0  0  0
   -2.7734   -1.7202    0.8335 H   0  0  0  0  0  0  0  0  0  0  0  0
   -3.8350   -3.7874    1.0164 H   0  0  0  0  0  0  0  0  0  0  0  0
   -6.0378   -4.1671    1.5698 H   0  0  0  0  0  0  0  0  0  0  0  0
   -7.7273   -2.9391   -0.8447 H   0  0  0  0  0  0  0  0  0  0  0  0
   -9.7760   -3.9963    0.0666 H   0  0  0  0  0  0  0  0  0  0  0  0
   -8.2979   -4.6819    0.8335 H   0  0  0  0  0  0  0  0  0  0  0  0
   -9.3140   -3.4942    1.7431 H   0  0  0  0  0  0  0  0  0  0  0  0
   -9.8174   -1.3455    0.5695 H   0  0  0  0  0  0  0  0  0  0  0  0
   -3.2758   -4.2300   -2.3411 H   0  0  0  0  0  0  0  0  0  0  0  0
   -3.8218   -6.4339   -2.0304 H   0  0  0  0  0  0  0  0  0  0  0  0
   -6.3310   -5.4516   -0.5672 H   0  0  0  0  0  0  0  0  0  0  0  0
   -6.0425   -7.0385   -1.3881 H   0  0  0  0  0  0  0  0  0  0  0  0
   -6.1220   -5.5285   -2.3524 H   0  0  0  0  0  0  0  0  0  0  0  0
   -2.0509   -6.7104    1.3110 H   0  0  0  0  0  0  0  0  0  0  0  0
   -1.5877   -5.9582   -1.5732 H   0  0  0  0  0  0  0  0  0  0  0  0
   -2.3979   -8.3053   -1.7105 H   0  0  0  0  0  0  0  0  0  0  0  0
   -1.2216   -8.8122   -0.4441 H   0  0  0  0  0  0  0  0  0  0  0  0
   -0.6304   -8.2310   -2.0524 H   0  0  0  0  0  0  0  0  0  0  0  0
    0.1397   -7.5778    1.4740 H   0  0  0  0  0  0  0  0  0  0  0  0
    2.3194   -7.4295   -0.6283 H   0  0  0  0  0  0  0  0  0  0  0  0
    2.9622   -9.6675    0.1990 H   0  0  0  0  0  0  0  0  0  0  0  0
    1.6388   -9.6144    1.4256 H   0  0  0  0  0  0  0  0  0  0  0  0
    1.2525   -9.6103   -0.3370 H   0  0  0  0  0  0  0  0  0  0  0  0
    5.0928   -6.6833    1.6207 H   0  0  0  0  0  0  0  0  0  0  0  0
    3.3720   -5.3336   -0.4609 H   0  0  0  0  0  0  0  0  0  0  0  0
    4.8659   -5.9238   -2.2993 H   0  0  0  0  0  0  0  0  0  0  0  0
    6.0072   -6.7884   -1.1784 H   0  0  0  0  0  0  0  0  0  0  0  0
    4.3825   -7.4539   -1.5165 H   0  0  0  0  0  0  0  0  0  0  0  0
    6.4603   -4.3959   -1.5815 H   0  0  0  0  0  0  0  0  0  0  0  0
    8.3890   -3.4953   -0.7289 H   0  0  0  0  0  0  0  0  0  0  0  0
    9.1423   -4.3242    1.4568 H   0  0  0  0  0  0  0  0  0  0  0  0
    8.3212   -5.6329    0.5353 H   0  0  0  0  0  0  0  0  0  0  0  0
    7.4611   -4.8223    1.8954 H   0  0  0  0  0  0  0  0  0  0  0  0
    5.8950   -1.2113   -0.4150 H   0  0  0  0  0  0  0  0  0  0  0  0
    7.1126    0.5877   -1.1814 H   0  0  0  0  0  0  0  0  0  0  0  0
    9.6142   -1.1646   -0.7293 H   0  0  0  0  0  0  0  0  0  0  0  0
    9.4951    0.3115   -1.7525 H   0  0  0  0  0  0  0  0  0  0  0  0
    8.5716   -1.1645   -2.2026 H   0  0  0  0  0  0  0  0  0  0  0  0
    6.8542    1.9989    1.7670 H   0  0  0  0  0  0  0  0  0  0  0  0
    6.8112    3.5706   -0.1826 H   0  0  0  0  0  0  0  0  0  0  0  0
    8.4262    2.5116   -1.6727 H   0  0  0  0  0  0  0  0  0  0  0  0
    9.7649    2.7056   -0.4641 H   0  0  0  0  0  0  0  0  0  0  0  0
    9.0527    4.1364   -1.2853 H   0  0  0  0  0  0  0  0  0  0  0  0
    8.6500    6.3792    1.6443 H   0  0  0  0  0  0  0  0  0  0  0  0
    7.2469    5.6026   -0.9475 H   0  0  0  0  0  0  0  0  0  0  0  0
    8.5858    8.2203   -0.0754 H   0  0  0  0  0  0  0  0  0  0  0  0
    7.7148    7.9219   -1.6384 H   0  0  0  0  0  0  0  0  0  0  0  0
    9.2205    7.0059   -1.2506 H   0  0  0  0  0  0  0  0  0  0  0  0
    5.0439    5.1289   -0.1048 H   0  0  0  0  0  0  0  0  0  0  0  0
    2.9764    5.9245   -0.4320 H   0  0  0  0  0  0  0  0  0  0  0  0
    3.9196    8.8314   -0.6329 H   0  0  0  0  0  0  0  0  0  0  0  0
    2.7868    7.8875   -1.6923 H   0  0  0  0  0  0  0  0  0  0  0  0
    4.5261    7.6159   -1.8247 H   0  0  0  0  0  0  0  0  0  0  0  0
    1.2990    7.4999    2.4826 H   0  0  0  0  0  0  0  0  0  0  0  0
   -0.4312    7.7128    1.0856 H   0  0  0  0  0  0  0  0  0  0  0  0
    1.1490   10.0920    1.2113 H   0  0  0  0  0  0  0  0  0  0  0  0
    1.3895   10.7474   -0.4460 H   0  0  0  0  0  0  0  0  0  0  0  0
    0.9439    6.1152   -1.1287 H   0  0  0  0  0  0  0  0  0  0  0  0
    0.4549    5.3209    0.4048 H   0  0  0  0  0  0  0  0  0  0  0  0
   -1.6152    5.4818    1.4512 H   0  0  0  0  0  0  0  0  0  0  0  0
   -2.7856    6.7407    0.9498 H   0  0  0  0  0  0  0  0  0  0  0  0
  1  2  1  0
  2  3  2  0
  2  4  1  0
  4  5  1  0
  5  6  1  0
  6  7  1  0
  7  8  1  0
  8  9  1  0
  9 10  1  0
 10 11  2  0
 11 12  1  0
 12 13  2  0
 13 14  1  0
 13 15  1  0
 15 16  1  0
 16 17  1  0
 17 18  1  0
 18 19  1  0
 19 20  1  0
 20 21  2  0
 20 22  1  0
 22 23  1  0
 22 24  1  0
 24 25  1  0
 25 26  2  0
 18 27  1  0
 27 28  2  0
 27 29  1  0
 29 30  1  0
 30 31  1  0
 30 32  1  0
 32 33  2  0
 32 34  1  0
 34 35  1  0
 35 36  1  0
 35 37  1  0
 37 38  2  0
 37 39  1  0
 39 40  1  0
 40 41  1  0
 40 42  1  0
 42 43  2  0
 42 44  1  0
 44 45  1  0
 45 46  1  0
 45 47  1  0
 47 48  2  0
 47 49  1  0
 49 50  1  0
 50 51  1  0
 50 52  1  0
 52 53  2  0
 52 54  1  0
 54 55  1  0
 55 56  1  0
 55 57  1  0
 57 58  2  0
 57 59  1  0
 59 60  1  0
 60 61  1  0
 60 62  1  0
 62 63  2  0
 62 64  1  0
 64 65  1  0
 65 66  1  0
 65 67  1  0
 67 68  2  0
 67 69  1  0
 69 70  1  0
 70 71  1  0
 70 72  1  0
 72 73  2  0
 72 74  1  0
 74 75  1  0
 75 76  1  0
 76 77  1  0
 76 78  2  0
 75 79  1  0
 79 80  1  0
 80 81  1  0
 25  5  1  0
 14  9  2  0
 81 11  1  0
  1 82  1  0
  1 83  1  0
  1 84  1  0
  4 85  1  0
  5 86  1  1
  6 87  1  0
  6 88  1  0
  8 89  1  0
  8 90  1  0
 10 91  1  0
 12 92  1  0
 14 93  1  0
 15 94  1  0
 15 95  1  0
 17 96  1  0
 17 97  1  0
 18 98  1  1
 19 99  1  0
 22100  1  6
 23101  1  0
 23102  1  0
 23103  1  0
 24104  1  0
 29105  1  0
 30106  1  6
 31107  1  0
 31108  1  0
 31109  1  0
 34110  1  0
 35111  1  6
 36112  1  0
 36113  1  0
 36114  1  0
 39115  1  0
 40116  1  6
 41117  1  0
 41118  1  0
 41119  1  0
 44120  1  0
 45121  1  6
 46122  1  0
 46123  1  0
 46124  1  0
 49125  1  0
 50126  1  6
 51127  1  0
 51128  1  0
 51129  1  0
 54130  1  0
 55131  1  6
 56132  1  0
 56133  1  0
 56134  1  0
 59135  1  0
 60136  1  6
 61137  1  0
 61138  1  0
 61139  1  0
 64140  1  0
 65141  1  6
 66142  1  0
 66143  1  0
 66144  1  0
 69145  1  0
 70146  1  6
 71147  1  0
 71148  1  0
 71149  1  0
 74150  1  0
 75151  1  1
 77152  1  0
 77153  1  0
 79154  1  0
 79155  1  0
 81156  1  0
 81157  1  0
M  END
