
     RDKit          3D

177179  0  0  0  0  0  0  0  0999 V2000
   -9.0469    4.7612    2.2023 C   0  0  0  0  0  0  0  0  0  0  0  0
   -7.8840    3.8187    2.3047 C   0  0  0  0  0  0  0  0  0  0  0  0
   -7.5513    3.3840    3.4390 O   0  0  0  0  0  0  0  0  0  0  0  0
   -7.1295    3.4105    1.1513 N   0  0  0  0  0  0  0  0  0  0  0  0
   -7.5050    3.7255   -0.2350 C   0  0  1  0  0  0  0  0  0  0  0  0
   -6.2680    4.1771   -1.0322 C   0  0  0  0  0  0  0  0  0  0  0  0
   -4.9870    2.8697   -1.1664 S   0  0  0  0  0  0  0  0  0  0  0  0
   -3.7318    3.6282   -0.0646 C   0  0  0  0  0  0  0  0  0  0  0  0
   -2.3447    3.2207   -0.4904 C   0  0  0  0  0  0  0  0  0  0  0  0
   -1.4140    4.1988   -0.8730 C   0  0  0  0  0  0  0  0  0  0  0  0
   -0.1220    3.8384   -1.2850 C   0  0  0  0  0  0  0  0  0  0  0  0
    0.2283    2.4792   -1.3373 C   0  0  0  0  0  0  0  0  0  0  0  0
   -0.6904    1.4842   -0.9536 C   0  0  0  0  0  0  0  0  0  0  0  0
   -1.9796    1.8676   -0.5357 C   0  0  0  0  0  0  0  0  0  0  0  0
   -0.3523    0.0247   -1.1349 C   0  0  0  0  0  0  0  0  0  0  0  0
   -0.8153   -0.9506    0.3497 S   0  0  0  0  0  0  0  0  0  0  0  0
   -1.0508   -2.5575   -0.5113 C   0  0  0  0  0  0  0  0  0  0  0  0
   -2.0785   -3.4480    0.2118 C   0  0  2  0  0  0  0  0  0  0  0  0
   -3.3833   -2.7825    0.2897 N   0  0  0  0  0  0  0  0  0  0  0  0
   -4.5493   -3.5275    0.6475 C   0  0  0  0  0  0  0  0  0  0  0  0
   -4.8442   -3.6790    1.8605 O   0  0  0  0  0  0  0  0  0  0  0  0
   -5.4061   -4.1464   -0.4234 C   0  0  1  0  0  0  0  0  0  0  0  0
   -5.4817   -5.6656   -0.2152 C   0  0  0  0  0  0  0  0  0  0  0  0
   -6.7234   -3.5007   -0.4310 N   0  0  0  0  0  0  0  0  0  0  0  0
   -7.9412   -4.1968   -0.7068 C   0  0  0  0  0  0  0  0  0  0  0  0
   -8.2050   -4.5460   -1.8952 O   0  0  0  0  0  0  0  0  0  0  0  0
   -8.8590   -4.5972    0.4182 C   0  0  1  0  0  0  0  0  0  0  0  0
   -8.7890   -3.6481    1.6182 C   0  0  0  0  0  0  0  0  0  0  0  0
  -10.2395   -4.7901   -0.0465 N   0  0  0  0  0  0  0  0  0  0  0  0
  -11.2031   -3.7597   -0.3354 C   0  0  0  0  0  0  0  0  0  0  0  0
  -12.4290   -4.0437   -0.2385 O   0  0  0  0  0  0  0  0  0  0  0  0
  -10.8203   -2.3483   -0.7302 C   0  0  1  0  0  0  0  0  0  0  0  0
  -11.6378   -1.9314   -1.9629 C   0  0  0  0  0  0  0  0  0  0  0  0
  -11.0831   -1.4388    0.3924 N   0  0  0  0  0  0  0  0  0  0  0  0
  -10.4123   -0.1844    0.6040 C   0  0  0  0  0  0  0  0  0  0  0  0
  -10.3675    0.2864    1.7756 O   0  0  0  0  0  0  0  0  0  0  0  0
   -9.8996    0.6634   -0.5411 C   0  0  1  0  0  0  0  0  0  0  0  0
  -11.0619    1.5492   -1.0294 C   0  0  0  0  0  0  0  0  0  0  0  0
   -8.7650    1.4877   -0.1024 N   0  0  0  0  0  0  0  0  0  0  0  0
   -8.2317    2.5710   -0.8904 C   0  0  0  0  0  0  0  0  0  0  0  0
   -8.4241    2.5989   -2.1370 O   0  0  0  0  0  0  0  0  0  0  0  0
   -1.5914   -3.8393    1.5926 C   0  0  0  0  0  0  0  0  0  0  0  0
   -1.9049   -3.1118    2.5774 O   0  0  0  0  0  0  0  0  0  0  0  0
   -0.8134   -5.0238    1.8395 N   0  0  0  0  0  0  0  0  0  0  0  0
   -0.1069   -5.8195    0.8272 C   0  0  2  0  0  0  0  0  0  0  0  0
   -0.3017   -7.3112    1.1317 C   0  0  0  0  0  0  0  0  0  0  0  0
    1.3594   -5.4738    0.8100 C   0  0  0  0  0  0  0  0  0  0  0  0
    1.8584   -4.8063    1.7618 O   0  0  0  0  0  0  0  0  0  0  0  0
    2.1905   -5.9272   -0.2706 N   0  0  0  0  0  0  0  0  0  0  0  0
    3.4989   -5.3310   -0.5390 C   0  0  2  0  0  0  0  0  0  0  0  0
    3.3098   -4.0082   -1.2853 C   0  0  0  0  0  0  0  0  0  0  0  0
    4.3493   -6.2836   -1.3564 C   0  0  0  0  0  0  0  0  0  0  0  0
    3.9197   -6.6388   -2.4895 O   0  0  0  0  0  0  0  0  0  0  0  0
    5.6415   -6.7706   -0.9313 N   0  0  0  0  0  0  0  0  0  0  0  0
    6.2048   -6.7262    0.4258 C   0  0  2  0  0  0  0  0  0  0  0  0
    5.3488   -7.5429    1.4076 C   0  0  0  0  0  0  0  0  0  0  0  0
    6.4633   -5.3059    0.8605 C   0  0  0  0  0  0  0  0  0  0  0  0
    6.1453   -4.9198    2.0193 O   0  0  0  0  0  0  0  0  0  0  0  0
    7.0380   -4.3615   -0.0527 N   0  0  0  0  0  0  0  0  0  0  0  0
    8.4765   -4.1113   -0.1633 C   0  0  2  0  0  0  0  0  0  0  0  0
    9.1770   -5.2416   -0.9227 C   0  0  0  0  0  0  0  0  0  0  0  0
    9.0803   -3.8767    1.2073 C   0  0  0  0  0  0  0  0  0  0  0  0
    9.3143   -4.8781    1.9431 O   0  0  0  0  0  0  0  0  0  0  0  0
    9.3484   -2.5651    1.7316 N   0  0  0  0  0  0  0  0  0  0  0  0
    9.5060   -1.3495    0.9172 C   0  0  2  0  0  0  0  0  0  0  0  0
   10.7824   -1.4546    0.0725 C   0  0  0  0  0  0  0  0  0  0  0  0
    9.5932   -0.1311    1.8114 C   0  0  0  0  0  0  0  0  0  0  0  0
   10.4786   -0.1061    2.7070 O   0  0  0  0  0  0  0  0  0  0  0  0
    8.7013    0.9920    1.6908 N   0  0  0  0  0  0  0  0  0  0  0  0
    7.8362    1.2855    0.5401 C   0  0  2  0  0  0  0  0  0  0  0  0
    8.6746    1.4694   -0.7382 C   0  0  0  0  0  0  0  0  0  0  0  0
    7.0522    2.5487    0.7904 C   0  0  0  0  0  0  0  0  0  0  0  0
    5.7900    2.5175    0.7929 O   0  0  0  0  0  0  0  0  0  0  0  0
    7.7362    3.7869    1.0141 N   0  0  0  0  0  0  0  0  0  0  0  0
    7.7825    4.8232   -0.0122 C   0  0  2  0  0  0  0  0  0  0  0  0
    9.2303    5.2679   -0.2358 C   0  0  0  0  0  0  0  0  0  0  0  0
    6.9366    5.9996    0.3971 C   0  0  0  0  0  0  0  0  0  0  0  0
    7.1879    6.5928    1.4826 O   0  0  0  0  0  0  0  0  0  0  0  0
    5.8866    6.4617   -0.4697 N   0  0  0  0  0  0  0  0  0  0  0  0
    5.3528    7.8321   -0.4875 C   0  0  2  0  0  0  0  0  0  0  0  0
    6.4846    8.8740   -0.5357 C   0  0  0  0  0  0  0  0  0  0  0  0
    4.4202    8.0650    0.6826 C   0  0  0  0  0  0  0  0  0  0  0  0
    4.8938    8.0061    1.8508 O   0  0  0  0  0  0  0  0  0  0  0  0
    3.0200    8.3514    0.5262 N   0  0  0  0  0  0  0  0  0  0  0  0
    2.3468    8.6475   -0.7457 C   0  0  2  0  0  0  0  0  0  0  0  0
    1.1581    9.5579   -0.5187 C   0  0  0  0  0  0  0  0  0  0  0  0
    0.0968    9.2076    0.3799 N   0  0  0  0  0  0  0  0  0  0  0  0
    1.1269   10.6777   -1.0864 O   0  0  0  0  0  0  0  0  0  0  0  0
    1.9492    7.3529   -1.4920 C   0  0  0  0  0  0  0  0  0  0  0  0
    1.1747    6.0948   -0.4158 S   0  0  0  0  0  0  0  0  0  0  0  0
    0.8284    4.9059   -1.7636 C   0  0  0  0  0  0  0  0  0  0  0  0
   -8.7071    5.7303    1.7843 H   0  0  0  0  0  0  0  0  0  0  0  0
   -9.4868    4.9465    3.2045 H   0  0  0  0  0  0  0  0  0  0  0  0
   -9.8261    4.3195    1.5501 H   0  0  0  0  0  0  0  0  0  0  0  0
   -6.3676    2.7128    1.3116 H   0  0  0  0  0  0  0  0  0  0  0  0
   -8.2034    4.5856   -0.2572 H   0  0  0  0  0  0  0  0  0  0  0  0
   -5.8746    5.1082   -0.5775 H   0  0  0  0  0  0  0  0  0  0  0  0
   -6.5729    4.4516   -2.0639 H   0  0  0  0  0  0  0  0  0  0  0  0
   -3.9082    3.2855    0.9762 H   0  0  0  0  0  0  0  0  0  0  0  0
   -3.8157    4.7353   -0.0653 H   0  0  0  0  0  0  0  0  0  0  0  0
   -1.6945    5.2442   -0.8564 H   0  0  0  0  0  0  0  0  0  0  0  0
    1.2052    2.1912   -1.7039 H   0  0  0  0  0  0  0  0  0  0  0  0
   -2.7084    1.1101   -0.2753 H   0  0  0  0  0  0  0  0  0  0  0  0
    0.7341   -0.1134   -1.3084 H   0  0  0  0  0  0  0  0  0  0  0  0
   -0.8922   -0.3262   -2.0384 H   0  0  0  0  0  0  0  0  0  0  0  0
   -1.4219   -2.4054   -1.5437 H   0  0  0  0  0  0  0  0  0  0  0  0
   -0.0697   -3.0786   -0.5740 H   0  0  0  0  0  0  0  0  0  0  0  0
   -2.2204   -4.3651   -0.3941 H   0  0  0  0  0  0  0  0  0  0  0  0
   -3.5262   -1.8398   -0.1319 H   0  0  0  0  0  0  0  0  0  0  0  0
   -4.9223   -3.9640   -1.4109 H   0  0  0  0  0  0  0  0  0  0  0  0
   -6.0268   -5.9114    0.7208 H   0  0  0  0  0  0  0  0  0  0  0  0
   -5.9976   -6.1469   -1.0671 H   0  0  0  0  0  0  0  0  0  0  0  0
   -4.4608   -6.0986   -0.1537 H   0  0  0  0  0  0  0  0  0  0  0  0
   -6.7625   -2.4572   -0.4339 H   0  0  0  0  0  0  0  0  0  0  0  0
   -8.4902   -5.5830    0.7747 H   0  0  0  0  0  0  0  0  0  0  0  0
   -9.5792   -3.9020    2.3559 H   0  0  0  0  0  0  0  0  0  0  0  0
   -7.8026   -3.7387    2.1201 H   0  0  0  0  0  0  0  0  0  0  0  0
   -8.9095   -2.5966    1.3069 H   0  0  0  0  0  0  0  0  0  0  0  0
  -10.6034   -5.7691   -0.0213 H   0  0  0  0  0  0  0  0  0  0  0  0
   -9.7460   -2.3138   -1.0059 H   0  0  0  0  0  0  0  0  0  0  0  0
  -11.2267   -1.0193   -2.4386 H   0  0  0  0  0  0  0  0  0  0  0  0
  -11.6268   -2.7380   -2.7337 H   0  0  0  0  0  0  0  0  0  0  0  0
  -12.6961   -1.7286   -1.6742 H   0  0  0  0  0  0  0  0  0  0  0  0
  -11.6595   -1.7912    1.1926 H   0  0  0  0  0  0  0  0  0  0  0  0
   -9.5518    0.0163   -1.3705 H   0  0  0  0  0  0  0  0  0  0  0  0
  -11.2389    2.3817   -0.3185 H   0  0  0  0  0  0  0  0  0  0  0  0
  -11.9979    0.9551   -1.1247 H   0  0  0  0  0  0  0  0  0  0  0  0
  -10.8383    1.9662   -2.0312 H   0  0  0  0  0  0  0  0  0  0  0  0
   -8.1875    1.1453    0.6983 H   0  0  0  0  0  0  0  0  0  0  0  0
   -0.6244   -5.2594    2.8444 H   0  0  0  0  0  0  0  0  0  0  0  0
   -0.5130   -5.6343   -0.1813 H   0  0  0  0  0  0  0  0  0  0  0  0
    0.1401   -7.5566    2.1170 H   0  0  0  0  0  0  0  0  0  0  0  0
    0.1799   -7.9338    0.3456 H   0  0  0  0  0  0  0  0  0  0  0  0
   -1.3894   -7.5425    1.1401 H   0  0  0  0  0  0  0  0  0  0  0  0
    1.7734   -6.5909   -0.9701 H   0  0  0  0  0  0  0  0  0  0  0  0
    3.9896   -5.1037    0.4238 H   0  0  0  0  0  0  0  0  0  0  0  0
    4.2876   -3.5671   -1.5708 H   0  0  0  0  0  0  0  0  0  0  0  0
    2.7108   -4.1676   -2.2054 H   0  0  0  0  0  0  0  0  0  0  0  0
    2.7697   -3.2830   -0.6376 H   0  0  0  0  0  0  0  0  0  0  0  0
    6.2017   -7.2816   -1.6492 H   0  0  0  0  0  0  0  0  0  0  0  0
    7.1987   -7.2266    0.3942 H   0  0  0  0  0  0  0  0  0  0  0  0
    5.7676   -7.4816    2.4316 H   0  0  0  0  0  0  0  0  0  0  0  0
    4.3020   -7.1958    1.4249 H   0  0  0  0  0  0  0  0  0  0  0  0
    5.3577   -8.6080    1.1028 H   0  0  0  0  0  0  0  0  0  0  0  0
    6.3893   -3.6708   -0.4934 H   0  0  0  0  0  0  0  0  0  0  0  0
    8.6023   -3.2076   -0.7892 H   0  0  0  0  0  0  0  0  0  0  0  0
    9.1313   -6.1956   -0.3619 H   0  0  0  0  0  0  0  0  0  0  0  0
    8.6968   -5.3858   -1.9114 H   0  0  0  0  0  0  0  0  0  0  0  0
   10.2427   -4.9809   -1.0911 H   0  0  0  0  0  0  0  0  0  0  0  0
    9.4687   -2.4973    2.7660 H   0  0  0  0  0  0  0  0  0  0  0  0
    8.6278   -1.2580    0.2558 H   0  0  0  0  0  0  0  0  0  0  0  0
   10.9990   -0.4903   -0.4353 H   0  0  0  0  0  0  0  0  0  0  0  0
   11.6457   -1.7215    0.7137 H   0  0  0  0  0  0  0  0  0  0  0  0
   10.6739   -2.2315   -0.7082 H   0  0  0  0  0  0  0  0  0  0  0  0
    8.5303    1.5186    2.5854 H   0  0  0  0  0  0  0  0  0  0  0  0
    7.1244    0.4457    0.3942 H   0  0  0  0  0  0  0  0  0  0  0  0
    9.5961    2.0485   -0.5244 H   0  0  0  0  0  0  0  0  0  0  0  0
    8.9550    0.4924   -1.1729 H   0  0  0  0  0  0  0  0  0  0  0  0
    8.0894    2.0027   -1.5182 H   0  0  0  0  0  0  0  0  0  0  0  0
    8.2182    3.9302    1.9323 H   0  0  0  0  0  0  0  0  0  0  0  0
    7.4057    4.4154   -0.9779 H   0  0  0  0  0  0  0  0  0  0  0  0
    9.6794    5.6373    0.7111 H   0  0  0  0  0  0  0  0  0  0  0  0
    9.2694    6.0778   -0.9913 H   0  0  0  0  0  0  0  0  0  0  0  0
    9.8360    4.4204   -0.6080 H   0  0  0  0  0  0  0  0  0  0  0  0
    5.5551    5.8087   -1.2194 H   0  0  0  0  0  0  0  0  0  0  0  0
    4.8087    7.9469   -1.4415 H   0  0  0  0  0  0  0  0  0  0  0  0
    7.0521    8.8948    0.4150 H   0  0  0  0  0  0  0  0  0  0  0  0
    7.1832    8.6390   -1.3645 H   0  0  0  0  0  0  0  0  0  0  0  0
    6.0484    9.8823   -0.7154 H   0  0  0  0  0  0  0  0  0  0  0  0
    2.4671    8.4330    1.4101 H   0  0  0  0  0  0  0  0  0  0  0  0
    3.0438    9.2159   -1.4025 H   0  0  0  0  0  0  0  0  0  0  0  0
   -0.6827    9.8802    0.5505 H   0  0  0  0  0  0  0  0  0  0  0  0
    0.0649    8.2836    0.8567 H   0  0  0  0  0  0  0  0  0  0  0  0
    2.8501    6.8920   -1.9510 H   0  0  0  0  0  0  0  0  0  0  0  0
    1.2604    7.6138   -2.3277 H   0  0  0  0  0  0  0  0  0  0  0  0
    1.7869    4.4614   -2.1058 H   0  0  0  0  0  0  0  0  0  0  0  0
    0.3565    5.4268   -2.6251 H   0  0  0  0  0  0  0  0  0  0  0  0
  1  2  1  0
  2  3  2  0
  2  4  1  0
  4  5  1  0
  5  6  1  0
  6  7  1  0
  7  8  1  0
  8  9  1  0
  9 10  2  0
 10 11  1  0
 11 12  2  0
 12 13  1  0
 13 14  2  0
 13 15  1  0
 15 16  1  0
 16 17  1  0
 17 18  1  0
 18 19  1  0
 19 20  1  0
 20 21  2  0
 20 22  1  0
 22 23  1  0
 22 24  1  0
 24 25  1  0
 25 26  2  0
 25 27  1  0
 27 28  1  0
 27 29  1  0
 29 30  1  0
 30 31  2  0
 30 32  1  0
 32 33  1  0
 32 34  1  0
 34 35  1  0
 35 36  2  0
 35 37  1  0
 37 38  1  0
 37 39  1  0
 39 40  1  0
 40 41  2  0
 18 42  1  0
 42 43  2  0
 42 44  1  0
 44 45  1  0
 45 46  1  0
 45 47  1  0
 47 48  2  0
 47 49  1  0
 49 50  1  0
 50 51  1  0
 50 52  1  0
 52 53  2  0
 52 54  1  0
 54 55  1  0
 55 56  1  0
 55 57  1  0
 57 58  2  0
 57 59  1  0
 59 60  1  0
 60 61  1  0
 60 62  1  0
 62 63  2  0
 62 64  1  0
 64 65  1  0
 65 66  1  0
 65 67  1  0
 67 68  2  0
 67 69  1  0
 69 70  1  0
 70 71  1  0
 70 72  1  0
 72 73  2  0
 72 74  1  0
 74 75  1  0
 75 76  1  0
 75 77  1  0
 77 78  2  0
 77 79  1  0
 79 80  1  0
 80 81  1  0
 80 82  1  0
 82 83  2  0
 82 84  1  0
 84 85  1  0
 85 86  1  0
 86 87  1  0
 86 88  2  0
 85 89  1  0
 89 90  1  0
 90 91  1  0
 40  5  1  0
 14  9  1  0
 91 11  1  0
  1 92  1  0
  1 93  1  0
  1 94  1  0
  4 95  1  0
  5 96  1  1
  6 97  1  0
  6 98  1  0
  8 99  1  0
  8100  1  0
 10101  1  0
 12102  1  0
 14103  1  0
 15104  1  0
 15105  1  0
 17106  1  0
 17107  1  0
 18108  1  6
 19109  1  0
 22110  1  6
 23111  1  0
 23112  1  0
 23113  1  0
 24114  1  0
 27115  1  1
 28116  1  0
 28117  1  0
 28118  1  0
 29119  1  0
 32120  1  6
 33121  1  0
 33122  1  0
 33123  1  0
 34124  1  0
 37125  1  6
 38126  1  0
 38127  1  0
 38128  1  0
 39129  1  0
 44130  1  0
 45131  1  6
 46132  1  0
 46133  1  0
 46134  1  0
 49135  1  0
 50136  1  1
 51137  1  0
 51138  1  0
 51139  1  0
 54140  1  0
 55141  1  6
 56142  1  0
 56143  1  0
 56144  1  0
 59145  1  0
 60146  1  6
 61147  1  0
 61148  1  0
 61149  1  0
 64150  1  0
 65151  1  6
 66152  1  0
 66153  1  0
 66154  1  0
 69155  1  0
 70156  1  6
 71157  1  0
 71158  1  0
 71159  1  0
 74160  1  0
 75161  1  6
 76162  1  0
 76163  1  0
 76164  1  0
 79165  1  0
 80166  1  6
 81167  1  0
 81168  1  0
 81169  1  0
 84170  1  0
 85171  1  6
 87172  1  0
 87173  1  0
 89174  1  0
 89175  1  0
 91176  1  0
 91177  1  0
M  END
