
     RDKit          3D

167169  0  0  0  0  0  0  0  0999 V2000
  -10.1945    7.0313    0.1484 C   0  0  0  0  0  0  0  0  0  0  0  0
   -9.6044    5.7092   -0.2469 C   0  0  0  0  0  0  0  0  0  0  0  0
  -10.1209    5.0625   -1.1915 O   0  0  0  0  0  0  0  0  0  0  0  0
   -8.5048    5.1675    0.4982 N   0  0  0  0  0  0  0  0  0  0  0  0
   -7.7631    3.9830    0.0518 C   0  0  1  0  0  0  0  0  0  0  0  0
   -6.2780    4.1165    0.4314 C   0  0  0  0  0  0  0  0  0  0  0  0
   -5.5160    5.5597   -0.3942 S   0  0  0  0  0  0  0  0  0  0  0  0
   -5.0581    4.7140   -1.9533 C   0  0  0  0  0  0  0  0  0  0  0  0
   -3.8353    3.8682   -1.7592 C   0  0  0  0  0  0  0  0  0  0  0  0
   -2.5939    4.4591   -1.4904 C   0  0  0  0  0  0  0  0  0  0  0  0
   -1.4487    3.6683   -1.3169 C   0  0  0  0  0  0  0  0  0  0  0  0
   -1.5604    2.2704   -1.3861 C   0  0  0  0  0  0  0  0  0  0  0  0
   -2.8047    1.6646   -1.6211 C   0  0  0  0  0  0  0  0  0  0  0  0
   -3.9337    2.4681   -1.8259 C   0  0  0  0  0  0  0  0  0  0  0  0
   -2.9451    0.1760   -1.4978 C   0  0  0  0  0  0  0  0  0  0  0  0
   -3.1617   -0.2130    0.2784 S   0  0  0  0  0  0  0  0  0  0  0  0
   -1.6104   -1.1638    0.4933 C   0  0  0  0  0  0  0  0  0  0  0  0
   -1.8593   -2.6489    0.1809 C   0  0  2  0  0  0  0  0  0  0  0  0
   -2.5423   -3.2975    1.3137 N   0  0  0  0  0  0  0  0  0  0  0  0
   -3.1824   -4.5784    1.2494 C   0  0  0  0  0  0  0  0  0  0  0  0
   -3.1406   -5.3351    2.2621 O   0  0  0  0  0  0  0  0  0  0  0  0
   -3.9423   -5.0429    0.0316 C   0  0  1  0  0  0  0  0  0  0  0  0
   -3.2976   -6.2995   -0.5584 C   0  0  0  0  0  0  0  0  0  0  0  0
   -5.3289   -5.3260    0.4058 N   0  0  0  0  0  0  0  0  0  0  0  0
   -6.4392   -4.8363   -0.3625 C   0  0  0  0  0  0  0  0  0  0  0  0
   -7.0404   -5.6272   -1.1390 O   0  0  0  0  0  0  0  0  0  0  0  0
   -7.0101   -3.4578   -0.1006 C   0  0  1  0  0  0  0  0  0  0  0  0
   -5.9207   -2.3910    0.0083 C   0  0  0  0  0  0  0  0  0  0  0  0
   -7.9401   -3.0762   -1.1735 N   0  0  0  0  0  0  0  0  0  0  0  0
   -9.3142   -2.6750   -1.0212 C   0  0  0  0  0  0  0  0  0  0  0  0
   -9.9792   -2.4426   -2.0691 O   0  0  0  0  0  0  0  0  0  0  0  0
  -10.0398   -2.5753    0.3053 C   0  0  1  0  0  0  0  0  0  0  0  0
  -10.4165   -3.9706    0.8081 C   0  0  0  0  0  0  0  0  0  0  0  0
   -9.2585   -1.8397    1.3153 N   0  0  0  0  0  0  0  0  0  0  0  0
   -8.9201   -0.4389    1.2380 C   0  0  0  0  0  0  0  0  0  0  0  0
   -8.1033    0.0217    2.0830 O   0  0  0  0  0  0  0  0  0  0  0  0
   -9.5374    0.4971    0.2244 C   0  0  1  0  0  0  0  0  0  0  0  0
  -10.8878    1.0394    0.7154 C   0  0  0  0  0  0  0  0  0  0  0  0
   -8.6104    1.5805   -0.1307 N   0  0  0  0  0  0  0  0  0  0  0  0
   -8.3626    2.7505    0.6667 C   0  0  0  0  0  0  0  0  0  0  0  0
   -8.6621    2.7627    1.8994 O   0  0  0  0  0  0  0  0  0  0  0  0
   -0.5694   -3.3517   -0.1731 C   0  0  0  0  0  0  0  0  0  0  0  0
   -0.0075   -3.0546   -1.2624 O   0  0  0  0  0  0  0  0  0  0  0  0
   -0.0011   -4.3593    0.6750 N   0  0  0  0  0  0  0  0  0  0  0  0
    0.8419   -5.4324    0.1278 C   0  0  2  0  0  0  0  0  0  0  0  0
    0.7228   -6.6878    1.0083 C   0  0  0  0  0  0  0  0  0  0  0  0
    2.2743   -4.9656   -0.0157 C   0  0  0  0  0  0  0  0  0  0  0  0
    2.5547   -4.0641   -0.8472 O   0  0  0  0  0  0  0  0  0  0  0  0
    3.3219   -5.5288    0.7718 N   0  0  0  0  0  0  0  0  0  0  0  0
    4.2727   -6.4727    0.1759 C   0  0  2  0  0  0  0  0  0  0  0  0
    4.8628   -7.3708    1.2591 C   0  0  0  0  0  0  0  0  0  0  0  0
    5.3616   -5.7307   -0.5427 C   0  0  0  0  0  0  0  0  0  0  0  0
    5.6021   -6.0128   -1.7529 O   0  0  0  0  0  0  0  0  0  0  0  0
    6.1373   -4.7368    0.1443 N   0  0  0  0  0  0  0  0  0  0  0  0
    7.6101   -4.6987    0.1701 C   0  0  2  0  0  0  0  0  0  0  0  0
    8.2349   -6.0686   -0.1470 C   0  0  0  0  0  0  0  0  0  0  0  0
    8.0503   -4.2875    1.5522 C   0  0  0  0  0  0  0  0  0  0  0  0
    7.5462   -4.8998    2.5399 O   0  0  0  0  0  0  0  0  0  0  0  0
    8.9976   -3.2317    1.8158 N   0  0  0  0  0  0  0  0  0  0  0  0
    9.6372   -2.3754    0.8132 C   0  0  2  0  0  0  0  0  0  0  0  0
   10.7810   -3.1373    0.1310 C   0  0  0  0  0  0  0  0  0  0  0  0
   10.1768   -1.1239    1.4838 C   0  0  0  0  0  0  0  0  0  0  0  0
   11.0327   -1.2565    2.3972 O   0  0  0  0  0  0  0  0  0  0  0  0
    9.7188    0.2019    1.1600 N   0  0  0  0  0  0  0  0  0  0  0  0
    9.1133    0.6027   -0.1197 C   0  0  2  0  0  0  0  0  0  0  0  0
   10.1487    0.5368   -1.2434 C   0  0  0  0  0  0  0  0  0  0  0  0
    8.5366    1.9965   -0.0311 C   0  0  0  0  0  0  0  0  0  0  0  0
    7.2931    2.1558   -0.2044 O   0  0  0  0  0  0  0  0  0  0  0  0
    9.3734    3.1314    0.2521 N   0  0  0  0  0  0  0  0  0  0  0  0
    8.9840    4.5013   -0.1245 C   0  0  2  0  0  0  0  0  0  0  0  0
   10.1047    5.4791    0.2219 C   0  0  0  0  0  0  0  0  0  0  0  0
    7.7196    4.9302    0.5705 C   0  0  0  0  0  0  0  0  0  0  0  0
    7.5401    4.6273    1.7779 O   0  0  0  0  0  0  0  0  0  0  0  0
    6.7394    5.7112   -0.1468 N   0  0  0  0  0  0  0  0  0  0  0  0
    5.4290    6.1187    0.3873 C   0  0  2  0  0  0  0  0  0  0  0  0
    5.6019    7.0391    1.6037 C   0  0  0  0  0  0  0  0  0  0  0  0
    4.5563    4.9208    0.6986 C   0  0  0  0  0  0  0  0  0  0  0  0
    4.9817    3.7584    0.4373 O   0  0  0  0  0  0  0  0  0  0  0  0
    3.2568    5.0464    1.3120 N   0  0  0  0  0  0  0  0  0  0  0  0
    2.2366    6.0631    0.9975 C   0  0  1  0  0  0  0  0  0  0  0  0
    2.3470    6.5875   -0.4103 C   0  0  0  0  0  0  0  0  0  0  0  0
    2.3359    7.9946   -0.6484 N   0  0  0  0  0  0  0  0  0  0  0  0
    2.5051    5.7938   -1.3826 O   0  0  0  0  0  0  0  0  0  0  0  0
    0.8172    5.5118    1.2626 C   0  0  0  0  0  0  0  0  0  0  0  0
    0.5361    3.8270    0.5701 S   0  0  0  0  0  0  0  0  0  0  0  0
   -0.1101    4.3095   -1.0725 C   0  0  0  0  0  0  0  0  0  0  0  0
  -11.2571    6.8802    0.4316 H   0  0  0  0  0  0  0  0  0  0  0  0
   -9.6478    7.4767    1.0013 H   0  0  0  0  0  0  0  0  0  0  0  0
  -10.1393    7.7388   -0.7116 H   0  0  0  0  0  0  0  0  0  0  0  0
   -8.3505    5.5200    1.4681 H   0  0  0  0  0  0  0  0  0  0  0  0
   -7.8237    3.8936   -1.0577 H   0  0  0  0  0  0  0  0  0  0  0  0
   -5.7343    3.1775    0.1840 H   0  0  0  0  0  0  0  0  0  0  0  0
   -6.1918    4.2585    1.5331 H   0  0  0  0  0  0  0  0  0  0  0  0
   -4.8462    5.4847   -2.7259 H   0  0  0  0  0  0  0  0  0  0  0  0
   -5.9166    4.1144   -2.3305 H   0  0  0  0  0  0  0  0  0  0  0  0
   -2.5253    5.5375   -1.4233 H   0  0  0  0  0  0  0  0  0  0  0  0
   -0.6781    1.6584   -1.2297 H   0  0  0  0  0  0  0  0  0  0  0  0
   -4.8892    2.0004   -2.0143 H   0  0  0  0  0  0  0  0  0  0  0  0
   -3.8371   -0.1835   -2.0573 H   0  0  0  0  0  0  0  0  0  0  0  0
   -2.0612   -0.3294   -1.9460 H   0  0  0  0  0  0  0  0  0  0  0  0
   -0.8024   -0.7266   -0.1353 H   0  0  0  0  0  0  0  0  0  0  0  0
   -1.2812   -1.0402    1.5539 H   0  0  0  0  0  0  0  0  0  0  0  0
   -2.5046   -2.6900   -0.7220 H   0  0  0  0  0  0  0  0  0  0  0  0
   -2.3255   -2.9497    2.2743 H   0  0  0  0  0  0  0  0  0  0  0  0
   -3.9361   -4.2689   -0.7608 H   0  0  0  0  0  0  0  0  0  0  0  0
   -3.3926   -7.1597    0.1409 H   0  0  0  0  0  0  0  0  0  0  0  0
   -3.8068   -6.5629   -1.5103 H   0  0  0  0  0  0  0  0  0  0  0  0
   -2.2225   -6.1186   -0.7661 H   0  0  0  0  0  0  0  0  0  0  0  0
   -5.5226   -6.1058    1.0712 H   0  0  0  0  0  0  0  0  0  0  0  0
   -7.5204   -3.5199    0.8744 H   0  0  0  0  0  0  0  0  0  0  0  0
   -5.2686   -2.5848    0.8826 H   0  0  0  0  0  0  0  0  0  0  0  0
   -5.3137   -2.3501   -0.9167 H   0  0  0  0  0  0  0  0  0  0  0  0
   -6.3891   -1.3939    0.1537 H   0  0  0  0  0  0  0  0  0  0  0  0
   -7.5624   -3.1062   -2.1537 H   0  0  0  0  0  0  0  0  0  0  0  0
  -10.9921   -2.0365    0.1498 H   0  0  0  0  0  0  0  0  0  0  0  0
   -9.5222   -4.5818    1.0453 H   0  0  0  0  0  0  0  0  0  0  0  0
  -11.0319   -3.8816    1.7251 H   0  0  0  0  0  0  0  0  0  0  0  0
  -11.0129   -4.5023    0.0330 H   0  0  0  0  0  0  0  0  0  0  0  0
   -8.9831   -2.3409    2.1865 H   0  0  0  0  0  0  0  0  0  0  0  0
   -9.7412   -0.0705   -0.7040 H   0  0  0  0  0  0  0  0  0  0  0  0
  -11.2693    1.8045    0.0035 H   0  0  0  0  0  0  0  0  0  0  0  0
  -11.6302    0.2190    0.7727 H   0  0  0  0  0  0  0  0  0  0  0  0
  -10.8030    1.4877    1.7301 H   0  0  0  0  0  0  0  0  0  0  0  0
   -8.2319    1.5764   -1.1078 H   0  0  0  0  0  0  0  0  0  0  0  0
   -0.3336   -4.4346    1.6583 H   0  0  0  0  0  0  0  0  0  0  0  0
    0.4683   -5.7111   -0.8793 H   0  0  0  0  0  0  0  0  0  0  0  0
    1.3310   -7.5128    0.5841 H   0  0  0  0  0  0  0  0  0  0  0  0
    1.0627   -6.4820    2.0450 H   0  0  0  0  0  0  0  0  0  0  0  0
   -0.3328   -7.0216    1.0391 H   0  0  0  0  0  0  0  0  0  0  0  0
    3.5540   -5.0718    1.6869 H   0  0  0  0  0  0  0  0  0  0  0  0
    3.7235   -7.1245   -0.5426 H   0  0  0  0  0  0  0  0  0  0  0  0
    4.0526   -7.9299    1.7758 H   0  0  0  0  0  0  0  0  0  0  0  0
    5.5608   -8.1056    0.7996 H   0  0  0  0  0  0  0  0  0  0  0  0
    5.4112   -6.7676    2.0131 H   0  0  0  0  0  0  0  0  0  0  0  0
    5.6143   -3.9688    0.6275 H   0  0  0  0  0  0  0  0  0  0  0  0
    7.9593   -3.9815   -0.6004 H   0  0  0  0  0  0  0  0  0  0  0  0
    8.0514   -6.3477   -1.2053 H   0  0  0  0  0  0  0  0  0  0  0  0
    7.8064   -6.8503    0.5173 H   0  0  0  0  0  0  0  0  0  0  0  0
    9.3360   -6.0359    0.0064 H   0  0  0  0  0  0  0  0  0  0  0  0
    9.2357   -3.0794    2.8259 H   0  0  0  0  0  0  0  0  0  0  0  0
    8.8923   -2.0948    0.0481 H   0  0  0  0  0  0  0  0  0  0  0  0
   11.4271   -2.4447   -0.4488 H   0  0  0  0  0  0  0  0  0  0  0  0
   10.3802   -3.8965   -0.5750 H   0  0  0  0  0  0  0  0  0  0  0  0
   11.4144   -3.6559    0.8872 H   0  0  0  0  0  0  0  0  0  0  0  0
    9.9209    0.9471    1.8598 H   0  0  0  0  0  0  0  0  0  0  0  0
    8.2772   -0.0818   -0.3709 H   0  0  0  0  0  0  0  0  0  0  0  0
    9.7285    0.9581   -2.1810 H   0  0  0  0  0  0  0  0  0  0  0  0
   10.4321   -0.5146   -1.4411 H   0  0  0  0  0  0  0  0  0  0  0  0
   11.0651    1.1063   -0.9759 H   0  0  0  0  0  0  0  0  0  0  0  0
   10.3778    2.9451    0.4563 H   0  0  0  0  0  0  0  0  0  0  0  0
    8.8329    4.5318   -1.2279 H   0  0  0  0  0  0  0  0  0  0  0  0
    9.8328    6.5099   -0.0957 H   0  0  0  0  0  0  0  0  0  0  0  0
   11.0416    5.1869   -0.3027 H   0  0  0  0  0  0  0  0  0  0  0  0
   10.2927    5.4773    1.3211 H   0  0  0  0  0  0  0  0  0  0  0  0
    6.9535    5.9877   -1.1280 H   0  0  0  0  0  0  0  0  0  0  0  0
    4.9277    6.7176   -0.4029 H   0  0  0  0  0  0  0  0  0  0  0  0
    6.0140    6.4922    2.4712 H   0  0  0  0  0  0  0  0  0  0  0  0
    6.2904    7.8703    1.3454 H   0  0  0  0  0  0  0  0  0  0  0  0
    4.6339    7.4883    1.8907 H   0  0  0  0  0  0  0  0  0  0  0  0
    2.9938    4.2826    1.9817 H   0  0  0  0  0  0  0  0  0  0  0  0
    2.3762    6.9111    1.6962 H   0  0  0  0  0  0  0  0  0  0  0  0
    2.2128    8.6702    0.1414 H   0  0  0  0  0  0  0  0  0  0  0  0
    2.4611    8.3763   -1.6181 H   0  0  0  0  0  0  0  0  0  0  0  0
    0.6897    5.4171    2.3618 H   0  0  0  0  0  0  0  0  0  0  0  0
    0.0315    6.2242    0.9244 H   0  0  0  0  0  0  0  0  0  0  0  0
   -0.1735    5.4130   -1.1861 H   0  0  0  0  0  0  0  0  0  0  0  0
    0.6004    3.9439   -1.8415 H   0  0  0  0  0  0  0  0  0  0  0  0
  1  2  1  0
  2  3  2  0
  2  4  1  0
  4  5  1  0
  5  6  1  0
  6  7  1  0
  7  8  1  0
  8  9  1  0
  9 10  2  0
 10 11  1  0
 11 12  2  0
 12 13  1  0
 13 14  2  0
 13 15  1  0
 15 16  1  0
 16 17  1  0
 17 18  1  0
 18 19  1  0
 19 20  1  0
 20 21  2  0
 20 22  1  0
 22 23  1  0
 22 24  1  0
 24 25  1  0
 25 26  2  0
 25 27  1  0
 27 28  1  0
 27 29  1  0
 29 30  1  0
 30 31  2  0
 30 32  1  0
 32 33  1  0
 32 34  1  0
 34 35  1  0
 35 36  2  0
 35 37  1  0
 37 38  1  0
 37 39  1  0
 39 40  1  0
 40 41  2  0
 18 42  1  0
 42 43  2  0
 42 44  1  0
 44 45  1  0
 45 46  1  0
 45 47  1  0
 47 48  2  0
 47 49  1  0
 49 50  1  0
 50 51  1  0
 50 52  1  0
 52 53  2  0
 52 54  1  0
 54 55  1  0
 55 56  1  0
 55 57  1  0
 57 58  2  0
 57 59  1  0
 59 60  1  0
 60 61  1  0
 60 62  1  0
 62 63  2  0
 62 64  1  0
 64 65  1  0
 65 66  1  0
 65 67  1  0
 67 68  2  0
 67 69  1  0
 69 70  1  0
 70 71  1  0
 70 72  1  0
 72 73  2  0
 72 74  1  0
 74 75  1  0
 75 76  1  0
 75 77  1  0
 77 78  2  0
 77 79  1  0
 79 80  1  0
 80 81  1  0
 81 82  1  0
 81 83  2  0
 80 84  1  0
 84 85  1  0
 85 86  1  0
 40  5  1  0
 14  9  1  0
 86 11  1  0
  1 87  1  0
  1 88  1  0
  1 89  1  0
  4 90  1  0
  5 91  1  6
  6 92  1  0
  6 93  1  0
  8 94  1  0
  8 95  1  0
 10 96  1  0
 12 97  1  0
 14 98  1  0
 15 99  1  0
 15100  1  0
 17101  1  0
 17102  1  0
 18103  1  6
 19104  1  0
 22105  1  6
 23106  1  0
 23107  1  0
 23108  1  0
 24109  1  0
 27110  1  1
 28111  1  0
 28112  1  0
 28113  1  0
 29114  1  0
 32115  1  6
 33116  1  0
 33117  1  0
 33118  1  0
 34119  1  0
 37120  1  6
 38121  1  0
 38122  1  0
 38123  1  0
 39124  1  0
 44125  1  0
 45126  1  6
 46127  1  0
 46128  1  0
 46129  1  0
 49130  1  0
 50131  1  6
 51132  1  0
 51133  1  0
 51134  1  0
 54135  1  0
 55136  1  6
 56137  1  0
 56138  1  0
 56139  1  0
 59140  1  0
 60141  1  6
 61142  1  0
 61143  1  0
 61144  1  0
 64145  1  0
 65146  1  6
 66147  1  0
 66148  1  0
 66149  1  0
 69150  1  0
 70151  1  6
 71152  1  0
 71153  1  0
 71154  1  0
 74155  1  0
 75156  1  6
 76157  1  0
 76158  1  0
 76159  1  0
 79160  1  0
 80161  1  1
 82162  1  0
 82163  1  0
 84164  1  0
 84165  1  0
 86166  1  0
 86167  1  0
M  END
