
     RDKit          3D

167169  0  0  0  0  0  0  0  0999 V2000
   -8.8618    7.3960    0.9408 C   0  0  0  0  0  0  0  0  0  0  0  0
   -8.2424    6.0357    0.8804 C   0  0  0  0  0  0  0  0  0  0  0  0
   -8.1249    5.3782    1.9500 O   0  0  0  0  0  0  0  0  0  0  0  0
   -7.8020    5.4874   -0.3742 N   0  0  0  0  0  0  0  0  0  0  0  0
   -7.0946    4.2051   -0.5172 C   0  0  1  0  0  0  0  0  0  0  0  0
   -5.7606    4.2152    0.2551 C   0  0  0  0  0  0  0  0  0  0  0  0
   -4.8064    5.7490   -0.0628 S   0  0  0  0  0  0  0  0  0  0  0  0
   -3.9040    5.1729   -1.5499 C   0  0  0  0  0  0  0  0  0  0  0  0
   -2.8369    4.1800   -1.1879 C   0  0  0  0  0  0  0  0  0  0  0  0
   -1.8505    4.5086   -0.2466 C   0  0  0  0  0  0  0  0  0  0  0  0
   -0.8938    3.5634    0.1593 C   0  0  0  0  0  0  0  0  0  0  0  0
   -0.9395    2.2756   -0.3975 C   0  0  0  0  0  0  0  0  0  0  0  0
   -1.8917    1.9448   -1.3696 C   0  0  0  0  0  0  0  0  0  0  0  0
   -2.8377    2.9017   -1.7666 C   0  0  0  0  0  0  0  0  0  0  0  0
   -1.9732    0.5457   -1.8978 C   0  0  0  0  0  0  0  0  0  0  0  0
   -3.3212   -0.3637   -1.0623 S   0  0  0  0  0  0  0  0  0  0  0  0
   -2.3456   -1.0148    0.3473 C   0  0  0  0  0  0  0  0  0  0  0  0
   -1.5357   -2.2628   -0.0619 C   0  0  2  0  0  0  0  0  0  0  0  0
   -2.3938   -3.2462   -0.7303 N   0  0  0  0  0  0  0  0  0  0  0  0
   -3.4999   -3.8987   -0.0821 C   0  0  0  0  0  0  0  0  0  0  0  0
   -3.5198   -4.0276    1.1744 O   0  0  0  0  0  0  0  0  0  0  0  0
   -4.6484   -4.4137   -0.9041 C   0  0  1  0  0  0  0  0  0  0  0  0
   -4.5201   -5.9270   -1.1281 C   0  0  0  0  0  0  0  0  0  0  0  0
   -5.9227   -4.0285   -0.2873 N   0  0  0  0  0  0  0  0  0  0  0  0
   -6.7069   -4.8788    0.5545 C   0  0  0  0  0  0  0  0  0  0  0  0
   -6.1546   -5.5548    1.4644 O   0  0  0  0  0  0  0  0  0  0  0  0
   -8.1946   -4.9334    0.3638 C   0  0  1  0  0  0  0  0  0  0  0  0
   -8.6716   -6.3795    0.2262 C   0  0  0  0  0  0  0  0  0  0  0  0
   -8.8711   -4.2871    1.4936 N   0  0  0  0  0  0  0  0  0  0  0  0
   -9.6660   -3.0975    1.4037 C   0  0  0  0  0  0  0  0  0  0  0  0
  -10.5279   -2.8810    2.3024 O   0  0  0  0  0  0  0  0  0  0  0  0
   -9.5584   -2.1314    0.2386 C   0  0  1  0  0  0  0  0  0  0  0  0
  -10.5816   -2.5059   -0.8440 C   0  0  0  0  0  0  0  0  0  0  0  0
   -9.7867   -0.7475    0.6815 N   0  0  0  0  0  0  0  0  0  0  0  0
   -9.6140    0.3679   -0.2031 C   0  0  0  0  0  0  0  0  0  0  0  0
  -10.5864    1.1502   -0.3777 O   0  0  0  0  0  0  0  0  0  0  0  0
   -8.3044    0.6245   -0.9123 C   0  0  1  0  0  0  0  0  0  0  0  0
   -8.5232    0.9708   -2.3871 C   0  0  0  0  0  0  0  0  0  0  0  0
   -7.5268    1.6869   -0.2548 N   0  0  0  0  0  0  0  0  0  0  0  0
   -7.9861    3.0437   -0.1220 C   0  0  0  0  0  0  0  0  0  0  0  0
   -9.1515    3.2662    0.3042 O   0  0  0  0  0  0  0  0  0  0  0  0
   -0.8009   -2.9034    1.0907 C   0  0  0  0  0  0  0  0  0  0  0  0
   -1.1715   -2.6989    2.2752 O   0  0  0  0  0  0  0  0  0  0  0  0
    0.3310   -3.7492    0.8147 N   0  0  0  0  0  0  0  0  0  0  0  0
    0.6706   -4.9641    1.5748 C   0  0  2  0  0  0  0  0  0  0  0  0
    0.8217   -4.6977    3.0779 C   0  0  0  0  0  0  0  0  0  0  0  0
    1.9534   -5.5337    1.0230 C   0  0  0  0  0  0  0  0  0  0  0  0
    1.9595   -6.7025    0.5527 O   0  0  0  0  0  0  0  0  0  0  0  0
    3.1380   -4.7211    0.9900 N   0  0  0  0  0  0  0  0  0  0  0  0
    4.3252   -4.9773    0.1661 C   0  0  2  0  0  0  0  0  0  0  0  0
    3.9479   -5.2084   -1.3040 C   0  0  0  0  0  0  0  0  0  0  0  0
    5.1515   -6.1189    0.7174 C   0  0  0  0  0  0  0  0  0  0  0  0
    4.5843   -7.1899    1.0669 O   0  0  0  0  0  0  0  0  0  0  0  0
    6.5729   -6.0033    0.8982 N   0  0  0  0  0  0  0  0  0  0  0  0
    7.4586   -5.2792   -0.0185 C   0  0  2  0  0  0  0  0  0  0  0  0
    8.1902   -6.2742   -0.9279 C   0  0  0  0  0  0  0  0  0  0  0  0
    8.4483   -4.4594    0.7770 C   0  0  0  0  0  0  0  0  0  0  0  0
    9.1354   -5.0261    1.6710 O   0  0  0  0  0  0  0  0  0  0  0  0
    8.5872   -3.0404    0.5872 N   0  0  0  0  0  0  0  0  0  0  0  0
    8.5871   -2.3878   -0.7252 C   0  0  2  0  0  0  0  0  0  0  0  0
   10.0240   -2.2324   -1.2270 C   0  0  0  0  0  0  0  0  0  0  0  0
    7.8667   -1.0674   -0.6345 C   0  0  0  0  0  0  0  0  0  0  0  0
    6.8510   -0.8677   -1.3580 O   0  0  0  0  0  0  0  0  0  0  0  0
    8.2358   -0.0777    0.3331 N   0  0  0  0  0  0  0  0  0  0  0  0
    9.2797    0.9069    0.0533 C   0  0  2  0  0  0  0  0  0  0  0  0
    9.8984    1.4025    1.3633 C   0  0  0  0  0  0  0  0  0  0  0  0
    8.7184    2.0440   -0.7629 C   0  0  0  0  0  0  0  0  0  0  0  0
    9.1850    2.2581   -1.9113 O   0  0  0  0  0  0  0  0  0  0  0  0
    7.6149    2.8228   -0.2635 N   0  0  0  0  0  0  0  0  0  0  0  0
    6.7031    3.6180   -1.1013 C   0  0  2  0  0  0  0  0  0  0  0  0
    6.1477    2.7962   -2.2687 C   0  0  0  0  0  0  0  0  0  0  0  0
    7.3460    4.8964   -1.5867 C   0  0  0  0  0  0  0  0  0  0  0  0
    8.4141    4.8445   -2.2568 O   0  0  0  0  0  0  0  0  0  0  0  0
    6.7032    6.1698   -1.4074 N   0  0  0  0  0  0  0  0  0  0  0  0
    6.4910    6.8366   -0.1097 C   0  0  2  0  0  0  0  0  0  0  0  0
    7.4368    6.3216    0.9832 C   0  0  0  0  0  0  0  0  0  0  0  0
    5.0573    6.7532    0.3604 C   0  0  0  0  0  0  0  0  0  0  0  0
    4.6587    7.5747    1.2312 O   0  0  0  0  0  0  0  0  0  0  0  0
    4.1826    5.7060   -0.0738 N   0  0  0  0  0  0  0  0  0  0  0  0
    3.2782    5.0348    0.8659 C   0  0  2  0  0  0  0  0  0  0  0  0
    4.0574    4.5246    2.0552 C   0  0  0  0  0  0  0  0  0  0  0  0
    3.7666    5.0011    3.3690 N   0  0  0  0  0  0  0  0  0  0  0  0
    4.9556    3.6536    1.8971 O   0  0  0  0  0  0  0  0  0  0  0  0
    2.5311    3.8850    0.1653 C   0  0  0  0  0  0  0  0  0  0  0  0
    1.5490    2.8999    1.3607 S   0  0  0  0  0  0  0  0  0  0  0  0
    0.0238    3.9089    1.3063 C   0  0  0  0  0  0  0  0  0  0  0  0
   -8.2553    8.0455    1.6101 H   0  0  0  0  0  0  0  0  0  0  0  0
   -9.8967    7.3260    1.3355 H   0  0  0  0  0  0  0  0  0  0  0  0
   -8.8982    7.8613   -0.0676 H   0  0  0  0  0  0  0  0  0  0  0  0
   -7.9829    6.0350   -1.2456 H   0  0  0  0  0  0  0  0  0  0  0  0
   -6.8598    4.0589   -1.5950 H   0  0  0  0  0  0  0  0  0  0  0  0
   -5.9575    4.1598    1.3470 H   0  0  0  0  0  0  0  0  0  0  0  0
   -5.1502    3.3279   -0.0065 H   0  0  0  0  0  0  0  0  0  0  0  0
   -3.4228    6.0501   -2.0241 H   0  0  0  0  0  0  0  0  0  0  0  0
   -4.6201    4.7519   -2.2849 H   0  0  0  0  0  0  0  0  0  0  0  0
   -1.8490    5.4986    0.1991 H   0  0  0  0  0  0  0  0  0  0  0  0
   -0.2539    1.5127   -0.0658 H   0  0  0  0  0  0  0  0  0  0  0  0
   -3.5875    2.6412   -2.5021 H   0  0  0  0  0  0  0  0  0  0  0  0
   -2.2065    0.5837   -2.9810 H   0  0  0  0  0  0  0  0  0  0  0  0
   -0.9960    0.0331   -1.7984 H   0  0  0  0  0  0  0  0  0  0  0  0
   -1.6650   -0.2351    0.7476 H   0  0  0  0  0  0  0  0  0  0  0  0
   -3.0594   -1.2733    1.1542 H   0  0  0  0  0  0  0  0  0  0  0  0
   -0.7621   -1.9333   -0.7873 H   0  0  0  0  0  0  0  0  0  0  0  0
   -2.3574   -3.2747   -1.7729 H   0  0  0  0  0  0  0  0  0  0  0  0
   -4.6090   -3.9326   -1.9041 H   0  0  0  0  0  0  0  0  0  0  0  0
   -3.6351   -6.1393   -1.7615 H   0  0  0  0  0  0  0  0  0  0  0  0
   -5.4228   -6.2998   -1.6582 H   0  0  0  0  0  0  0  0  0  0  0  0
   -4.4045   -6.4664   -0.1661 H   0  0  0  0  0  0  0  0  0  0  0  0
   -6.2390   -3.0354   -0.4065 H   0  0  0  0  0  0  0  0  0  0  0  0
   -8.4397   -4.4312   -0.5902 H   0  0  0  0  0  0  0  0  0  0  0  0
   -9.7343   -6.3962   -0.1038 H   0  0  0  0  0  0  0  0  0  0  0  0
   -8.0668   -6.9228   -0.5350 H   0  0  0  0  0  0  0  0  0  0  0  0
   -8.5940   -6.9188    1.1966 H   0  0  0  0  0  0  0  0  0  0  0  0
   -8.8530   -4.7797    2.4180 H   0  0  0  0  0  0  0  0  0  0  0  0
   -8.5401   -2.2141   -0.1873 H   0  0  0  0  0  0  0  0  0  0  0  0
  -11.6098   -2.2945   -0.4872 H   0  0  0  0  0  0  0  0  0  0  0  0
  -10.3918   -1.9142   -1.7623 H   0  0  0  0  0  0  0  0  0  0  0  0
  -10.5178   -3.5819   -1.1087 H   0  0  0  0  0  0  0  0  0  0  0  0
  -10.4609   -0.5911    1.4648 H   0  0  0  0  0  0  0  0  0  0  0  0
   -7.6909   -0.3005   -0.8873 H   0  0  0  0  0  0  0  0  0  0  0  0
   -9.0942    1.9169   -2.4890 H   0  0  0  0  0  0  0  0  0  0  0  0
   -9.0798    0.1526   -2.8926 H   0  0  0  0  0  0  0  0  0  0  0  0
   -7.5429    1.0895   -2.8933 H   0  0  0  0  0  0  0  0  0  0  0  0
   -6.5104    1.4951   -0.1010 H   0  0  0  0  0  0  0  0  0  0  0  0
    0.7460   -3.6518   -0.1398 H   0  0  0  0  0  0  0  0  0  0  0  0
   -0.1505   -5.7054    1.4268 H   0  0  0  0  0  0  0  0  0  0  0  0
    1.4805   -3.8207    3.2591 H   0  0  0  0  0  0  0  0  0  0  0  0
   -0.1678   -4.5176    3.5459 H   0  0  0  0  0  0  0  0  0  0  0  0
    1.2535   -5.5901    3.5820 H   0  0  0  0  0  0  0  0  0  0  0  0
    3.1170   -3.8045    1.4968 H   0  0  0  0  0  0  0  0  0  0  0  0
    4.9411   -4.0514    0.1932 H   0  0  0  0  0  0  0  0  0  0  0  0
    4.8482   -5.1562   -1.9526 H   0  0  0  0  0  0  0  0  0  0  0  0
    3.4613   -6.1934   -1.4552 H   0  0  0  0  0  0  0  0  0  0  0  0
    3.2505   -4.4102   -1.6383 H   0  0  0  0  0  0  0  0  0  0  0  0
    7.0187   -6.6751    1.5685 H   0  0  0  0  0  0  0  0  0  0  0  0
    6.8660   -4.6158   -0.6727 H   0  0  0  0  0  0  0  0  0  0  0  0
    8.9989   -5.7681   -1.4928 H   0  0  0  0  0  0  0  0  0  0  0  0
    8.6116   -7.1060   -0.3281 H   0  0  0  0  0  0  0  0  0  0  0  0
    7.4650   -6.6980   -1.6523 H   0  0  0  0  0  0  0  0  0  0  0  0
    8.9886   -2.5010    1.3858 H   0  0  0  0  0  0  0  0  0  0  0  0
    8.0597   -3.0141   -1.4776 H   0  0  0  0  0  0  0  0  0  0  0  0
   10.4438   -3.2350   -1.4731 H   0  0  0  0  0  0  0  0  0  0  0  0
   10.6711   -1.7752   -0.4516 H   0  0  0  0  0  0  0  0  0  0  0  0
   10.0489   -1.6105   -2.1486 H   0  0  0  0  0  0  0  0  0  0  0  0
    7.4906    0.1926    1.0162 H   0  0  0  0  0  0  0  0  0  0  0  0
   10.0956    0.4323   -0.5316 H   0  0  0  0  0  0  0  0  0  0  0  0
   10.7017    2.1435    1.1586 H   0  0  0  0  0  0  0  0  0  0  0  0
   10.3502    0.5477    1.9118 H   0  0  0  0  0  0  0  0  0  0  0  0
    9.1308    1.8726    2.0183 H   0  0  0  0  0  0  0  0  0  0  0  0
    7.3278    2.6735    0.7276 H   0  0  0  0  0  0  0  0  0  0  0  0
    5.8337    3.8831   -0.4753 H   0  0  0  0  0  0  0  0  0  0  0  0
    6.9333    2.5723   -3.0210 H   0  0  0  0  0  0  0  0  0  0  0  0
    5.7222    1.8388   -1.8986 H   0  0  0  0  0  0  0  0  0  0  0  0
    5.3367    3.3607   -2.7787 H   0  0  0  0  0  0  0  0  0  0  0  0
    6.7385    6.8066   -2.2383 H   0  0  0  0  0  0  0  0  0  0  0  0
    6.7203    7.9168   -0.2518 H   0  0  0  0  0  0  0  0  0  0  0  0
    7.3144    6.9246    1.9103 H   0  0  0  0  0  0  0  0  0  0  0  0
    7.2194    5.2626    1.2287 H   0  0  0  0  0  0  0  0  0  0  0  0
    8.4976    6.4116    0.6514 H   0  0  0  0  0  0  0  0  0  0  0  0
    4.2090    5.4159   -1.0781 H   0  0  0  0  0  0  0  0  0  0  0  0
    2.5231    5.7775    1.2085 H   0  0  0  0  0  0  0  0  0  0  0  0
    2.9482    5.6151    3.5503 H   0  0  0  0  0  0  0  0  0  0  0  0
    4.3382    4.6719    4.1798 H   0  0  0  0  0  0  0  0  0  0  0  0
    1.8768    4.2810   -0.6426 H   0  0  0  0  0  0  0  0  0  0  0  0
    3.2625    3.2025   -0.3148 H   0  0  0  0  0  0  0  0  0  0  0  0
    0.2915    4.9883    1.2826 H   0  0  0  0  0  0  0  0  0  0  0  0
   -0.5243    3.7357    2.2566 H   0  0  0  0  0  0  0  0  0  0  0  0
  1  2  1  0
  2  3  2  0
  2  4  1  0
  4  5  1  0
  5  6  1  0
  6  7  1  0
  7  8  1  0
  8  9  1  0
  9 10  2  0
 10 11  1  0
 11 12  2  0
 12 13  1  0
 13 14  2  0
 13 15  1  0
 15 16  1  0
 16 17  1  0
 17 18  1  0
 18 19  1  0
 19 20  1  0
 20 21  2  0
 20 22  1  0
 22 23  1  0
 22 24  1  0
 24 25  1  0
 25 26  2  0
 25 27  1  0
 27 28  1  0
 27 29  1  0
 29 30  1  0
 30 31  2  0
 30 32  1  0
 32 33  1  0
 32 34  1  0
 34 35  1  0
 35 36  2  0
 35 37  1  0
 37 38  1  0
 37 39  1  0
 39 40  1  0
 40 41  2  0
 18 42  1  0
 42 43  2  0
 42 44  1  0
 44 45  1  0
 45 46  1  0
 45 47  1  0
 47 48  2  0
 47 49  1  0
 49 50  1  0
 50 51  1  0
 50 52  1  0
 52 53  2  0
 52 54  1  0
 54 55  1  0
 55 56  1  0
 55 57  1  0
 57 58  2  0
 57 59  1  0
 59 60  1  0
 60 61  1  0
 60 62  1  0
 62 63  2  0
 62 64  1  0
 64 65  1  0
 65 66  1  0
 65 67  1  0
 67 68  2  0
 67 69  1  0
 69 70  1  0
 70 71  1  0
 70 72  1  0
 72 73  2  0
 72 74  1  0
 74 75  1  0
 75 76  1  0
 75 77  1  0
 77 78  2  0
 77 79  1  0
 79 80  1  0
 80 81  1  0
 81 82  1  0
 81 83  2  0
 80 84  1  0
 84 85  1  0
 85 86  1  0
 40  5  1  0
 14  9  1  0
 86 11  1  0
  1 87  1  0
  1 88  1  0
  1 89  1  0
  4 90  1  0
  5 91  1  6
  6 92  1  0
  6 93  1  0
  8 94  1  0
  8 95  1  0
 10 96  1  0
 12 97  1  0
 14 98  1  0
 15 99  1  0
 15100  1  0
 17101  1  0
 17102  1  0
 18103  1  6
 19104  1  0
 22105  1  6
 23106  1  0
 23107  1  0
 23108  1  0
 24109  1  0
 27110  1  6
 28111  1  0
 28112  1  0
 28113  1  0
 29114  1  0
 32115  1  6
 33116  1  0
 33117  1  0
 33118  1  0
 34119  1  0
 37120  1  6
 38121  1  0
 38122  1  0
 38123  1  0
 39124  1  0
 44125  1  0
 45126  1  1
 46127  1  0
 46128  1  0
 46129  1  0
 49130  1  0
 50131  1  6
 51132  1  0
 51133  1  0
 51134  1  0
 54135  1  0
 55136  1  6
 56137  1  0
 56138  1  0
 56139  1  0
 59140  1  0
 60141  1  6
 61142  1  0
 61143  1  0
 61144  1  0
 64145  1  0
 65146  1  6
 66147  1  0
 66148  1  0
 66149  1  0
 69150  1  0
 70151  1  1
 71152  1  0
 71153  1  0
 71154  1  0
 74155  1  0
 75156  1  6
 76157  1  0
 76158  1  0
 76159  1  0
 79160  1  0
 80161  1  1
 82162  1  0
 82163  1  0
 84164  1  0
 84165  1  0
 86166  1  0
 86167  1  0
M  END
