
     RDKit          3D

197199  0  0  0  0  0  0  0  0999 V2000
   10.0090    7.0287    1.5017 C   0  0  0  0  0  0  0  0  0  0  0  0
   10.4681    6.9522    0.0800 C   0  0  0  0  0  0  0  0  0  0  0  0
   11.3069    7.8031   -0.3233 O   0  0  0  0  0  0  0  0  0  0  0  0
   10.0000    5.9459   -0.8364 N   0  0  0  0  0  0  0  0  0  0  0  0
    9.3573    4.6876   -0.4392 C   0  0  1  0  0  0  0  0  0  0  0  0
    7.8327    4.7705   -0.6452 C   0  0  0  0  0  0  0  0  0  0  0  0
    7.3787    4.9763   -2.4099 S   0  0  0  0  0  0  0  0  0  0  0  0
    5.5787    5.2409   -2.2042 C   0  0  0  0  0  0  0  0  0  0  0  0
    4.8981    4.2103   -1.3417 C   0  0  0  0  0  0  0  0  0  0  0  0
    4.0272    4.6196   -0.3215 C   0  0  0  0  0  0  0  0  0  0  0  0
    3.3620    3.6778    0.4770 C   0  0  0  0  0  0  0  0  0  0  0  0
    3.6101    2.3144    0.2812 C   0  0  0  0  0  0  0  0  0  0  0  0
    4.4390    1.8810   -0.7665 C   0  0  0  0  0  0  0  0  0  0  0  0
    5.0806    2.8378   -1.5736 C   0  0  0  0  0  0  0  0  0  0  0  0
    4.7796    0.4238   -0.9382 C   0  0  0  0  0  0  0  0  0  0  0  0
    3.3109   -0.6746   -0.7600 S   0  0  0  0  0  0  0  0  0  0  0  0
    4.2983   -2.0799   -0.1451 C   0  0  0  0  0  0  0  0  0  0  0  0
    3.4690   -3.3628    0.0820 C   0  0  2  0  0  0  0  0  0  0  0  0
    4.2664   -4.4012    0.7586 N   0  0  0  0  0  0  0  0  0  0  0  0
    5.5893   -4.2055    1.2857 C   0  0  0  0  0  0  0  0  0  0  0  0
    5.7234   -3.7583    2.4578 O   0  0  0  0  0  0  0  0  0  0  0  0
    6.8200   -4.5433    0.4777 C   0  0  1  0  0  0  0  0  0  0  0  0
    6.4698   -5.3613   -0.7765 C   0  0  0  0  0  0  0  0  0  0  0  0
    7.5364   -3.3160    0.1032 N   0  0  0  0  0  0  0  0  0  0  0  0
    8.7470   -3.3174   -0.6670 C   0  0  0  0  0  0  0  0  0  0  0  0
    8.8558   -2.5088   -1.6257 O   0  0  0  0  0  0  0  0  0  0  0  0
    9.8962   -4.2259   -0.2994 C   0  0  1  0  0  0  0  0  0  0  0  0
   10.8273   -4.5412   -1.4752 C   0  0  0  0  0  0  0  0  0  0  0  0
   10.6274   -3.6906    0.8576 N   0  0  0  0  0  0  0  0  0  0  0  0
   11.7128   -2.7477    0.7867 C   0  0  0  0  0  0  0  0  0  0  0  0
   12.8734   -3.1440    1.0836 O   0  0  0  0  0  0  0  0  0  0  0  0
   11.5158   -1.2872    0.4311 C   0  0  1  0  0  0  0  0  0  0  0  0
   11.8496   -1.0554   -1.0520 C   0  0  0  0  0  0  0  0  0  0  0  0
   10.1670   -0.8147    0.7836 N   0  0  0  0  0  0  0  0  0  0  0  0
    9.5742    0.4110    0.3195 C   0  0  0  0  0  0  0  0  0  0  0  0
    8.4831    0.3491   -0.3149 O   0  0  0  0  0  0  0  0  0  0  0  0
   10.0926    1.7847    0.6833 C   0  0  1  0  0  0  0  0  0  0  0  0
   11.1446    1.7862    1.7957 C   0  0  0  0  0  0  0  0  0  0  0  0
   10.6291    2.4466   -0.5109 N   0  0  0  0  0  0  0  0  0  0  0  0
    9.9781    3.5304   -1.1896 C   0  0  0  0  0  0  0  0  0  0  0  0
   10.0176    3.5538   -2.4525 O   0  0  0  0  0  0  0  0  0  0  0  0
    2.9155   -3.9287   -1.2179 C   0  0  0  0  0  0  0  0  0  0  0  0
    3.4032   -3.5469   -2.3161 O   0  0  0  0  0  0  0  0  0  0  0  0
    1.8685   -4.9206   -1.2535 N   0  0  0  0  0  0  0  0  0  0  0  0
    1.1709   -5.4957   -0.0985 C   0  0  2  0  0  0  0  0  0  0  0  0
    1.5538   -6.9743    0.0406 C   0  0  0  0  0  0  0  0  0  0  0  0
   -0.3153   -5.2944   -0.2717 C   0  0  0  0  0  0  0  0  0  0  0  0
   -0.8109   -4.1745    0.0474 O   0  0  0  0  0  0  0  0  0  0  0  0
   -1.1449   -6.2389   -0.9578 N   0  0  0  0  0  0  0  0  0  0  0  0
   -1.7352   -7.3961   -0.2771 C   0  0  2  0  0  0  0  0  0  0  0  0
   -2.5048   -8.2762   -1.2682 C   0  0  0  0  0  0  0  0  0  0  0  0
   -2.6326   -6.9435    0.8468 C   0  0  0  0  0  0  0  0  0  0  0  0
   -2.2275   -7.0630    2.0355 O   0  0  0  0  0  0  0  0  0  0  0  0
   -3.8678   -6.2684    0.5549 N   0  0  0  0  0  0  0  0  0  0  0  0
   -5.0949   -6.3062    1.3672 C   0  0  2  0  0  0  0  0  0  0  0  0
   -4.9914   -7.1481    2.6494 C   0  0  0  0  0  0  0  0  0  0  0  0
   -6.2239   -6.8220    0.5012 C   0  0  0  0  0  0  0  0  0  0  0  0
   -6.2619   -8.0575    0.2395 O   0  0  0  0  0  0  0  0  0  0  0  0
   -7.2043   -5.9643   -0.1084 N   0  0  0  0  0  0  0  0  0  0  0  0
   -7.3709   -4.5278    0.1593 C   0  0  2  0  0  0  0  0  0  0  0  0
   -8.0256   -4.2991    1.5301 C   0  0  0  0  0  0  0  0  0  0  0  0
   -8.1738   -3.8774   -0.9553 C   0  0  0  0  0  0  0  0  0  0  0  0
   -7.7012   -2.8549   -1.5213 O   0  0  0  0  0  0  0  0  0  0  0  0
   -9.3461   -4.4828   -1.5164 N   0  0  0  0  0  0  0  0  0  0  0  0
  -10.5443   -4.8303   -0.7445 C   0  0  2  0  0  0  0  0  0  0  0  0
  -10.7576   -6.3506   -0.7615 C   0  0  0  0  0  0  0  0  0  0  0  0
  -11.7307   -4.0843   -1.3166 C   0  0  0  0  0  0  0  0  0  0  0  0
  -12.5574   -4.6902   -2.0535 O   0  0  0  0  0  0  0  0  0  0  0  0
  -11.8932   -2.6687   -1.1153 N   0  0  0  0  0  0  0  0  0  0  0  0
  -11.2917   -1.9313    0.0049 C   0  0  2  0  0  0  0  0  0  0  0  0
  -12.1018   -2.1725    1.2826 C   0  0  0  0  0  0  0  0  0  0  0  0
  -11.2345   -0.4534   -0.2855 C   0  0  0  0  0  0  0  0  0  0  0  0
  -12.2589    0.1335   -0.7285 O   0  0  0  0  0  0  0  0  0  0  0  0
  -10.0300    0.2892   -0.0258 N   0  0  0  0  0  0  0  0  0  0  0  0
  -10.0056    1.7290    0.2709 C   0  0  2  0  0  0  0  0  0  0  0  0
  -11.0239    2.0686    1.3678 C   0  0  0  0  0  0  0  0  0  0  0  0
  -10.2209    2.5636   -0.9768 C   0  0  0  0  0  0  0  0  0  0  0  0
  -10.5824    1.9936   -2.0432 O   0  0  0  0  0  0  0  0  0  0  0  0
  -10.0334    3.9905   -0.9989 N   0  0  0  0  0  0  0  0  0  0  0  0
   -9.3598    4.7803    0.0396 C   0  0  2  0  0  0  0  0  0  0  0  0
  -10.3166    5.8477    0.5764 C   0  0  0  0  0  0  0  0  0  0  0  0
   -8.1204    5.4219   -0.5242 C   0  0  0  0  0  0  0  0  0  0  0  0
   -8.2037    6.2188   -1.4926 O   0  0  0  0  0  0  0  0  0  0  0  0
   -6.8395    5.0812    0.0167 N   0  0  0  0  0  0  0  0  0  0  0  0
   -5.9841    6.0277    0.7341 C   0  0  2  0  0  0  0  0  0  0  0  0
   -6.7796    6.7917    1.8017 C   0  0  0  0  0  0  0  0  0  0  0  0
   -5.3053    6.9746   -0.2207 C   0  0  0  0  0  0  0  0  0  0  0  0
   -5.9915    7.7602   -0.9336 O   0  0  0  0  0  0  0  0  0  0  0  0
   -3.8755    7.0002   -0.3058 N   0  0  0  0  0  0  0  0  0  0  0  0
   -3.1828    7.2469   -1.5707 C   0  0  2  0  0  0  0  0  0  0  0  0
   -3.1204    5.9676   -2.4129 C   0  0  0  0  0  0  0  0  0  0  0  0
   -1.8157    7.8411   -1.3318 C   0  0  0  0  0  0  0  0  0  0  0  0
   -1.6768    9.0901   -1.4272 O   0  0  0  0  0  0  0  0  0  0  0  0
   -0.6518    7.0339   -1.1057 N   0  0  0  0  0  0  0  0  0  0  0  0
   -0.5383    6.0694   -0.0074 C   0  0  2  0  0  0  0  0  0  0  0  0
   -0.2108    6.8001    1.2748 C   0  0  0  0  0  0  0  0  0  0  0  0
    0.9549    7.6193    1.3778 N   0  0  0  0  0  0  0  0  0  0  0  0
   -0.9912    6.7145    2.2633 O   0  0  0  0  0  0  0  0  0  0  0  0
    0.5307    5.0247   -0.3512 C   0  0  0  0  0  0  0  0  0  0  0  0
    0.6505    3.7302    0.9437 S   0  0  0  0  0  0  0  0  0  0  0  0
    2.3518    4.1189    1.5012 C   0  0  0  0  0  0  0  0  0  0  0  0
   10.8482    6.7679    2.1811 H   0  0  0  0  0  0  0  0  0  0  0  0
    9.6941    8.0735    1.7188 H   0  0  0  0  0  0  0  0  0  0  0  0
    9.1390    6.3779    1.7138 H   0  0  0  0  0  0  0  0  0  0  0  0
   10.2802    6.0659   -1.8364 H   0  0  0  0  0  0  0  0  0  0  0  0
    9.5438    4.5133    0.6362 H   0  0  0  0  0  0  0  0  0  0  0  0
    7.3765    3.8413   -0.2482 H   0  0  0  0  0  0  0  0  0  0  0  0
    7.4284    5.6246   -0.0586 H   0  0  0  0  0  0  0  0  0  0  0  0
    5.1196    5.2038   -3.2162 H   0  0  0  0  0  0  0  0  0  0  0  0
    5.4233    6.2634   -1.8023 H   0  0  0  0  0  0  0  0  0  0  0  0
    3.8480    5.6770   -0.1588 H   0  0  0  0  0  0  0  0  0  0  0  0
    3.1459    1.5875    0.9390 H   0  0  0  0  0  0  0  0  0  0  0  0
    5.7467    2.5141   -2.3628 H   0  0  0  0  0  0  0  0  0  0  0  0
    5.2256    0.2350   -1.9448 H   0  0  0  0  0  0  0  0  0  0  0  0
    5.5552    0.1878   -0.1755 H   0  0  0  0  0  0  0  0  0  0  0  0
    4.7338   -1.7578    0.8248 H   0  0  0  0  0  0  0  0  0  0  0  0
    5.1210   -2.2860   -0.8657 H   0  0  0  0  0  0  0  0  0  0  0  0
    2.6186   -3.0861    0.7397 H   0  0  0  0  0  0  0  0  0  0  0  0
    3.8289   -5.3249    0.9455 H   0  0  0  0  0  0  0  0  0  0  0  0
    7.4763   -5.1634    1.1260 H   0  0  0  0  0  0  0  0  0  0  0  0
    5.8677   -4.7480   -1.4816 H   0  0  0  0  0  0  0  0  0  0  0  0
    5.8906   -6.2721   -0.4966 H   0  0  0  0  0  0  0  0  0  0  0  0
    7.3938   -5.6869   -1.2986 H   0  0  0  0  0  0  0  0  0  0  0  0
    7.0981   -2.3849    0.2840 H   0  0  0  0  0  0  0  0  0  0  0  0
    9.4707   -5.2090    0.0009 H   0  0  0  0  0  0  0  0  0  0  0  0
   10.2531   -5.0616   -2.2749 H   0  0  0  0  0  0  0  0  0  0  0  0
   11.6520   -5.2087   -1.1411 H   0  0  0  0  0  0  0  0  0  0  0  0
   11.2738   -3.6217   -1.9030 H   0  0  0  0  0  0  0  0  0  0  0  0
   10.5550   -4.2408    1.7439 H   0  0  0  0  0  0  0  0  0  0  0  0
   12.2564   -0.7211    1.0304 H   0  0  0  0  0  0  0  0  0  0  0  0
   10.9766   -1.2542   -1.7042 H   0  0  0  0  0  0  0  0  0  0  0  0
   12.7012   -1.6873   -1.3761 H   0  0  0  0  0  0  0  0  0  0  0  0
   12.1632   -0.0094   -1.2037 H   0  0  0  0  0  0  0  0  0  0  0  0
    9.5298   -1.4462    1.3134 H   0  0  0  0  0  0  0  0  0  0  0  0
    9.2198    2.3509    1.0702 H   0  0  0  0  0  0  0  0  0  0  0  0
   11.2635    2.8182    2.1950 H   0  0  0  0  0  0  0  0  0  0  0  0
   12.1320    1.4642    1.4132 H   0  0  0  0  0  0  0  0  0  0  0  0
   10.8343    1.1289    2.6358 H   0  0  0  0  0  0  0  0  0  0  0  0
   11.4626    2.0357   -0.9820 H   0  0  0  0  0  0  0  0  0  0  0  0
    1.6173   -5.3025   -2.1958 H   0  0  0  0  0  0  0  0  0  0  0  0
    1.4694   -4.9904    0.8431 H   0  0  0  0  0  0  0  0  0  0  0  0
    1.2131   -7.5622   -0.8381 H   0  0  0  0  0  0  0  0  0  0  0  0
    1.1196   -7.3909    0.9745 H   0  0  0  0  0  0  0  0  0  0  0  0
    2.6552   -7.0887    0.1051 H   0  0  0  0  0  0  0  0  0  0  0  0
   -1.5244   -5.9489   -1.8857 H   0  0  0  0  0  0  0  0  0  0  0  0
   -0.9301   -8.0277    0.1485 H   0  0  0  0  0  0  0  0  0  0  0  0
   -1.8168   -8.6410   -2.0612 H   0  0  0  0  0  0  0  0  0  0  0  0
   -3.3339   -7.7156   -1.7461 H   0  0  0  0  0  0  0  0  0  0  0  0
   -2.9332   -9.1571   -0.7431 H   0  0  0  0  0  0  0  0  0  0  0  0
   -3.9303   -5.7597   -0.3560 H   0  0  0  0  0  0  0  0  0  0  0  0
   -5.3007   -5.2734    1.6978 H   0  0  0  0  0  0  0  0  0  0  0  0
   -4.2758   -6.6848    3.3642 H   0  0  0  0  0  0  0  0  0  0  0  0
   -4.6644   -8.1842    2.4184 H   0  0  0  0  0  0  0  0  0  0  0  0
   -5.9815   -7.1995    3.1541 H   0  0  0  0  0  0  0  0  0  0  0  0
   -7.8011   -6.4166   -0.8373 H   0  0  0  0  0  0  0  0  0  0  0  0
   -6.3744   -4.0401    0.1641 H   0  0  0  0  0  0  0  0  0  0  0  0
   -8.8166   -5.0514    1.7291 H   0  0  0  0  0  0  0  0  0  0  0  0
   -8.4511   -3.2759    1.6027 H   0  0  0  0  0  0  0  0  0  0  0  0
   -7.2706   -4.3945    2.3378 H   0  0  0  0  0  0  0  0  0  0  0  0
   -9.4332   -4.4567   -2.5590 H   0  0  0  0  0  0  0  0  0  0  0  0
  -10.4359   -4.5337    0.3130 H   0  0  0  0  0  0  0  0  0  0  0  0
   -9.9813   -6.8499   -0.1494 H   0  0  0  0  0  0  0  0  0  0  0  0
  -11.7461   -6.6041   -0.3219 H   0  0  0  0  0  0  0  0  0  0  0  0
  -10.7046   -6.7477   -1.8019 H   0  0  0  0  0  0  0  0  0  0  0  0
  -12.6397   -2.1981   -1.6822 H   0  0  0  0  0  0  0  0  0  0  0  0
  -10.2547   -2.2837    0.1738 H   0  0  0  0  0  0  0  0  0  0  0  0
  -13.1522   -1.8387    1.1470 H   0  0  0  0  0  0  0  0  0  0  0  0
  -12.0986   -3.2495    1.5468 H   0  0  0  0  0  0  0  0  0  0  0  0
  -11.6544   -1.6052    2.1290 H   0  0  0  0  0  0  0  0  0  0  0  0
   -9.1499   -0.2509    0.1578 H   0  0  0  0  0  0  0  0  0  0  0  0
   -8.9902    1.9571    0.6614 H   0  0  0  0  0  0  0  0  0  0  0  0
  -10.9452    1.3359    2.1996 H   0  0  0  0  0  0  0  0  0  0  0  0
  -12.0620    2.0467    0.9762 H   0  0  0  0  0  0  0  0  0  0  0  0
  -10.8374    3.0733    1.8009 H   0  0  0  0  0  0  0  0  0  0  0  0
  -10.3328    4.4977   -1.8631 H   0  0  0  0  0  0  0  0  0  0  0  0
   -9.0508    4.1546    0.8988 H   0  0  0  0  0  0  0  0  0  0  0  0
  -11.1805    5.3683    1.0778 H   0  0  0  0  0  0  0  0  0  0  0  0
  -10.6962    6.4965   -0.2425 H   0  0  0  0  0  0  0  0  0  0  0  0
   -9.8098    6.4838    1.3312 H   0  0  0  0  0  0  0  0  0  0  0  0
   -6.4885    4.1003   -0.1332 H   0  0  0  0  0  0  0  0  0  0  0  0
   -5.2034    5.4457    1.2676 H   0  0  0  0  0  0  0  0  0  0  0  0
   -7.3055    6.0729    2.4648 H   0  0  0  0  0  0  0  0  0  0  0  0
   -7.5271    7.4653    1.3345 H   0  0  0  0  0  0  0  0  0  0  0  0
   -6.0833    7.3976    2.4254 H   0  0  0  0  0  0  0  0  0  0  0  0
   -3.3361    6.6370    0.5084 H   0  0  0  0  0  0  0  0  0  0  0  0
   -3.7692    7.9909   -2.1576 H   0  0  0  0  0  0  0  0  0  0  0  0
   -4.1470    5.6266   -2.6625 H   0  0  0  0  0  0  0  0  0  0  0  0
   -2.6136    5.1443   -1.8718 H   0  0  0  0  0  0  0  0  0  0  0  0
   -2.5755    6.1573   -3.3645 H   0  0  0  0  0  0  0  0  0  0  0  0
    0.2438    7.4144   -1.4929 H   0  0  0  0  0  0  0  0  0  0  0  0
   -1.4910    5.5153    0.1181 H   0  0  0  0  0  0  0  0  0  0  0  0
    1.1543    8.1409    2.2563 H   0  0  0  0  0  0  0  0  0  0  0  0
    1.6130    7.7219    0.5706 H   0  0  0  0  0  0  0  0  0  0  0  0
    1.4987    5.5281   -0.5276 H   0  0  0  0  0  0  0  0  0  0  0  0
    0.2506    4.5219   -1.3015 H   0  0  0  0  0  0  0  0  0  0  0  0
    2.4448    5.2004    1.7127 H   0  0  0  0  0  0  0  0  0  0  0  0
    2.5339    3.5852    2.4561 H   0  0  0  0  0  0  0  0  0  0  0  0
  1  2  1  0
  2  3  2  0
  2  4  1  0
  4  5  1  0
  5  6  1  0
  6  7  1  0
  7  8  1  0
  8  9  1  0
  9 10  2  0
 10 11  1  0
 11 12  2  0
 12 13  1  0
 13 14  2  0
 13 15  1  0
 15 16  1  0
 16 17  1  0
 17 18  1  0
 18 19  1  0
 19 20  1  0
 20 21  2  0
 20 22  1  0
 22 23  1  0
 22 24  1  0
 24 25  1  0
 25 26  2  0
 25 27  1  0
 27 28  1  0
 27 29  1  0
 29 30  1  0
 30 31  2  0
 30 32  1  0
 32 33  1  0
 32 34  1  0
 34 35  1  0
 35 36  2  0
 35 37  1  0
 37 38  1  0
 37 39  1  0
 39 40  1  0
 40 41  2  0
 18 42  1  0
 42 43  2  0
 42 44  1  0
 44 45  1  0
 45 46  1  0
 45 47  1  0
 47 48  2  0
 47 49  1  0
 49 50  1  0
 50 51  1  0
 50 52  1  0
 52 53  2  0
 52 54  1  0
 54 55  1  0
 55 56  1  0
 55 57  1  0
 57 58  2  0
 57 59  1  0
 59 60  1  0
 60 61  1  0
 60 62  1  0
 62 63  2  0
 62 64  1  0
 64 65  1  0
 65 66  1  0
 65 67  1  0
 67 68  2  0
 67 69  1  0
 69 70  1  0
 70 71  1  0
 70 72  1  0
 72 73  2  0
 72 74  1  0
 74 75  1  0
 75 76  1  0
 75 77  1  0
 77 78  2  0
 77 79  1  0
 79 80  1  0
 80 81  1  0
 80 82  1  0
 82 83  2  0
 82 84  1  0
 84 85  1  0
 85 86  1  0
 85 87  1  0
 87 88  2  0
 87 89  1  0
 89 90  1  0
 90 91  1  0
 90 92  1  0
 92 93  2  0
 92 94  1  0
 94 95  1  0
 95 96  1  0
 96 97  1  0
 96 98  2  0
 95 99  1  0
 99100  1  0
100101  1  0
 40  5  1  0
 14  9  1  0
101 11  1  0
  1102  1  0
  1103  1  0
  1104  1  0
  4105  1  0
  5106  1  1
  6107  1  0
  6108  1  0
  8109  1  0
  8110  1  0
 10111  1  0
 12112  1  0
 14113  1  0
 15114  1  0
 15115  1  0
 17116  1  0
 17117  1  0
 18118  1  1
 19119  1  0
 22120  1  1
 23121  1  0
 23122  1  0
 23123  1  0
 24124  1  0
 27125  1  1
 28126  1  0
 28127  1  0
 28128  1  0
 29129  1  0
 32130  1  1
 33131  1  0
 33132  1  0
 33133  1  0
 34134  1  0
 37135  1  1
 38136  1  0
 38137  1  0
 38138  1  0
 39139  1  0
 44140  1  0
 45141  1  1
 46142  1  0
 46143  1  0
 46144  1  0
 49145  1  0
 50146  1  1
 51147  1  0
 51148  1  0
 51149  1  0
 54150  1  0
 55151  1  1
 56152  1  0
 56153  1  0
 56154  1  0
 59155  1  0
 60156  1  1
 61157  1  0
 61158  1  0
 61159  1  0
 64160  1  0
 65161  1  1
 66162  1  0
 66163  1  0
 66164  1  0
 69165  1  0
 70166  1  1
 71167  1  0
 71168  1  0
 71169  1  0
 74170  1  0
 75171  1  1
 76172  1  0
 76173  1  0
 76174  1  0
 79175  1  0
 80176  1  1
 81177  1  0
 81178  1  0
 81179  1  0
 84180  1  0
 85181  1  1
 86182  1  0
 86183  1  0
 86184  1  0
 89185  1  0
 90186  1  6
 91187  1  0
 91188  1  0
 91189  1  0
 94190  1  0
 95191  1  1
 97192  1  0
 97193  1  0
 99194  1  0
 99195  1  0
101196  1  0
101197  1  0
M  END
