
     RDKit          3D

187189  0  0  0  0  0  0  0  0999 V2000
   -8.9711   -0.4429   -4.9299 C   0  0  0  0  0  0  0  0  0  0  0  0
   -9.1251    1.0354   -4.7166 C   0  0  0  0  0  0  0  0  0  0  0  0
   -9.7604    1.7373   -5.5580 O   0  0  0  0  0  0  0  0  0  0  0  0
   -8.6048    1.6573   -3.5293 N   0  0  0  0  0  0  0  0  0  0  0  0
   -9.3684    2.6268   -2.7518 C   0  0  2  0  0  0  0  0  0  0  0  0
   -8.7569    4.0546   -2.8700 C   0  0  0  0  0  0  0  0  0  0  0  0
   -7.7435    4.5788   -1.4111 S   0  0  0  0  0  0  0  0  0  0  0  0
   -6.2539    3.7004   -1.9781 C   0  0  0  0  0  0  0  0  0  0  0  0
   -5.0449    3.9213   -1.0877 C   0  0  0  0  0  0  0  0  0  0  0  0
   -4.1572    4.8863   -1.5852 C   0  0  0  0  0  0  0  0  0  0  0  0
   -2.8646    4.4734   -1.9474 C   0  0  0  0  0  0  0  0  0  0  0  0
   -2.3856    3.2252   -1.5042 C   0  0  0  0  0  0  0  0  0  0  0  0
   -3.1703    2.4405   -0.6294 C   0  0  0  0  0  0  0  0  0  0  0  0
   -4.5130    2.8203   -0.4026 C   0  0  0  0  0  0  0  0  0  0  0  0
   -2.6212    1.1870    0.0276 C   0  0  0  0  0  0  0  0  0  0  0  0
   -3.1463   -0.3453   -0.8200 S   0  0  0  0  0  0  0  0  0  0  0  0
   -2.4640   -1.4791    0.4867 C   0  0  0  0  0  0  0  0  0  0  0  0
   -2.7876   -2.9779    0.2004 C   0  0  2  0  0  0  0  0  0  0  0  0
   -3.8097   -3.4517    1.1532 N   0  0  0  0  0  0  0  0  0  0  0  0
   -5.2002   -3.0889    0.9856 C   0  0  0  0  0  0  0  0  0  0  0  0
   -5.6132   -2.7988   -0.1776 O   0  0  0  0  0  0  0  0  0  0  0  0
   -6.1614   -2.9233    2.1487 C   0  0  1  0  0  0  0  0  0  0  0  0
   -7.5819   -3.4109    1.7905 C   0  0  0  0  0  0  0  0  0  0  0  0
   -5.7255   -3.6108    3.3596 N   0  0  0  0  0  0  0  0  0  0  0  0
   -6.2044   -3.1727    4.6574 C   0  0  0  0  0  0  0  0  0  0  0  0
   -6.8661   -3.9703    5.3707 O   0  0  0  0  0  0  0  0  0  0  0  0
   -5.8996   -1.7885    5.1913 C   0  0  1  0  0  0  0  0  0  0  0  0
   -4.3855   -1.5584    5.1449 C   0  0  0  0  0  0  0  0  0  0  0  0
   -6.7013   -0.7425    4.4968 N   0  0  0  0  0  0  0  0  0  0  0  0
   -6.3412    0.6511    4.3115 C   0  0  0  0  0  0  0  0  0  0  0  0
   -5.1446    1.0359    4.4791 O   0  0  0  0  0  0  0  0  0  0  0  0
   -7.3277    1.6454    3.6700 C   0  0  2  0  0  0  0  0  0  0  0  0
   -7.7665    2.6913    4.7041 C   0  0  0  0  0  0  0  0  0  0  0  0
   -8.5163    0.9833    3.0779 N   0  0  0  0  0  0  0  0  0  0  0  0
   -8.9557    1.0837    1.7094 C   0  0  0  0  0  0  0  0  0  0  0  0
  -10.2008    1.0189    1.4980 O   0  0  0  0  0  0  0  0  0  0  0  0
   -8.0215    1.2786    0.5298 C   0  0  1  0  0  0  0  0  0  0  0  0
   -6.8943    0.2410    0.5732 C   0  0  0  0  0  0  0  0  0  0  0  0
   -8.7509    1.1331   -0.7547 N   0  0  0  0  0  0  0  0  0  0  0  0
   -9.5366    2.2013   -1.3148 C   0  0  0  0  0  0  0  0  0  0  0  0
  -10.3761    2.7922   -0.5801 O   0  0  0  0  0  0  0  0  0  0  0  0
   -1.5262   -3.8184    0.3071 C   0  0  0  0  0  0  0  0  0  0  0  0
   -1.0722   -4.0844    1.4536 O   0  0  0  0  0  0  0  0  0  0  0  0
   -0.8736   -4.3156   -0.8810 N   0  0  0  0  0  0  0  0  0  0  0  0
    0.2992   -5.2120   -0.9041 C   0  0  2  0  0  0  0  0  0  0  0  0
    0.1629   -6.3336    0.1555 C   0  0  0  0  0  0  0  0  0  0  0  0
    1.5950   -4.4261   -0.7533 C   0  0  0  0  0  0  0  0  0  0  0  0
    1.5561   -3.3438   -0.0862 O   0  0  0  0  0  0  0  0  0  0  0  0
    2.8631   -4.8092   -1.3311 N   0  0  0  0  0  0  0  0  0  0  0  0
    3.1537   -6.0169   -2.1340 C   0  0  2  0  0  0  0  0  0  0  0  0
    3.3156   -7.2478   -1.2145 C   0  0  0  0  0  0  0  0  0  0  0  0
    4.4464   -5.8083   -2.9031 C   0  0  0  0  0  0  0  0  0  0  0  0
    4.4019   -5.7098   -4.1525 O   0  0  0  0  0  0  0  0  0  0  0  0
    5.7059   -5.7804   -2.1907 N   0  0  0  0  0  0  0  0  0  0  0  0
    6.9634   -5.2843   -2.7702 C   0  0  2  0  0  0  0  0  0  0  0  0
    7.4779   -6.2502   -3.8510 C   0  0  0  0  0  0  0  0  0  0  0  0
    7.9619   -5.0119   -1.6676 C   0  0  0  0  0  0  0  0  0  0  0  0
    7.5173   -4.5789   -0.5633 O   0  0  0  0  0  0  0  0  0  0  0  0
    9.3773   -5.1544   -1.8485 N   0  0  0  0  0  0  0  0  0  0  0  0
   10.4015   -4.4541   -1.0512 C   0  0  2  0  0  0  0  0  0  0  0  0
   10.4279   -4.9464    0.4031 C   0  0  0  0  0  0  0  0  0  0  0  0
   10.2975   -2.9422   -1.1239 C   0  0  0  0  0  0  0  0  0  0  0  0
   11.3274   -2.2558   -0.8936 O   0  0  0  0  0  0  0  0  0  0  0  0
    9.0579   -2.2509   -1.4299 N   0  0  0  0  0  0  0  0  0  0  0  0
    8.5455   -1.0498   -0.7660 C   0  0  2  0  0  0  0  0  0  0  0  0
    9.6295   -0.0260   -0.4655 C   0  0  0  0  0  0  0  0  0  0  0  0
    7.7881   -1.4086    0.5035 C   0  0  0  0  0  0  0  0  0  0  0  0
    8.3884   -1.9820    1.4598 O   0  0  0  0  0  0  0  0  0  0  0  0
    6.3964   -1.0823    0.6149 N   0  0  0  0  0  0  0  0  0  0  0  0
    5.7060   -0.9040    1.8928 C   0  0  2  0  0  0  0  0  0  0  0  0
    4.2304   -1.2836    1.7326 C   0  0  0  0  0  0  0  0  0  0  0  0
    5.8471    0.5235    2.3873 C   0  0  0  0  0  0  0  0  0  0  0  0
    5.0122    0.9911    3.2012 O   0  0  0  0  0  0  0  0  0  0  0  0
    6.9990    1.3058    2.0082 N   0  0  0  0  0  0  0  0  0  0  0  0
    6.8975    2.6913    1.5072 C   0  0  2  0  0  0  0  0  0  0  0  0
    6.4830    3.6660    2.6231 C   0  0  0  0  0  0  0  0  0  0  0  0
    5.9873    2.8011    0.3019 C   0  0  0  0  0  0  0  0  0  0  0  0
    5.3033    1.8114   -0.0696 O   0  0  0  0  0  0  0  0  0  0  0  0
    5.9567    4.0138   -0.4709 N   0  0  0  0  0  0  0  0  0  0  0  0
    5.7585    3.9672   -1.9265 C   0  0  2  0  0  0  0  0  0  0  0  0
    7.1397    4.0113   -2.5973 C   0  0  0  0  0  0  0  0  0  0  0  0
    4.9028    5.1018   -2.4211 C   0  0  0  0  0  0  0  0  0  0  0  0
    4.7568    5.2554   -3.6615 O   0  0  0  0  0  0  0  0  0  0  0  0
    4.2622    6.0484   -1.5408 N   0  0  0  0  0  0  0  0  0  0  0  0
    3.1346    5.7879   -0.6178 C   0  0  2  0  0  0  0  0  0  0  0  0
    3.6308    5.7226    0.8280 C   0  0  0  0  0  0  0  0  0  0  0  0
    2.2851    4.5717   -0.9697 C   0  0  0  0  0  0  0  0  0  0  0  0
    2.6800    3.7274   -1.8195 O   0  0  0  0  0  0  0  0  0  0  0  0
    0.9929    4.3553   -0.3729 N   0  0  0  0  0  0  0  0  0  0  0  0
    0.1288    5.4128    0.1747 C   0  0  2  0  0  0  0  0  0  0  0  0
   -0.8439    4.7965    1.1447 C   0  0  0  0  0  0  0  0  0  0  0  0
   -0.3430    3.9846    2.2048 N   0  0  0  0  0  0  0  0  0  0  0  0
   -2.0907    4.9851    1.0436 O   0  0  0  0  0  0  0  0  0  0  0  0
   -0.5238    6.2605   -0.9664 C   0  0  0  0  0  0  0  0  0  0  0  0
   -0.3435    5.4970   -2.6349 S   0  0  0  0  0  0  0  0  0  0  0  0
   -2.1310    5.2936   -2.9730 C   0  0  0  0  0  0  0  0  0  0  0  0
   -9.9012   -0.9528   -4.6201 H   0  0  0  0  0  0  0  0  0  0  0  0
   -8.7569   -0.6756   -5.9931 H   0  0  0  0  0  0  0  0  0  0  0  0
   -8.1312   -0.8109   -4.3091 H   0  0  0  0  0  0  0  0  0  0  0  0
   -7.6440    1.3318   -3.2129 H   0  0  0  0  0  0  0  0  0  0  0  0
  -10.3897    2.6739   -3.1913 H   0  0  0  0  0  0  0  0  0  0  0  0
   -8.1590    4.1645   -3.8044 H   0  0  0  0  0  0  0  0  0  0  0  0
   -9.5832    4.7946   -2.9534 H   0  0  0  0  0  0  0  0  0  0  0  0
   -6.4836    2.6263   -1.9953 H   0  0  0  0  0  0  0  0  0  0  0  0
   -6.0039    4.0556   -3.0179 H   0  0  0  0  0  0  0  0  0  0  0  0
   -4.5522    5.8142   -1.9742 H   0  0  0  0  0  0  0  0  0  0  0  0
   -1.4212    2.8582   -1.8235 H   0  0  0  0  0  0  0  0  0  0  0  0
   -5.1599    2.2312    0.2241 H   0  0  0  0  0  0  0  0  0  0  0  0
   -2.9585    1.1661    1.0766 H   0  0  0  0  0  0  0  0  0  0  0  0
   -1.5020    1.2341    0.0492 H   0  0  0  0  0  0  0  0  0  0  0  0
   -2.9055   -1.1679    1.4544 H   0  0  0  0  0  0  0  0  0  0  0  0
   -1.3653   -1.3240    0.5355 H   0  0  0  0  0  0  0  0  0  0  0  0
   -3.1845   -3.1023   -0.8263 H   0  0  0  0  0  0  0  0  0  0  0  0
   -3.5132   -3.8627    2.0597 H   0  0  0  0  0  0  0  0  0  0  0  0
   -6.2072   -1.8448    2.3679 H   0  0  0  0  0  0  0  0  0  0  0  0
   -8.1087   -3.8546    2.6687 H   0  0  0  0  0  0  0  0  0  0  0  0
   -7.5708   -4.1846    0.9878 H   0  0  0  0  0  0  0  0  0  0  0  0
   -8.2128   -2.5598    1.4478 H   0  0  0  0  0  0  0  0  0  0  0  0
   -5.4947   -4.6200    3.2844 H   0  0  0  0  0  0  0  0  0  0  0  0
   -6.2038   -1.7551    6.2579 H   0  0  0  0  0  0  0  0  0  0  0  0
   -4.1055   -0.6844    5.7840 H   0  0  0  0  0  0  0  0  0  0  0  0
   -4.0255   -1.3826    4.0924 H   0  0  0  0  0  0  0  0  0  0  0  0
   -3.8574   -2.4355    5.5742 H   0  0  0  0  0  0  0  0  0  0  0  0
   -7.7233   -0.9804    4.4475 H   0  0  0  0  0  0  0  0  0  0  0  0
   -6.7860    2.2032    2.8674 H   0  0  0  0  0  0  0  0  0  0  0  0
   -6.8630    3.1830    5.1575 H   0  0  0  0  0  0  0  0  0  0  0  0
   -8.3504    2.1947    5.5296 H   0  0  0  0  0  0  0  0  0  0  0  0
   -8.4000    3.4716    4.2466 H   0  0  0  0  0  0  0  0  0  0  0  0
   -9.1946    0.5483    3.7527 H   0  0  0  0  0  0  0  0  0  0  0  0
   -7.5554    2.2914    0.5963 H   0  0  0  0  0  0  0  0  0  0  0  0
   -6.2089    0.3742   -0.2957 H   0  0  0  0  0  0  0  0  0  0  0  0
   -7.3091   -0.7705    0.4956 H   0  0  0  0  0  0  0  0  0  0  0  0
   -6.2837    0.3190    1.5187 H   0  0  0  0  0  0  0  0  0  0  0  0
   -8.5939    0.2730   -1.3314 H   0  0  0  0  0  0  0  0  0  0  0  0
   -1.1346   -3.8743   -1.7957 H   0  0  0  0  0  0  0  0  0  0  0  0
    0.3219   -5.7069   -1.9119 H   0  0  0  0  0  0  0  0  0  0  0  0
    0.8933   -7.1297   -0.0507 H   0  0  0  0  0  0  0  0  0  0  0  0
   -0.8536   -6.7900    0.0611 H   0  0  0  0  0  0  0  0  0  0  0  0
    0.4059   -5.9601    1.1847 H   0  0  0  0  0  0  0  0  0  0  0  0
    3.6192   -4.0907   -1.2516 H   0  0  0  0  0  0  0  0  0  0  0  0
    2.3340   -6.1882   -2.8624 H   0  0  0  0  0  0  0  0  0  0  0  0
    4.1013   -7.9389   -1.5973 H   0  0  0  0  0  0  0  0  0  0  0  0
    2.3924   -7.8800   -1.2178 H   0  0  0  0  0  0  0  0  0  0  0  0
    3.5266   -6.9346   -0.1593 H   0  0  0  0  0  0  0  0  0  0  0  0
    5.7441   -6.2171   -1.2502 H   0  0  0  0  0  0  0  0  0  0  0  0
    6.7372   -4.3058   -3.2592 H   0  0  0  0  0  0  0  0  0  0  0  0
    8.4270   -5.8719   -4.3002 H   0  0  0  0  0  0  0  0  0  0  0  0
    6.7593   -6.3412   -4.7011 H   0  0  0  0  0  0  0  0  0  0  0  0
    7.6786   -7.2546   -3.4256 H   0  0  0  0  0  0  0  0  0  0  0  0
    9.7407   -5.8529   -2.5584 H   0  0  0  0  0  0  0  0  0  0  0  0
   11.3865   -4.7025   -1.5081 H   0  0  0  0  0  0  0  0  0  0  0  0
   10.8471   -5.9781    0.4367 H   0  0  0  0  0  0  0  0  0  0  0  0
   11.0774   -4.2908    1.0304 H   0  0  0  0  0  0  0  0  0  0  0  0
    9.4171   -4.9666    0.8653 H   0  0  0  0  0  0  0  0  0  0  0  0
    8.5106   -2.5753   -2.2617 H   0  0  0  0  0  0  0  0  0  0  0  0
    7.8184   -0.5403   -1.4413 H   0  0  0  0  0  0  0  0  0  0  0  0
   10.3531   -0.3956    0.3136 H   0  0  0  0  0  0  0  0  0  0  0  0
   10.2051    0.1964   -1.3903 H   0  0  0  0  0  0  0  0  0  0  0  0
    9.1859    0.9348   -0.0880 H   0  0  0  0  0  0  0  0  0  0  0  0
    5.9007   -0.7577   -0.2558 H   0  0  0  0  0  0  0  0  0  0  0  0
    6.1456   -1.5953    2.6527 H   0  0  0  0  0  0  0  0  0  0  0  0
    3.6963   -1.2150    2.7012 H   0  0  0  0  0  0  0  0  0  0  0  0
    4.1382   -2.3064    1.3427 H   0  0  0  0  0  0  0  0  0  0  0  0
    3.7337   -0.5858    1.0124 H   0  0  0  0  0  0  0  0  0  0  0  0
    7.9142    0.8404    1.9299 H   0  0  0  0  0  0  0  0  0  0  0  0
    7.9204    2.9907    1.1593 H   0  0  0  0  0  0  0  0  0  0  0  0
    7.1490    3.5007    3.5104 H   0  0  0  0  0  0  0  0  0  0  0  0
    5.4222    3.5114    2.9155 H   0  0  0  0  0  0  0  0  0  0  0  0
    6.6162    4.7205    2.2988 H   0  0  0  0  0  0  0  0  0  0  0  0
    6.3988    4.8764   -0.0696 H   0  0  0  0  0  0  0  0  0  0  0  0
    5.2693    3.0275   -2.2158 H   0  0  0  0  0  0  0  0  0  0  0  0
    7.0469    3.8391   -3.6907 H   0  0  0  0  0  0  0  0  0  0  0  0
    7.7824    3.2127   -2.1613 H   0  0  0  0  0  0  0  0  0  0  0  0
    7.6132    4.9890   -2.4239 H   0  0  0  0  0  0  0  0  0  0  0  0
    4.3901    7.0505   -1.7955 H   0  0  0  0  0  0  0  0  0  0  0  0
    2.4745    6.6640   -0.7023 H   0  0  0  0  0  0  0  0  0  0  0  0
    4.4168    6.4871    1.0138 H   0  0  0  0  0  0  0  0  0  0  0  0
    2.8091    5.8943    1.5486 H   0  0  0  0  0  0  0  0  0  0  0  0
    4.0407    4.7158    1.0483 H   0  0  0  0  0  0  0  0  0  0  0  0
    0.5750    3.3977   -0.5114 H   0  0  0  0  0  0  0  0  0  0  0  0
    0.7437    6.0983    0.7728 H   0  0  0  0  0  0  0  0  0  0  0  0
    0.6703    4.0159    2.4513 H   0  0  0  0  0  0  0  0  0  0  0  0
   -0.9884    3.4438    2.8309 H   0  0  0  0  0  0  0  0  0  0  0  0
   -1.5787    6.5342   -0.7431 H   0  0  0  0  0  0  0  0  0  0  0  0
    0.0201    7.2309   -1.0156 H   0  0  0  0  0  0  0  0  0  0  0  0
   -2.5851    6.3158   -3.0689 H   0  0  0  0  0  0  0  0  0  0  0  0
   -2.2448    4.7679   -3.9541 H   0  0  0  0  0  0  0  0  0  0  0  0
  1  2  1  0
  2  3  2  0
  2  4  1  0
  4  5  1  0
  5  6  1  0
  6  7  1  0
  7  8  1  0
  8  9  1  0
  9 10  2  0
 10 11  1  0
 11 12  2  0
 12 13  1  0
 13 14  2  0
 13 15  1  0
 15 16  1  0
 16 17  1  0
 17 18  1  0
 18 19  1  0
 19 20  1  0
 20 21  2  0
 20 22  1  0
 22 23  1  0
 22 24  1  0
 24 25  1  0
 25 26  2  0
 25 27  1  0
 27 28  1  0
 27 29  1  0
 29 30  1  0
 30 31  2  0
 30 32  1  0
 32 33  1  0
 32 34  1  0
 34 35  1  0
 35 36  2  0
 35 37  1  0
 37 38  1  0
 37 39  1  0
 39 40  1  0
 40 41  2  0
 18 42  1  0
 42 43  2  0
 42 44  1  0
 44 45  1  0
 45 46  1  0
 45 47  1  0
 47 48  2  0
 47 49  1  0
 49 50  1  0
 50 51  1  0
 50 52  1  0
 52 53  2  0
 52 54  1  0
 54 55  1  0
 55 56  1  0
 55 57  1  0
 57 58  2  0
 57 59  1  0
 59 60  1  0
 60 61  1  0
 60 62  1  0
 62 63  2  0
 62 64  1  0
 64 65  1  0
 65 66  1  0
 65 67  1  0
 67 68  2  0
 67 69  1  0
 69 70  1  0
 70 71  1  0
 70 72  1  0
 72 73  2  0
 72 74  1  0
 74 75  1  0
 75 76  1  0
 75 77  1  0
 77 78  2  0
 77 79  1  0
 79 80  1  0
 80 81  1  0
 80 82  1  0
 82 83  2  0
 82 84  1  0
 84 85  1  0
 85 86  1  0
 85 87  1  0
 87 88  2  0
 87 89  1  0
 89 90  1  0
 90 91  1  0
 91 92  1  0
 91 93  2  0
 90 94  1  0
 94 95  1  0
 95 96  1  0
 40  5  1  0
 14  9  1  0
 96 11  1  0
  1 97  1  0
  1 98  1  0
  1 99  1  0
  4100  1  0
  5101  1  6
  6102  1  0
  6103  1  0
  8104  1  0
  8105  1  0
 10106  1  0
 12107  1  0
 14108  1  0
 15109  1  0
 15110  1  0
 17111  1  0
 17112  1  0
 18113  1  6
 19114  1  0
 22115  1  1
 23116  1  0
 23117  1  0
 23118  1  0
 24119  1  0
 27120  1  1
 28121  1  0
 28122  1  0
 28123  1  0
 29124  1  0
 32125  1  1
 33126  1  0
 33127  1  0
 33128  1  0
 34129  1  0
 37130  1  1
 38131  1  0
 38132  1  0
 38133  1  0
 39134  1  0
 44135  1  0
 45136  1  6
 46137  1  0
 46138  1  0
 46139  1  0
 49140  1  0
 50141  1  6
 51142  1  0
 51143  1  0
 51144  1  0
 54145  1  0
 55146  1  6
 56147  1  0
 56148  1  0
 56149  1  0
 59150  1  0
 60151  1  6
 61152  1  0
 61153  1  0
 61154  1  0
 64155  1  0
 65156  1  6
 66157  1  0
 66158  1  0
 66159  1  0
 69160  1  0
 70161  1  1
 71162  1  0
 71163  1  0
 71164  1  0
 74165  1  0
 75166  1  6
 76167  1  0
 76168  1  0
 76169  1  0
 79170  1  0
 80171  1  1
 81172  1  0
 81173  1  0
 81174  1  0
 84175  1  0
 85176  1  1
 86177  1  0
 86178  1  0
 86179  1  0
 89180  1  0
 90181  1  1
 92182  1  0
 92183  1  0
 94184  1  0
 94185  1  0
 96186  1  0
 96187  1  0
M  END
