
     RDKit          3D

187189  0  0  0  0  0  0  0  0999 V2000
  -11.5513    6.3866   -0.2548 C   0  0  0  0  0  0  0  0  0  0  0  0
  -10.9875    5.6283    0.9104 C   0  0  0  0  0  0  0  0  0  0  0  0
  -10.9908    6.1753    2.0452 O   0  0  0  0  0  0  0  0  0  0  0  0
  -10.4685    4.2947    0.7788 N   0  0  0  0  0  0  0  0  0  0  0  0
  -10.3281    3.5781   -0.4964 C   0  0  1  0  0  0  0  0  0  0  0  0
   -8.8455    3.4904   -0.9451 C   0  0  0  0  0  0  0  0  0  0  0  0
   -7.5995    3.6865    0.4052 S   0  0  0  0  0  0  0  0  0  0  0  0
   -6.2047    3.8963   -0.7612 C   0  0  0  0  0  0  0  0  0  0  0  0
   -4.8668    3.5869   -0.1433 C   0  0  0  0  0  0  0  0  0  0  0  0
   -3.8231    4.5266   -0.2327 C   0  0  0  0  0  0  0  0  0  0  0  0
   -2.5078    4.1541    0.0744 C   0  0  0  0  0  0  0  0  0  0  0  0
   -2.2351    2.8496    0.4980 C   0  0  0  0  0  0  0  0  0  0  0  0
   -3.2779    1.9228    0.6659 C   0  0  0  0  0  0  0  0  0  0  0  0
   -4.5966    2.3112    0.3727 C   0  0  0  0  0  0  0  0  0  0  0  0
   -2.9661    0.5582    1.2407 C   0  0  0  0  0  0  0  0  0  0  0  0
   -3.8933   -0.8092    0.4394 S   0  0  0  0  0  0  0  0  0  0  0  0
   -2.4147   -1.7851   -0.0284 C   0  0  0  0  0  0  0  0  0  0  0  0
   -2.7949   -3.1570   -0.6010 C   0  0  2  0  0  0  0  0  0  0  0  0
   -3.5965   -3.9063    0.3750 N   0  0  0  0  0  0  0  0  0  0  0  0
   -4.6642   -4.8112    0.0462 C   0  0  0  0  0  0  0  0  0  0  0  0
   -5.3439   -5.3054    0.9858 O   0  0  0  0  0  0  0  0  0  0  0  0
   -5.0368   -5.1529   -1.3802 C   0  0  1  0  0  0  0  0  0  0  0  0
   -5.3349   -6.6531   -1.5346 C   0  0  0  0  0  0  0  0  0  0  0  0
   -6.1424   -4.2808   -1.8020 N   0  0  0  0  0  0  0  0  0  0  0  0
   -7.5307   -4.6144   -1.6530 C   0  0  0  0  0  0  0  0  0  0  0  0
   -7.9726   -5.6967   -2.1442 O   0  0  0  0  0  0  0  0  0  0  0  0
   -8.4901   -3.6170   -1.0353 C   0  0  1  0  0  0  0  0  0  0  0  0
   -9.9104   -4.1869   -0.9250 C   0  0  0  0  0  0  0  0  0  0  0  0
   -8.0166   -3.2335    0.3022 N   0  0  0  0  0  0  0  0  0  0  0  0
   -8.1080   -1.9221    0.9085 C   0  0  0  0  0  0  0  0  0  0  0  0
   -7.9386   -1.8396    2.1587 O   0  0  0  0  0  0  0  0  0  0  0  0
   -8.4612   -0.6601    0.1463 C   0  0  1  0  0  0  0  0  0  0  0  0
   -7.5035   -0.3728   -1.0368 C   0  0  0  0  0  0  0  0  0  0  0  0
   -9.8568   -0.7047   -0.2852 N   0  0  0  0  0  0  0  0  0  0  0  0
  -10.9966   -0.6321    0.6001 C   0  0  0  0  0  0  0  0  0  0  0  0
  -11.8859   -1.5215    0.5027 O   0  0  0  0  0  0  0  0  0  0  0  0
  -11.2988    0.5545    1.4969 C   0  0  1  0  0  0  0  0  0  0  0  0
  -10.2278    0.8752    2.5398 C   0  0  0  0  0  0  0  0  0  0  0  0
  -11.6686    1.7599    0.7490 N   0  0  0  0  0  0  0  0  0  0  0  0
  -10.9736    2.2127   -0.4243 C   0  0  0  0  0  0  0  0  0  0  0  0
  -10.9771    1.4980   -1.4593 O   0  0  0  0  0  0  0  0  0  0  0  0
   -1.5367   -3.9157   -0.9490 C   0  0  0  0  0  0  0  0  0  0  0  0
   -0.7080   -3.4147   -1.7577 O   0  0  0  0  0  0  0  0  0  0  0  0
   -1.2618   -5.1908   -0.3495 N   0  0  0  0  0  0  0  0  0  0  0  0
   -0.0483   -5.4728    0.4277 C   0  0  2  0  0  0  0  0  0  0  0  0
    0.2233   -4.3329    1.4212 C   0  0  0  0  0  0  0  0  0  0  0  0
    1.1406   -5.7209   -0.4771 C   0  0  0  0  0  0  0  0  0  0  0  0
    0.9642   -5.8915   -1.7105 O   0  0  0  0  0  0  0  0  0  0  0  0
    2.4860   -5.6915    0.0258 N   0  0  0  0  0  0  0  0  0  0  0  0
    3.1150   -6.7270    0.8625 C   0  0  2  0  0  0  0  0  0  0  0  0
    2.1142   -7.5570    1.6801 C   0  0  0  0  0  0  0  0  0  0  0  0
    4.1087   -6.0661    1.7905 C   0  0  0  0  0  0  0  0  0  0  0  0
    3.6768   -5.2221    2.6236 O   0  0  0  0  0  0  0  0  0  0  0  0
    5.5250   -6.3086    1.7429 N   0  0  0  0  0  0  0  0  0  0  0  0
    6.2001   -7.3430    0.9476 C   0  0  2  0  0  0  0  0  0  0  0  0
    6.0320   -8.7062    1.6312 C   0  0  0  0  0  0  0  0  0  0  0  0
    7.6617   -6.9675    0.7713 C   0  0  0  0  0  0  0  0  0  0  0  0
    8.5616   -7.7001    1.2685 O   0  0  0  0  0  0  0  0  0  0  0  0
    8.0638   -5.7975    0.0366 N   0  0  0  0  0  0  0  0  0  0  0  0
    7.1539   -4.8990   -0.6918 C   0  0  2  0  0  0  0  0  0  0  0  0
    7.5399   -4.8388   -2.1720 C   0  0  0  0  0  0  0  0  0  0  0  0
    7.1059   -3.5362   -0.0338 C   0  0  0  0  0  0  0  0  0  0  0  0
    5.9848   -3.0090    0.1794 O   0  0  0  0  0  0  0  0  0  0  0  0
    8.2757   -2.8768    0.4751 N   0  0  0  0  0  0  0  0  0  0  0  0
    9.4277   -2.5181   -0.3615 C   0  0  2  0  0  0  0  0  0  0  0  0
   10.6664   -2.2557    0.4990 C   0  0  0  0  0  0  0  0  0  0  0  0
    9.0892   -1.3587   -1.2742 C   0  0  0  0  0  0  0  0  0  0  0  0
    8.6615   -1.6157   -2.4354 O   0  0  0  0  0  0  0  0  0  0  0  0
    9.3001    0.0199   -0.9128 N   0  0  0  0  0  0  0  0  0  0  0  0
    8.8244    0.6182    0.3362 C   0  0  2  0  0  0  0  0  0  0  0  0
    7.4979    1.3388    0.0874 C   0  0  0  0  0  0  0  0  0  0  0  0
    9.8997    1.5160    0.9001 C   0  0  0  0  0  0  0  0  0  0  0  0
   11.0403    1.0312    1.1250 O   0  0  0  0  0  0  0  0  0  0  0  0
    9.6399    2.8671    1.2940 N   0  0  0  0  0  0  0  0  0  0  0  0
    9.7834    3.9863    0.3468 C   0  0  2  0  0  0  0  0  0  0  0  0
   11.2531    4.1332   -0.0634 C   0  0  0  0  0  0  0  0  0  0  0  0
    9.3246    5.2775    0.9907 C   0  0  0  0  0  0  0  0  0  0  0  0
    9.8271    5.6078    2.0991 O   0  0  0  0  0  0  0  0  0  0  0  0
    8.4130    6.1968    0.3594 N   0  0  0  0  0  0  0  0  0  0  0  0
    7.5228    5.8933   -0.7624 C   0  0  2  0  0  0  0  0  0  0  0  0
    8.1768    6.3598   -2.0668 C   0  0  0  0  0  0  0  0  0  0  0  0
    6.1765    6.5442   -0.5584 C   0  0  0  0  0  0  0  0  0  0  0  0
    5.9149    7.1413    0.5199 O   0  0  0  0  0  0  0  0  0  0  0  0
    5.1392    6.3875   -1.5319 N   0  0  0  0  0  0  0  0  0  0  0  0
    3.8743    5.7496   -1.1710 C   0  0  2  0  0  0  0  0  0  0  0  0
    4.0241    4.2288   -1.3183 C   0  0  0  0  0  0  0  0  0  0  0  0
    2.7456    6.2450   -2.0485 C   0  0  0  0  0  0  0  0  0  0  0  0
    2.8595    6.1293   -3.2966 O   0  0  0  0  0  0  0  0  0  0  0  0
    1.5297    6.8247   -1.5192 N   0  0  0  0  0  0  0  0  0  0  0  0
    1.2251    7.0881   -0.1036 C   0  0  2  0  0  0  0  0  0  0  0  0
    2.1795    8.1104    0.4800 C   0  0  0  0  0  0  0  0  0  0  0  0
    2.2018    8.3732    1.8861 N   0  0  0  0  0  0  0  0  0  0  0  0
    2.8564    8.8452   -0.2989 O   0  0  0  0  0  0  0  0  0  0  0  0
    1.1500    5.7642    0.7022 C   0  0  0  0  0  0  0  0  0  0  0  0
   -0.5123    5.4767    1.4264 S   0  0  0  0  0  0  0  0  0  0  0  0
   -1.3644    5.1121   -0.1572 C   0  0  0  0  0  0  0  0  0  0  0  0
  -11.8758    7.3959    0.0601 H   0  0  0  0  0  0  0  0  0  0  0  0
  -12.4287    5.8425   -0.6582 H   0  0  0  0  0  0  0  0  0  0  0  0
  -10.7862    6.4983   -1.0495 H   0  0  0  0  0  0  0  0  0  0  0  0
  -10.1248    3.8315    1.6492 H   0  0  0  0  0  0  0  0  0  0  0  0
  -10.8859    4.1134   -1.2958 H   0  0  0  0  0  0  0  0  0  0  0  0
   -8.6438    2.5093   -1.4305 H   0  0  0  0  0  0  0  0  0  0  0  0
   -8.6733    4.2789   -1.7157 H   0  0  0  0  0  0  0  0  0  0  0  0
   -6.3269    3.2171   -1.6254 H   0  0  0  0  0  0  0  0  0  0  0  0
   -6.2386    4.9372   -1.1445 H   0  0  0  0  0  0  0  0  0  0  0  0
   -4.0217    5.5217   -0.6121 H   0  0  0  0  0  0  0  0  0  0  0  0
   -1.2171    2.5514    0.6956 H   0  0  0  0  0  0  0  0  0  0  0  0
   -5.4010    1.6139    0.5101 H   0  0  0  0  0  0  0  0  0  0  0  0
   -3.2221    0.5871    2.3168 H   0  0  0  0  0  0  0  0  0  0  0  0
   -1.8699    0.3703    1.2033 H   0  0  0  0  0  0  0  0  0  0  0  0
   -1.7604   -1.9224    0.8596 H   0  0  0  0  0  0  0  0  0  0  0  0
   -1.8589   -1.2055   -0.7952 H   0  0  0  0  0  0  0  0  0  0  0  0
   -3.3767   -2.9818   -1.5266 H   0  0  0  0  0  0  0  0  0  0  0  0
   -3.3262   -3.8382    1.3857 H   0  0  0  0  0  0  0  0  0  0  0  0
   -4.1749   -4.9533   -2.0488 H   0  0  0  0  0  0  0  0  0  0  0  0
   -5.6164   -6.8775   -2.5864 H   0  0  0  0  0  0  0  0  0  0  0  0
   -6.1452   -6.9793   -0.8582 H   0  0  0  0  0  0  0  0  0  0  0  0
   -4.4250   -7.2372   -1.2978 H   0  0  0  0  0  0  0  0  0  0  0  0
   -5.9166   -3.2681   -1.8658 H   0  0  0  0  0  0  0  0  0  0  0  0
   -8.5272   -2.7417   -1.6998 H   0  0  0  0  0  0  0  0  0  0  0  0
  -10.3064   -4.4229   -1.9366 H   0  0  0  0  0  0  0  0  0  0  0  0
  -10.5857   -3.4499   -0.4482 H   0  0  0  0  0  0  0  0  0  0  0  0
   -9.9121   -5.1100   -0.3038 H   0  0  0  0  0  0  0  0  0  0  0  0
   -7.7384   -4.0189    0.9353 H   0  0  0  0  0  0  0  0  0  0  0  0
   -8.3310    0.1936    0.8410 H   0  0  0  0  0  0  0  0  0  0  0  0
   -6.8123    0.4651   -0.7941 H   0  0  0  0  0  0  0  0  0  0  0  0
   -8.0537   -0.0878   -1.9629 H   0  0  0  0  0  0  0  0  0  0  0  0
   -6.8453   -1.2369   -1.2512 H   0  0  0  0  0  0  0  0  0  0  0  0
  -10.0513   -1.0758   -1.2451 H   0  0  0  0  0  0  0  0  0  0  0  0
  -12.1957    0.2631    2.0916 H   0  0  0  0  0  0  0  0  0  0  0  0
   -9.4324    1.5163    2.1169 H   0  0  0  0  0  0  0  0  0  0  0  0
  -10.6849    1.4537    3.3735 H   0  0  0  0  0  0  0  0  0  0  0  0
   -9.7979   -0.0554    2.9597 H   0  0  0  0  0  0  0  0  0  0  0  0
  -12.3000    2.4427    1.2329 H   0  0  0  0  0  0  0  0  0  0  0  0
   -2.0207   -5.9167   -0.3625 H   0  0  0  0  0  0  0  0  0  0  0  0
   -0.2398   -6.3945    1.0140 H   0  0  0  0  0  0  0  0  0  0  0  0
    1.0674   -4.5856    2.0967 H   0  0  0  0  0  0  0  0  0  0  0  0
    0.4717   -3.3952    0.8842 H   0  0  0  0  0  0  0  0  0  0  0  0
   -0.6759   -4.1579    2.0478 H   0  0  0  0  0  0  0  0  0  0  0  0
    3.1566   -5.1283   -0.5479 H   0  0  0  0  0  0  0  0  0  0  0  0
    3.6156   -7.4378    0.1771 H   0  0  0  0  0  0  0  0  0  0  0  0
    2.6549   -8.3365    2.2573 H   0  0  0  0  0  0  0  0  0  0  0  0
    1.5563   -6.9273    2.4029 H   0  0  0  0  0  0  0  0  0  0  0  0
    1.4009   -8.0804    1.0096 H   0  0  0  0  0  0  0  0  0  0  0  0
    6.1165   -5.6904    2.3416 H   0  0  0  0  0  0  0  0  0  0  0  0
    5.7623   -7.4084   -0.0691 H   0  0  0  0  0  0  0  0  0  0  0  0
    6.4570   -8.6816    2.6621 H   0  0  0  0  0  0  0  0  0  0  0  0
    6.5472   -9.4954    1.0394 H   0  0  0  0  0  0  0  0  0  0  0  0
    4.9571   -8.9718    1.6945 H   0  0  0  0  0  0  0  0  0  0  0  0
    9.0864   -5.5601    0.0334 H   0  0  0  0  0  0  0  0  0  0  0  0
    6.1198   -5.2993   -0.6789 H   0  0  0  0  0  0  0  0  0  0  0  0
    7.0115   -4.0037   -2.6810 H   0  0  0  0  0  0  0  0  0  0  0  0
    7.2466   -5.7901   -2.6664 H   0  0  0  0  0  0  0  0  0  0  0  0
    8.6300   -4.7241   -2.3182 H   0  0  0  0  0  0  0  0  0  0  0  0
    8.1614   -2.3834    1.3870 H   0  0  0  0  0  0  0  0  0  0  0  0
    9.6955   -3.3841   -0.9975 H   0  0  0  0  0  0  0  0  0  0  0  0
   11.0076   -3.2090    0.9576 H   0  0  0  0  0  0  0  0  0  0  0  0
   11.4935   -1.8550   -0.1254 H   0  0  0  0  0  0  0  0  0  0  0  0
   10.4570   -1.5434    1.3217 H   0  0  0  0  0  0  0  0  0  0  0  0
    9.5427    0.6717   -1.6901 H   0  0  0  0  0  0  0  0  0  0  0  0
    8.6340   -0.1684    1.0907 H   0  0  0  0  0  0  0  0  0  0  0  0
    7.5971    2.0840   -0.7325 H   0  0  0  0  0  0  0  0  0  0  0  0
    6.7282    0.5979   -0.2122 H   0  0  0  0  0  0  0  0  0  0  0  0
    7.1471    1.8463    1.0092 H   0  0  0  0  0  0  0  0  0  0  0  0
    9.7961    3.0729    2.3094 H   0  0  0  0  0  0  0  0  0  0  0  0
    9.2149    3.7625   -0.5725 H   0  0  0  0  0  0  0  0  0  0  0  0
   11.5927    3.2247   -0.6086 H   0  0  0  0  0  0  0  0  0  0  0  0
   11.3757    5.0045   -0.7434 H   0  0  0  0  0  0  0  0  0  0  0  0
   11.8932    4.2738    0.8293 H   0  0  0  0  0  0  0  0  0  0  0  0
    8.4355    7.1829    0.7034 H   0  0  0  0  0  0  0  0  0  0  0  0
    7.3330    4.7985   -0.8234 H   0  0  0  0  0  0  0  0  0  0  0  0
    8.3436    7.4594   -2.0403 H   0  0  0  0  0  0  0  0  0  0  0  0
    7.5382    6.1085   -2.9408 H   0  0  0  0  0  0  0  0  0  0  0  0
    9.1574    5.8575   -2.2038 H   0  0  0  0  0  0  0  0  0  0  0  0
    5.2562    6.8489   -2.4661 H   0  0  0  0  0  0  0  0  0  0  0  0
    3.6630    5.9568   -0.1068 H   0  0  0  0  0  0  0  0  0  0  0  0
    4.2871    3.9621   -2.3620 H   0  0  0  0  0  0  0  0  0  0  0  0
    4.8252    3.8680   -0.6403 H   0  0  0  0  0  0  0  0  0  0  0  0
    3.0791    3.7197   -1.0426 H   0  0  0  0  0  0  0  0  0  0  0  0
    0.7951    7.0980   -2.2091 H   0  0  0  0  0  0  0  0  0  0  0  0
    0.2291    7.5758   -0.0636 H   0  0  0  0  0  0  0  0  0  0  0  0
    1.5383    7.9056    2.5471 H   0  0  0  0  0  0  0  0  0  0  0  0
    2.8425    9.1095    2.2602 H   0  0  0  0  0  0  0  0  0  0  0  0
    1.8791    5.7482    1.5414 H   0  0  0  0  0  0  0  0  0  0  0  0
    1.3967    4.8862    0.0687 H   0  0  0  0  0  0  0  0  0  0  0  0
   -0.6716    4.6705   -0.9060 H   0  0  0  0  0  0  0  0  0  0  0  0
   -1.7340    6.0780   -0.5721 H   0  0  0  0  0  0  0  0  0  0  0  0
  1  2  1  0
  2  3  2  0
  2  4  1  0
  4  5  1  0
  5  6  1  0
  6  7  1  0
  7  8  1  0
  8  9  1  0
  9 10  2  0
 10 11  1  0
 11 12  2  0
 12 13  1  0
 13 14  2  0
 13 15  1  0
 15 16  1  0
 16 17  1  0
 17 18  1  0
 18 19  1  0
 19 20  1  0
 20 21  2  0
 20 22  1  0
 22 23  1  0
 22 24  1  0
 24 25  1  0
 25 26  2  0
 25 27  1  0
 27 28  1  0
 27 29  1  0
 29 30  1  0
 30 31  2  0
 30 32  1  0
 32 33  1  0
 32 34  1  0
 34 35  1  0
 35 36  2  0
 35 37  1  0
 37 38  1  0
 37 39  1  0
 39 40  1  0
 40 41  2  0
 18 42  1  0
 42 43  2  0
 42 44  1  0
 44 45  1  0
 45 46  1  0
 45 47  1  0
 47 48  2  0
 47 49  1  0
 49 50  1  0
 50 51  1  0
 50 52  1  0
 52 53  2  0
 52 54  1  0
 54 55  1  0
 55 56  1  0
 55 57  1  0
 57 58  2  0
 57 59  1  0
 59 60  1  0
 60 61  1  0
 60 62  1  0
 62 63  2  0
 62 64  1  0
 64 65  1  0
 65 66  1  0
 65 67  1  0
 67 68  2  0
 67 69  1  0
 69 70  1  0
 70 71  1  0
 70 72  1  0
 72 73  2  0
 72 74  1  0
 74 75  1  0
 75 76  1  0
 75 77  1  0
 77 78  2  0
 77 79  1  0
 79 80  1  0
 80 81  1  0
 80 82  1  0
 82 83  2  0
 82 84  1  0
 84 85  1  0
 85 86  1  0
 85 87  1  0
 87 88  2  0
 87 89  1  0
 89 90  1  0
 90 91  1  0
 91 92  1  0
 91 93  2  0
 90 94  1  0
 94 95  1  0
 95 96  1  0
 40  5  1  0
 14  9  1  0
 96 11  1  0
  1 97  1  0
  1 98  1  0
  1 99  1  0
  4100  1  0
  5101  1  6
  6102  1  0
  6103  1  0
  8104  1  0
  8105  1  0
 10106  1  0
 12107  1  0
 14108  1  0
 15109  1  0
 15110  1  0
 17111  1  0
 17112  1  0
 18113  1  6
 19114  1  0
 22115  1  6
 23116  1  0
 23117  1  0
 23118  1  0
 24119  1  0
 27120  1  6
 28121  1  0
 28122  1  0
 28123  1  0
 29124  1  0
 32125  1  1
 33126  1  0
 33127  1  0
 33128  1  0
 34129  1  0
 37130  1  1
 38131  1  0
 38132  1  0
 38133  1  0
 39134  1  0
 44135  1  0
 45136  1  1
 46137  1  0
 46138  1  0
 46139  1  0
 49140  1  0
 50141  1  6
 51142  1  0
 51143  1  0
 51144  1  0
 54145  1  0
 55146  1  6
 56147  1  0
 56148  1  0
 56149  1  0
 59150  1  0
 60151  1  6
 61152  1  0
 61153  1  0
 61154  1  0
 64155  1  0
 65156  1  6
 66157  1  0
 66158  1  0
 66159  1  0
 69160  1  0
 70161  1  1
 71162  1  0
 71163  1  0
 71164  1  0
 74165  1  0
 75166  1  6
 76167  1  0
 76168  1  0
 76169  1  0
 79170  1  0
 80171  1  6
 81172  1  0
 81173  1  0
 81174  1  0
 84175  1  0
 85176  1  1
 86177  1  0
 86178  1  0
 86179  1  0
 89180  1  0
 90181  1  6
 92182  1  0
 92183  1  0
 94184  1  0
 94185  1  0
 96186  1  0
 96187  1  0
M  END
