
     RDKit          3D

197199  0  0  0  0  0  0  0  0999 V2000
  -12.2977    5.9664    0.5526 C   0  0  0  0  0  0  0  0  0  0  0  0
  -11.0976    5.6003   -0.2565 C   0  0  0  0  0  0  0  0  0  0  0  0
  -11.2533    5.2649   -1.4627 O   0  0  0  0  0  0  0  0  0  0  0  0
   -9.7885    5.6406    0.3228 N   0  0  0  0  0  0  0  0  0  0  0  0
   -8.7992    4.5593    0.2008 C   0  0  2  0  0  0  0  0  0  0  0  0
   -8.4575    4.2427   -1.2805 C   0  0  0  0  0  0  0  0  0  0  0  0
   -6.6499    4.2140   -1.6068 S   0  0  0  0  0  0  0  0  0  0  0  0
   -6.2933    2.5692   -0.8904 C   0  0  0  0  0  0  0  0  0  0  0  0
   -4.8133    2.4219   -0.6615 C   0  0  0  0  0  0  0  0  0  0  0  0
   -4.1413    3.3415    0.1657 C   0  0  0  0  0  0  0  0  0  0  0  0
   -2.7572    3.2457    0.3639 C   0  0  0  0  0  0  0  0  0  0  0  0
   -2.0418    2.2114   -0.2576 C   0  0  0  0  0  0  0  0  0  0  0  0
   -2.7112    1.2433   -1.0216 C   0  0  0  0  0  0  0  0  0  0  0  0
   -4.0931    1.3659   -1.2408 C   0  0  0  0  0  0  0  0  0  0  0  0
   -1.9459    0.0769   -1.5974 C   0  0  0  0  0  0  0  0  0  0  0  0
   -0.9059   -0.7675   -0.3399 S   0  0  0  0  0  0  0  0  0  0  0  0
   -2.2675   -1.3727    0.7291 C   0  0  0  0  0  0  0  0  0  0  0  0
   -2.7879   -2.7503    0.2698 C   0  0  2  0  0  0  0  0  0  0  0  0
   -4.0382   -3.0580    0.9614 N   0  0  0  0  0  0  0  0  0  0  0  0
   -5.2767   -2.4980    0.5145 C   0  0  0  0  0  0  0  0  0  0  0  0
   -5.6698   -1.4065    1.0075 O   0  0  0  0  0  0  0  0  0  0  0  0
   -6.1480   -3.2167   -0.4793 C   0  0  1  0  0  0  0  0  0  0  0  0
   -5.5252   -3.2171   -1.8731 C   0  0  0  0  0  0  0  0  0  0  0  0
   -6.3800   -4.5922   -0.0350 N   0  0  0  0  0  0  0  0  0  0  0  0
   -7.6511   -5.1585    0.3343 C   0  0  0  0  0  0  0  0  0  0  0  0
   -7.6550   -6.1744    1.0811 O   0  0  0  0  0  0  0  0  0  0  0  0
   -8.9783   -4.6393   -0.1800 C   0  0  1  0  0  0  0  0  0  0  0  0
   -9.6859   -5.7229   -0.9977 C   0  0  0  0  0  0  0  0  0  0  0  0
   -9.8271   -4.2623    0.9558 N   0  0  0  0  0  0  0  0  0  0  0  0
  -10.4961   -2.9959    1.1223 C   0  0  0  0  0  0  0  0  0  0  0  0
  -11.4386   -2.9224    1.9562 O   0  0  0  0  0  0  0  0  0  0  0  0
  -10.1184   -1.7638    0.3366 C   0  0  1  0  0  0  0  0  0  0  0  0
  -10.9399   -1.6960   -0.9586 C   0  0  0  0  0  0  0  0  0  0  0  0
  -10.2759   -0.5685    1.1831 N   0  0  0  0  0  0  0  0  0  0  0  0
  -11.2044    0.4913    0.9333 C   0  0  0  0  0  0  0  0  0  0  0  0
  -12.2837    0.5306    1.5849 O   0  0  0  0  0  0  0  0  0  0  0  0
  -10.8436    1.6081   -0.0071 C   0  0  1  0  0  0  0  0  0  0  0  0
  -11.9639    1.8519   -1.0248 C   0  0  0  0  0  0  0  0  0  0  0  0
  -10.5976    2.8250    0.7630 N   0  0  0  0  0  0  0  0  0  0  0  0
   -9.2795    3.3369    0.9556 C   0  0  0  0  0  0  0  0  0  0  0  0
   -8.5248    2.7835    1.7946 O   0  0  0  0  0  0  0  0  0  0  0  0
   -1.7976   -3.8552    0.5410 C   0  0  0  0  0  0  0  0  0  0  0  0
   -1.0281   -3.7941    1.5381 O   0  0  0  0  0  0  0  0  0  0  0  0
   -1.7734   -5.0157   -0.3050 N   0  0  0  0  0  0  0  0  0  0  0  0
   -2.0461   -6.3758    0.1760 C   0  0  2  0  0  0  0  0  0  0  0  0
   -1.7196   -6.6040    1.6655 C   0  0  0  0  0  0  0  0  0  0  0  0
   -1.3470   -7.4015   -0.6934 C   0  0  0  0  0  0  0  0  0  0  0  0
   -2.0348   -8.3492   -1.1571 O   0  0  0  0  0  0  0  0  0  0  0  0
    0.0480   -7.3348   -1.0429 N   0  0  0  0  0  0  0  0  0  0  0  0
    1.0474   -6.4292   -0.4703 C   0  0  2  0  0  0  0  0  0  0  0  0
    1.7133   -5.6291   -1.5942 C   0  0  0  0  0  0  0  0  0  0  0  0
    2.0271   -7.2159    0.3656 C   0  0  0  0  0  0  0  0  0  0  0  0
    1.5903   -7.9364    1.3009 O   0  0  0  0  0  0  0  0  0  0  0  0
    3.4453   -7.1093    0.1798 N   0  0  0  0  0  0  0  0  0  0  0  0
    4.1343   -7.9534   -0.8010 C   0  0  2  0  0  0  0  0  0  0  0  0
    4.5214   -9.2981   -0.1809 C   0  0  0  0  0  0  0  0  0  0  0  0
    5.3436   -7.2574   -1.3879 C   0  0  0  0  0  0  0  0  0  0  0  0
    5.7198   -7.5856   -2.5439 O   0  0  0  0  0  0  0  0  0  0  0  0
    6.0331   -6.1952   -0.7085 N   0  0  0  0  0  0  0  0  0  0  0  0
    6.6933   -6.3823    0.5834 C   0  0  2  0  0  0  0  0  0  0  0  0
    6.6079   -5.0935    1.4125 C   0  0  0  0  0  0  0  0  0  0  0  0
    8.1192   -6.8439    0.3859 C   0  0  0  0  0  0  0  0  0  0  0  0
    8.3399   -8.0739    0.2165 O   0  0  0  0  0  0  0  0  0  0  0  0
    9.2363   -5.9407    0.4349 N   0  0  0  0  0  0  0  0  0  0  0  0
    9.4316   -4.9182   -0.5965 C   0  0  2  0  0  0  0  0  0  0  0  0
   10.2088   -5.5090   -1.7695 C   0  0  0  0  0  0  0  0  0  0  0  0
   10.1694   -3.7298   -0.0330 C   0  0  0  0  0  0  0  0  0  0  0  0
   11.2796   -3.8952    0.5408 O   0  0  0  0  0  0  0  0  0  0  0  0
    9.6124   -2.4109   -0.1829 N   0  0  0  0  0  0  0  0  0  0  0  0
   10.3857   -1.1695   -0.3454 C   0  0  2  0  0  0  0  0  0  0  0  0
   11.7434   -1.4022   -1.0170 C   0  0  0  0  0  0  0  0  0  0  0  0
   10.5520   -0.4729    0.9852 C   0  0  0  0  0  0  0  0  0  0  0  0
   10.8607   -1.1585    1.9975 O   0  0  0  0  0  0  0  0  0  0  0  0
   10.3440    0.9433    1.1409 N   0  0  0  0  0  0  0  0  0  0  0  0
   10.5346    1.9438    0.0766 C   0  0  2  0  0  0  0  0  0  0  0  0
   11.7653    2.7995    0.3938 C   0  0  0  0  0  0  0  0  0  0  0  0
    9.2789    2.7621   -0.0637 C   0  0  0  0  0  0  0  0  0  0  0  0
    8.2221    2.2038   -0.4612 O   0  0  0  0  0  0  0  0  0  0  0  0
    9.2511    4.1532    0.2764 N   0  0  0  0  0  0  0  0  0  0  0  0
    9.2978    5.1887   -0.7560 C   0  0  2  0  0  0  0  0  0  0  0  0
   10.2044    6.3299   -0.2808 C   0  0  0  0  0  0  0  0  0  0  0  0
    7.8929    5.6321   -1.0917 C   0  0  0  0  0  0  0  0  0  0  0  0
    7.1159    4.8097   -1.6531 O   0  0  0  0  0  0  0  0  0  0  0  0
    7.4439    6.9789   -0.8655 N   0  0  0  0  0  0  0  0  0  0  0  0
    6.4081    7.3447    0.1158 C   0  0  2  0  0  0  0  0  0  0  0  0
    7.0422    7.5535    1.4908 C   0  0  0  0  0  0  0  0  0  0  0  0
    5.2838    6.3285    0.2053 C   0  0  0  0  0  0  0  0  0  0  0  0
    5.5432    5.1753    0.6489 O   0  0  0  0  0  0  0  0  0  0  0  0
    3.9246    6.6308   -0.1512 N   0  0  0  0  0  0  0  0  0  0  0  0
    3.4808    7.8490   -0.8466 C   0  0  2  0  0  0  0  0  0  0  0  0
    3.4124    9.0609    0.1114 C   0  0  0  0  0  0  0  0  0  0  0  0
    2.1593    7.6037   -1.5506 C   0  0  0  0  0  0  0  0  0  0  0  0
    2.1511    7.6462   -2.8117 O   0  0  0  0  0  0  0  0  0  0  0  0
    0.9324    7.2810   -0.8710 N   0  0  0  0  0  0  0  0  0  0  0  0
    0.7114    7.2840    0.5848 C   0  0  1  0  0  0  0  0  0  0  0  0
   -0.0769    8.4999    1.0099 C   0  0  0  0  0  0  0  0  0  0  0  0
   -0.1855    8.8336    2.3925 N   0  0  0  0  0  0  0  0  0  0  0  0
   -0.6459    9.2287    0.1498 O   0  0  0  0  0  0  0  0  0  0  0  0
    0.0297    5.9820    1.0320 C   0  0  0  0  0  0  0  0  0  0  0  0
   -1.5985    5.7138    0.2354 S   0  0  0  0  0  0  0  0  0  0  0  0
   -2.0400    4.2449    1.2257 C   0  0  0  0  0  0  0  0  0  0  0  0
  -12.7797    6.8681    0.1212 H   0  0  0  0  0  0  0  0  0  0  0  0
  -13.0192    5.1238    0.5405 H   0  0  0  0  0  0  0  0  0  0  0  0
  -12.0122    6.1674    1.6077 H   0  0  0  0  0  0  0  0  0  0  0  0
   -9.6064    6.3704    1.0490 H   0  0  0  0  0  0  0  0  0  0  0  0
   -7.8706    4.9107    0.6965 H   0  0  0  0  0  0  0  0  0  0  0  0
   -8.8399    5.0541   -1.9363 H   0  0  0  0  0  0  0  0  0  0  0  0
   -8.9240    3.2986   -1.6293 H   0  0  0  0  0  0  0  0  0  0  0  0
   -6.6805    1.7851   -1.5755 H   0  0  0  0  0  0  0  0  0  0  0  0
   -6.7994    2.4561    0.0835 H   0  0  0  0  0  0  0  0  0  0  0  0
   -4.6943    4.1414    0.6437 H   0  0  0  0  0  0  0  0  0  0  0  0
   -0.9702    2.1448   -0.1184 H   0  0  0  0  0  0  0  0  0  0  0  0
   -4.6083    0.6396   -1.8596 H   0  0  0  0  0  0  0  0  0  0  0  0
   -2.6278   -0.6646   -2.0577 H   0  0  0  0  0  0  0  0  0  0  0  0
   -1.2847    0.4598   -2.4014 H   0  0  0  0  0  0  0  0  0  0  0  0
   -1.8931   -1.4304    1.7736 H   0  0  0  0  0  0  0  0  0  0  0  0
   -3.0960   -0.6368    0.7427 H   0  0  0  0  0  0  0  0  0  0  0  0
   -2.9812   -2.6960   -0.8235 H   0  0  0  0  0  0  0  0  0  0  0  0
   -3.9794   -3.3076    1.9748 H   0  0  0  0  0  0  0  0  0  0  0  0
   -7.0914   -2.6534   -0.5467 H   0  0  0  0  0  0  0  0  0  0  0  0
   -5.2369   -2.1873   -2.1758 H   0  0  0  0  0  0  0  0  0  0  0  0
   -4.6331   -3.8766   -1.9079 H   0  0  0  0  0  0  0  0  0  0  0  0
   -6.2671   -3.6027   -2.6080 H   0  0  0  0  0  0  0  0  0  0  0  0
   -5.5376   -5.1977    0.1135 H   0  0  0  0  0  0  0  0  0  0  0  0
   -8.8328   -3.7947   -0.8777 H   0  0  0  0  0  0  0  0  0  0  0  0
  -10.6513   -5.3354   -1.3824 H   0  0  0  0  0  0  0  0  0  0  0  0
   -9.8924   -6.6216   -0.3770 H   0  0  0  0  0  0  0  0  0  0  0  0
   -9.0573   -6.0187   -1.8642 H   0  0  0  0  0  0  0  0  0  0  0  0
  -10.0626   -5.0124    1.6469 H   0  0  0  0  0  0  0  0  0  0  0  0
   -9.0479   -1.8096    0.0662 H   0  0  0  0  0  0  0  0  0  0  0  0
  -10.8368   -2.6362   -1.5377 H   0  0  0  0  0  0  0  0  0  0  0  0
  -12.0179   -1.5416   -0.7367 H   0  0  0  0  0  0  0  0  0  0  0  0
  -10.5701   -0.8701   -1.6001 H   0  0  0  0  0  0  0  0  0  0  0  0
   -9.7635   -0.5465    2.0933 H   0  0  0  0  0  0  0  0  0  0  0  0
   -9.9223    1.3260   -0.5653 H   0  0  0  0  0  0  0  0  0  0  0  0
  -12.0468    0.9927   -1.7193 H   0  0  0  0  0  0  0  0  0  0  0  0
  -11.7385    2.7551   -1.6258 H   0  0  0  0  0  0  0  0  0  0  0  0
  -12.9365    1.9944   -0.5153 H   0  0  0  0  0  0  0  0  0  0  0  0
  -11.3763    3.2369    1.3243 H   0  0  0  0  0  0  0  0  0  0  0  0
   -1.9160   -4.8601   -1.3326 H   0  0  0  0  0  0  0  0  0  0  0  0
   -3.1438   -6.5373    0.0788 H   0  0  0  0  0  0  0  0  0  0  0  0
   -1.9474   -7.6537    1.9415 H   0  0  0  0  0  0  0  0  0  0  0  0
   -0.6553   -6.4047    1.8991 H   0  0  0  0  0  0  0  0  0  0  0  0
   -2.3583   -5.9532    2.3022 H   0  0  0  0  0  0  0  0  0  0  0  0
    0.3986   -8.0660   -1.7051 H   0  0  0  0  0  0  0  0  0  0  0  0
    0.5779   -5.6854    0.2000 H   0  0  0  0  0  0  0  0  0  0  0  0
    2.4938   -4.9504   -1.1860 H   0  0  0  0  0  0  0  0  0  0  0  0
    0.9489   -5.0043   -2.1052 H   0  0  0  0  0  0  0  0  0  0  0  0
    2.1672   -6.3079   -2.3475 H   0  0  0  0  0  0  0  0  0  0  0  0
    3.9793   -6.7734    1.0069 H   0  0  0  0  0  0  0  0  0  0  0  0
    3.4339   -8.1774   -1.6407 H   0  0  0  0  0  0  0  0  0  0  0  0
    5.1729   -9.1591    0.7022 H   0  0  0  0  0  0  0  0  0  0  0  0
    5.0552   -9.9245   -0.9277 H   0  0  0  0  0  0  0  0  0  0  0  0
    3.6071   -9.8445    0.1381 H   0  0  0  0  0  0  0  0  0  0  0  0
    6.3571   -5.4041   -1.3102 H   0  0  0  0  0  0  0  0  0  0  0  0
    6.1764   -7.1670    1.1677 H   0  0  0  0  0  0  0  0  0  0  0  0
    7.1311   -5.2304    2.3796 H   0  0  0  0  0  0  0  0  0  0  0  0
    5.5455   -4.8562    1.6236 H   0  0  0  0  0  0  0  0  0  0  0  0
    7.0559   -4.2356    0.8750 H   0  0  0  0  0  0  0  0  0  0  0  0
   10.0910   -6.2817    0.9271 H   0  0  0  0  0  0  0  0  0  0  0  0
    8.4524   -4.5730   -0.9885 H   0  0  0  0  0  0  0  0  0  0  0  0
    9.6386   -6.3554   -2.2059 H   0  0  0  0  0  0  0  0  0  0  0  0
   11.2009   -5.8856   -1.4360 H   0  0  0  0  0  0  0  0  0  0  0  0
   10.3551   -4.7443   -2.5627 H   0  0  0  0  0  0  0  0  0  0  0  0
    8.5636   -2.3267   -0.1819 H   0  0  0  0  0  0  0  0  0  0  0  0
    9.7871   -0.5211   -1.0246 H   0  0  0  0  0  0  0  0  0  0  0  0
   12.4603   -1.8864   -0.3217 H   0  0  0  0  0  0  0  0  0  0  0  0
   11.6279   -2.0349   -1.9189 H   0  0  0  0  0  0  0  0  0  0  0  0
   12.1847   -0.4310   -1.3267 H   0  0  0  0  0  0  0  0  0  0  0  0
   10.2037    1.3052    2.1163 H   0  0  0  0  0  0  0  0  0  0  0  0
   10.7284    1.4536   -0.8977 H   0  0  0  0  0  0  0  0  0  0  0  0
   11.9310    3.5393   -0.4177 H   0  0  0  0  0  0  0  0  0  0  0  0
   12.6665    2.1567    0.4661 H   0  0  0  0  0  0  0  0  0  0  0  0
   11.6337    3.3376    1.3591 H   0  0  0  0  0  0  0  0  0  0  0  0
    8.9535    4.4120    1.2450 H   0  0  0  0  0  0  0  0  0  0  0  0
    9.7588    4.7737   -1.6839 H   0  0  0  0  0  0  0  0  0  0  0  0
   11.2194    5.9339   -0.0442 H   0  0  0  0  0  0  0  0  0  0  0  0
    9.7977    6.8069    0.6378 H   0  0  0  0  0  0  0  0  0  0  0  0
   10.3197    7.0982   -1.0753 H   0  0  0  0  0  0  0  0  0  0  0  0
    8.0820    7.7479   -1.1576 H   0  0  0  0  0  0  0  0  0  0  0  0
    6.0095    8.3259   -0.1960 H   0  0  0  0  0  0  0  0  0  0  0  0
    7.5111    6.6101    1.8546 H   0  0  0  0  0  0  0  0  0  0  0  0
    7.8274    8.3408    1.4303 H   0  0  0  0  0  0  0  0  0  0  0  0
    6.2709    7.8811    2.2192 H   0  0  0  0  0  0  0  0  0  0  0  0
    3.2316    5.8574   -0.0132 H   0  0  0  0  0  0  0  0  0  0  0  0
    4.2260    8.0813   -1.6375 H   0  0  0  0  0  0  0  0  0  0  0  0
    3.5198    8.7476    1.1697 H   0  0  0  0  0  0  0  0  0  0  0  0
    4.2281    9.7758   -0.1192 H   0  0  0  0  0  0  0  0  0  0  0  0
    2.4557    9.6204   -0.0001 H   0  0  0  0  0  0  0  0  0  0  0  0
    0.0912    7.1487   -1.4812 H   0  0  0  0  0  0  0  0  0  0  0  0
    1.6807    7.3230    1.1135 H   0  0  0  0  0  0  0  0  0  0  0  0
   -0.7158    9.6820    2.6891 H   0  0  0  0  0  0  0  0  0  0  0  0
    0.2713    8.2494    3.1255 H   0  0  0  0  0  0  0  0  0  0  0  0
   -0.1038    5.9968    2.1335 H   0  0  0  0  0  0  0  0  0  0  0  0
    0.6918    5.1247    0.7764 H   0  0  0  0  0  0  0  0  0  0  0  0
   -1.1440    3.7706    1.6801 H   0  0  0  0  0  0  0  0  0  0  0  0
   -2.6979    4.5759    2.0626 H   0  0  0  0  0  0  0  0  0  0  0  0
  1  2  1  0
  2  3  2  0
  2  4  1  0
  4  5  1  0
  5  6  1  0
  6  7  1  0
  7  8  1  0
  8  9  1  0
  9 10  2  0
 10 11  1  0
 11 12  2  0
 12 13  1  0
 13 14  2  0
 13 15  1  0
 15 16  1  0
 16 17  1  0
 17 18  1  0
 18 19  1  0
 19 20  1  0
 20 21  2  0
 20 22  1  0
 22 23  1  0
 22 24  1  0
 24 25  1  0
 25 26  2  0
 25 27  1  0
 27 28  1  0
 27 29  1  0
 29 30  1  0
 30 31  2  0
 30 32  1  0
 32 33  1  0
 32 34  1  0
 34 35  1  0
 35 36  2  0
 35 37  1  0
 37 38  1  0
 37 39  1  0
 39 40  1  0
 40 41  2  0
 18 42  1  0
 42 43  2  0
 42 44  1  0
 44 45  1  0
 45 46  1  0
 45 47  1  0
 47 48  2  0
 47 49  1  0
 49 50  1  0
 50 51  1  0
 50 52  1  0
 52 53  2  0
 52 54  1  0
 54 55  1  0
 55 56  1  0
 55 57  1  0
 57 58  2  0
 57 59  1  0
 59 60  1  0
 60 61  1  0
 60 62  1  0
 62 63  2  0
 62 64  1  0
 64 65  1  0
 65 66  1  0
 65 67  1  0
 67 68  2  0
 67 69  1  0
 69 70  1  0
 70 71  1  0
 70 72  1  0
 72 73  2  0
 72 74  1  0
 74 75  1  0
 75 76  1  0
 75 77  1  0
 77 78  2  0
 77 79  1  0
 79 80  1  0
 80 81  1  0
 80 82  1  0
 82 83  2  0
 82 84  1  0
 84 85  1  0
 85 86  1  0
 85 87  1  0
 87 88  2  0
 87 89  1  0
 89 90  1  0
 90 91  1  0
 90 92  1  0
 92 93  2  0
 92 94  1  0
 94 95  1  0
 95 96  1  0
 96 97  1  0
 96 98  2  0
 95 99  1  0
 99100  1  0
100101  1  0
 40  5  1  0
 14  9  1  0
101 11  1  0
  1102  1  0
  1103  1  0
  1104  1  0
  4105  1  0
  5106  1  1
  6107  1  0
  6108  1  0
  8109  1  0
  8110  1  0
 10111  1  0
 12112  1  0
 14113  1  0
 15114  1  0
 15115  1  0
 17116  1  0
 17117  1  0
 18118  1  6
 19119  1  0
 22120  1  6
 23121  1  0
 23122  1  0
 23123  1  0
 24124  1  0
 27125  1  6
 28126  1  0
 28127  1  0
 28128  1  0
 29129  1  0
 32130  1  6
 33131  1  0
 33132  1  0
 33133  1  0
 34134  1  0
 37135  1  6
 38136  1  0
 38137  1  0
 38138  1  0
 39139  1  0
 44140  1  0
 45141  1  1
 46142  1  0
 46143  1  0
 46144  1  0
 49145  1  0
 50146  1  1
 51147  1  0
 51148  1  0
 51149  1  0
 54150  1  0
 55151  1  6
 56152  1  0
 56153  1  0
 56154  1  0
 59155  1  0
 60156  1  1
 61157  1  0
 61158  1  0
 61159  1  0
 64160  1  0
 65161  1  6
 66162  1  0
 66163  1  0
 66164  1  0
 69165  1  0
 70166  1  6
 71167  1  0
 71168  1  0
 71169  1  0
 74170  1  0
 75171  1  6
 76172  1  0
 76173  1  0
 76174  1  0
 79175  1  0
 80176  1  6
 81177  1  0
 81178  1  0
 81179  1  0
 84180  1  0
 85181  1  6
 86182  1  0
 86183  1  0
 86184  1  0
 89185  1  0
 90186  1  6
 91187  1  0
 91188  1  0
 91189  1  0
 94190  1  0
 95191  1  1
 97192  1  0
 97193  1  0
 99194  1  0
 99195  1  0
101196  1  0
101197  1  0
M  END
