
     RDKit          3D

137139  0  0  0  0  0  0  0  0999 V2000
    6.6385    8.4231    1.4675 C   0  0  0  0  0  0  0  0  0  0  0  0
    5.8683    7.1574    1.2709 C   0  0  0  0  0  0  0  0  0  0  0  0
    5.0152    6.8149    2.1343 O   0  0  0  0  0  0  0  0  0  0  0  0
    6.0892    6.3470    0.1057 N   0  0  0  0  0  0  0  0  0  0  0  0
    5.2922    5.1503   -0.1847 C   0  0  1  0  0  0  0  0  0  0  0  0
    3.9254    5.5712   -0.7554 C   0  0  0  0  0  0  0  0  0  0  0  0
    2.8903    4.1319   -1.2231 S   0  0  0  0  0  0  0  0  0  0  0  0
    1.9124    4.0022    0.3155 C   0  0  0  0  0  0  0  0  0  0  0  0
    0.6546    3.2277    0.0180 C   0  0  0  0  0  0  0  0  0  0  0  0
   -0.5786    3.8909   -0.0886 C   0  0  0  0  0  0  0  0  0  0  0  0
   -1.7232    3.2035   -0.5241 C   0  0  0  0  0  0  0  0  0  0  0  0
   -1.6226    1.8461   -0.8568 C   0  0  0  0  0  0  0  0  0  0  0  0
   -0.4046    1.1538   -0.7181 C   0  0  0  0  0  0  0  0  0  0  0  0
    0.7247    1.8579   -0.2723 C   0  0  0  0  0  0  0  0  0  0  0  0
   -0.2250   -0.2718   -1.2016 C   0  0  0  0  0  0  0  0  0  0  0  0
   -1.7905   -1.2169   -1.3804 S   0  0  0  0  0  0  0  0  0  0  0  0
   -1.8231   -1.9993    0.2814 C   0  0  0  0  0  0  0  0  0  0  0  0
   -1.6248   -3.5187    0.1460 C   0  0  1  0  0  0  0  0  0  0  0  0
   -1.4145   -4.1506    1.4576 N   0  0  0  0  0  0  0  0  0  0  0  0
   -0.2080   -4.8043    1.8937 C   0  0  0  0  0  0  0  0  0  0  0  0
   -0.1880   -5.3100    3.0487 O   0  0  0  0  0  0  0  0  0  0  0  0
    1.0644   -4.8338    1.0649 C   0  0  1  0  0  0  0  0  0  0  0  0
    1.7728   -3.4756    1.1903 C   0  0  0  0  0  0  0  0  0  0  0  0
    1.9175   -5.9599    1.4802 N   0  0  0  0  0  0  0  0  0  0  0  0
    3.3353   -5.8848    1.6952 C   0  0  0  0  0  0  0  0  0  0  0  0
    3.7726   -5.9540    2.8736 O   0  0  0  0  0  0  0  0  0  0  0  0
    4.3234   -5.8151    0.5507 C   0  0  1  0  0  0  0  0  0  0  0  0
    3.6667   -6.0694   -0.8136 C   0  0  0  0  0  0  0  0  0  0  0  0
    5.0080   -4.5167    0.5536 N   0  0  0  0  0  0  0  0  0  0  0  0
    6.0868   -4.2286   -0.3485 C   0  0  0  0  0  0  0  0  0  0  0  0
    6.8878   -5.1510   -0.6777 O   0  0  0  0  0  0  0  0  0  0  0  0
    6.3251   -2.8167   -0.8330 C   0  0  1  0  0  0  0  0  0  0  0  0
    6.8718   -2.8036   -2.2632 C   0  0  0  0  0  0  0  0  0  0  0  0
    5.0762   -2.0557   -0.8009 N   0  0  0  0  0  0  0  0  0  0  0  0
    4.9201   -0.9124    0.0394 C   0  0  0  0  0  0  0  0  0  0  0  0
    4.5674   -1.0730    1.2393 O   0  0  0  0  0  0  0  0  0  0  0  0
    5.2293    0.4660   -0.4910 C   0  0  1  0  0  0  0  0  0  0  0  0
    4.4595    0.7396   -1.7822 C   0  0  0  0  0  0  0  0  0  0  0  0
    4.8897    1.4806    0.5113 N   0  0  0  0  0  0  0  0  0  0  0  0
    5.8640    2.1665    1.3105 C   0  0  0  0  0  0  0  0  0  0  0  0
    5.6572    2.2854    2.5475 O   0  0  0  0  0  0  0  0  0  0  0  0
    7.0893    2.8191    0.7170 C   0  0  1  0  0  0  0  0  0  0  0  0
    8.3204    1.9219    0.8866 C   0  0  0  0  0  0  0  0  0  0  0  0
    6.8798    3.1657   -0.6944 N   0  0  0  0  0  0  0  0  0  0  0  0
    6.0608    4.2583   -1.1450 C   0  0  0  0  0  0  0  0  0  0  0  0
    6.0098    4.5051   -2.3819 O   0  0  0  0  0  0  0  0  0  0  0  0
   -2.7388   -4.2150   -0.6191 C   0  0  0  0  0  0  0  0  0  0  0  0
   -2.4880   -4.6003   -1.7935 O   0  0  0  0  0  0  0  0  0  0  0  0
   -4.0164   -4.5612   -0.0536 N   0  0  0  0  0  0  0  0  0  0  0  0
   -4.8010   -3.7297    0.8661 C   0  0  2  0  0  0  0  0  0  0  0  0
   -5.6881   -4.6380    1.7284 C   0  0  0  0  0  0  0  0  0  0  0  0
   -5.5687   -2.6870    0.0721 C   0  0  0  0  0  0  0  0  0  0  0  0
   -4.9061   -1.9046   -0.6584 O   0  0  0  0  0  0  0  0  0  0  0  0
   -7.0017   -2.5264    0.1700 N   0  0  0  0  0  0  0  0  0  0  0  0
   -7.8902   -2.2207   -0.9646 C   0  0  2  0  0  0  0  0  0  0  0  0
   -7.2524   -1.3517   -2.0584 C   0  0  0  0  0  0  0  0  0  0  0  0
   -9.1826   -1.5962   -0.4813 C   0  0  0  0  0  0  0  0  0  0  0  0
  -10.2465   -2.2571   -0.6071 O   0  0  0  0  0  0  0  0  0  0  0  0
   -9.2590   -0.2606    0.0558 N   0  0  0  0  0  0  0  0  0  0  0  0
   -8.2350    0.3501    0.9100 C   0  0  2  0  0  0  0  0  0  0  0  0
   -8.3671   -0.1737    2.3435 C   0  0  0  0  0  0  0  0  0  0  0  0
   -8.3886    1.8541    0.9129 C   0  0  0  0  0  0  0  0  0  0  0  0
   -9.4626    2.3686    1.3324 O   0  0  0  0  0  0  0  0  0  0  0  0
   -7.3242    2.7189    0.4972 N   0  0  0  0  0  0  0  0  0  0  0  0
   -6.6158    2.5464   -0.7740 C   0  0  1  0  0  0  0  0  0  0  0  0
   -6.7265    3.7741   -1.6529 C   0  0  0  0  0  0  0  0  0  0  0  0
   -7.6136    4.8577   -1.3437 N   0  0  0  0  0  0  0  0  0  0  0  0
   -6.0690    3.8191   -2.7267 O   0  0  0  0  0  0  0  0  0  0  0  0
   -5.1496    2.1580   -0.5151 C   0  0  0  0  0  0  0  0  0  0  0  0
   -4.2696    3.4019    0.5141 S   0  0  0  0  0  0  0  0  0  0  0  0
   -3.0249    3.9376   -0.7192 C   0  0  0  0  0  0  0  0  0  0  0  0
    7.1964    8.3699    2.4240 H   0  0  0  0  0  0  0  0  0  0  0  0
    5.9413    9.2859    1.4986 H   0  0  0  0  0  0  0  0  0  0  0  0
    7.3609    8.5838    0.6397 H   0  0  0  0  0  0  0  0  0  0  0  0
    6.7899    6.6689   -0.5984 H   0  0  0  0  0  0  0  0  0  0  0  0
    5.0996    4.6080    0.7629 H   0  0  0  0  0  0  0  0  0  0  0  0
    4.0836    6.1867   -1.6682 H   0  0  0  0  0  0  0  0  0  0  0  0
    3.3975    6.2227   -0.0285 H   0  0  0  0  0  0  0  0  0  0  0  0
    2.5056    3.4885    1.0999 H   0  0  0  0  0  0  0  0  0  0  0  0
    1.6536    5.0147    0.6883 H   0  0  0  0  0  0  0  0  0  0  0  0
   -0.6347    4.9545    0.1183 H   0  0  0  0  0  0  0  0  0  0  0  0
   -2.4923    1.3449   -1.2506 H   0  0  0  0  0  0  0  0  0  0  0  0
    1.6747    1.3487   -0.2121 H   0  0  0  0  0  0  0  0  0  0  0  0
    0.2391   -0.2191   -2.2107 H   0  0  0  0  0  0  0  0  0  0  0  0
    0.4938   -0.8129   -0.5516 H   0  0  0  0  0  0  0  0  0  0  0  0
   -2.7782   -1.7468    0.7658 H   0  0  0  0  0  0  0  0  0  0  0  0
   -1.0340   -1.5772    0.9399 H   0  0  0  0  0  0  0  0  0  0  0  0
   -0.7110   -3.6177   -0.4683 H   0  0  0  0  0  0  0  0  0  0  0  0
   -2.1992   -4.1235    2.1464 H   0  0  0  0  0  0  0  0  0  0  0  0
    0.8050   -5.0133    0.0014 H   0  0  0  0  0  0  0  0  0  0  0  0
    1.0555   -2.6371    1.0897 H   0  0  0  0  0  0  0  0  0  0  0  0
    2.2726   -3.3820    2.1781 H   0  0  0  0  0  0  0  0  0  0  0  0
    2.5158   -3.3540    0.3754 H   0  0  0  0  0  0  0  0  0  0  0  0
    1.4734   -6.9030    1.5786 H   0  0  0  0  0  0  0  0  0  0  0  0
    5.0752   -6.6111    0.7211 H   0  0  0  0  0  0  0  0  0  0  0  0
    4.4444   -6.1885   -1.5961 H   0  0  0  0  0  0  0  0  0  0  0  0
    3.0172   -5.2174   -1.1042 H   0  0  0  0  0  0  0  0  0  0  0  0
    3.0589   -7.0004   -0.7927 H   0  0  0  0  0  0  0  0  0  0  0  0
    4.6531   -3.7447    1.1568 H   0  0  0  0  0  0  0  0  0  0  0  0
    7.0797   -2.3382   -0.1675 H   0  0  0  0  0  0  0  0  0  0  0  0
    7.8312   -3.3605   -2.3220 H   0  0  0  0  0  0  0  0  0  0  0  0
    7.0681   -1.7575   -2.5840 H   0  0  0  0  0  0  0  0  0  0  0  0
    6.1387   -3.2630   -2.9635 H   0  0  0  0  0  0  0  0  0  0  0  0
    4.2542   -2.3814   -1.3568 H   0  0  0  0  0  0  0  0  0  0  0  0
    6.3068    0.5009   -0.7283 H   0  0  0  0  0  0  0  0  0  0  0  0
    4.7703    0.0254   -2.5752 H   0  0  0  0  0  0  0  0  0  0  0  0
    4.6809    1.7689   -2.1450 H   0  0  0  0  0  0  0  0  0  0  0  0
    3.3673    0.6430   -1.6242 H   0  0  0  0  0  0  0  0  0  0  0  0
    3.8990    1.5179    0.8378 H   0  0  0  0  0  0  0  0  0  0  0  0
    7.3045    3.7538    1.2791 H   0  0  0  0  0  0  0  0  0  0  0  0
    8.2249    0.9768    0.3065 H   0  0  0  0  0  0  0  0  0  0  0  0
    8.4693    1.6679    1.9569 H   0  0  0  0  0  0  0  0  0  0  0  0
    9.2210    2.4554    0.5203 H   0  0  0  0  0  0  0  0  0  0  0  0
    7.3863    2.6138   -1.4259 H   0  0  0  0  0  0  0  0  0  0  0  0
   -4.5479   -5.3046   -0.5609 H   0  0  0  0  0  0  0  0  0  0  0  0
   -4.1384   -3.2031    1.5755 H   0  0  0  0  0  0  0  0  0  0  0  0
   -5.0619   -5.4158    2.2198 H   0  0  0  0  0  0  0  0  0  0  0  0
   -6.1868   -4.0532    2.5293 H   0  0  0  0  0  0  0  0  0  0  0  0
   -6.4527   -5.1522    1.1065 H   0  0  0  0  0  0  0  0  0  0  0  0
   -7.4814   -2.9709    0.9785 H   0  0  0  0  0  0  0  0  0  0  0  0
   -8.1473   -3.1914   -1.4473 H   0  0  0  0  0  0  0  0  0  0  0  0
   -6.7327   -0.4759   -1.6339 H   0  0  0  0  0  0  0  0  0  0  0  0
   -6.5266   -1.9550   -2.6440 H   0  0  0  0  0  0  0  0  0  0  0  0
   -8.0262   -0.9863   -2.7709 H   0  0  0  0  0  0  0  0  0  0  0  0
  -10.2124    0.1699    0.0651 H   0  0  0  0  0  0  0  0  0  0  0  0
   -7.2251    0.0910    0.5428 H   0  0  0  0  0  0  0  0  0  0  0  0
   -8.2239   -1.2721    2.3701 H   0  0  0  0  0  0  0  0  0  0  0  0
   -7.5968    0.2890    2.9979 H   0  0  0  0  0  0  0  0  0  0  0  0
   -9.3741    0.0556    2.7544 H   0  0  0  0  0  0  0  0  0  0  0  0
   -7.1343    3.5647    1.0817 H   0  0  0  0  0  0  0  0  0  0  0  0
   -7.0887    1.7212   -1.3471 H   0  0  0  0  0  0  0  0  0  0  0  0
   -7.7200    5.6456   -2.0196 H   0  0  0  0  0  0  0  0  0  0  0  0
   -8.2241    4.8540   -0.4997 H   0  0  0  0  0  0  0  0  0  0  0  0
   -5.1184    1.1914    0.0253 H   0  0  0  0  0  0  0  0  0  0  0  0
   -4.6507    1.9852   -1.4894 H   0  0  0  0  0  0  0  0  0  0  0  0
   -3.3878    3.8011   -1.7569 H   0  0  0  0  0  0  0  0  0  0  0  0
   -2.8796    5.0318   -0.5874 H   0  0  0  0  0  0  0  0  0  0  0  0
  1  2  1  0
  2  3  2  0
  2  4  1  0
  4  5  1  0
  5  6  1  0
  6  7  1  0
  7  8  1  0
  8  9  1  0
  9 10  1  0
 10 11  2  0
 11 12  1  0
 12 13  2  0
 13 14  1  0
 13 15  1  0
 15 16  1  0
 16 17  1  0
 17 18  1  0
 18 19  1  0
 19 20  1  0
 20 21  2  0
 20 22  1  0
 22 23  1  0
 22 24  1  0
 24 25  1  0
 25 26  2  0
 25 27  1  0
 27 28  1  0
 27 29  1  0
 29 30  1  0
 30 31  2  0
 30 32  1  0
 32 33  1  0
 32 34  1  0
 34 35  1  0
 35 36  2  0
 35 37  1  0
 37 38  1  0
 37 39  1  0
 39 40  1  0
 40 41  2  0
 40 42  1  0
 42 43  1  0
 42 44  1  0
 44 45  1  0
 45 46  2  0
 18 47  1  0
 47 48  2  0
 47 49  1  0
 49 50  1  0
 50 51  1  0
 50 52  1  0
 52 53  2  0
 52 54  1  0
 54 55  1  0
 55 56  1  0
 55 57  1  0
 57 58  2  0
 57 59  1  0
 59 60  1  0
 60 61  1  0
 60 62  1  0
 62 63  2  0
 62 64  1  0
 64 65  1  0
 65 66  1  0
 66 67  1  0
 66 68  2  0
 65 69  1  0
 69 70  1  0
 70 71  1  0
 45  5  1  0
 14  9  2  0
 71 11  1  0
  1 72  1  0
  1 73  1  0
  1 74  1  0
  4 75  1  0
  5 76  1  1
  6 77  1  0
  6 78  1  0
  8 79  1  0
  8 80  1  0
 10 81  1  0
 12 82  1  0
 14 83  1  0
 15 84  1  0
 15 85  1  0
 17 86  1  0
 17 87  1  0
 18 88  1  6
 19 89  1  0
 22 90  1  6
 23 91  1  0
 23 92  1  0
 23 93  1  0
 24 94  1  0
 27 95  1  1
 28 96  1  0
 28 97  1  0
 28 98  1  0
 29 99  1  0
 32100  1  1
 33101  1  0
 33102  1  0
 33103  1  0
 34104  1  0
 37105  1  6
 38106  1  0
 38107  1  0
 38108  1  0
 39109  1  0
 42110  1  1
 43111  1  0
 43112  1  0
 43113  1  0
 44114  1  0
 49115  1  0
 50116  1  1
 51117  1  0
 51118  1  0
 51119  1  0
 54120  1  0
 55121  1  6
 56122  1  0
 56123  1  0
 56124  1  0
 59125  1  0
 60126  1  6
 61127  1  0
 61128  1  0
 61129  1  0
 64130  1  0
 65131  1  6
 67132  1  0
 67133  1  0
 69134  1  0
 69135  1  0
 71136  1  0
 71137  1  0
M  END
