
     RDKit          3D

197199  0  0  0  0  0  0  0  0999 V2000
  -10.7526    7.9057   -0.0090 C   0  0  0  0  0  0  0  0  0  0  0  0
  -10.5816    6.5059   -0.5005 C   0  0  0  0  0  0  0  0  0  0  0  0
  -11.0018    6.1892   -1.6456 O   0  0  0  0  0  0  0  0  0  0  0  0
   -9.9225    5.5399    0.3252 N   0  0  0  0  0  0  0  0  0  0  0  0
   -9.4166    4.2655   -0.1936 C   0  0  1  0  0  0  0  0  0  0  0  0
   -7.9820    4.4671   -0.6997 C   0  0  0  0  0  0  0  0  0  0  0  0
   -7.3028    2.9211   -1.3867 S   0  0  0  0  0  0  0  0  0  0  0  0
   -5.7707    3.6647   -2.0660 C   0  0  0  0  0  0  0  0  0  0  0  0
   -4.5867    3.3680   -1.1837 C   0  0  0  0  0  0  0  0  0  0  0  0
   -3.7886    4.4074   -0.6808 C   0  0  0  0  0  0  0  0  0  0  0  0
   -2.6242    4.1199    0.0492 C   0  0  0  0  0  0  0  0  0  0  0  0
   -2.2670    2.7820    0.2828 C   0  0  0  0  0  0  0  0  0  0  0  0
   -3.0607    1.7364   -0.2139 C   0  0  0  0  0  0  0  0  0  0  0  0
   -4.2244    2.0396   -0.9336 C   0  0  0  0  0  0  0  0  0  0  0  0
   -2.6850    0.3041    0.0774 C   0  0  0  0  0  0  0  0  0  0  0  0
   -2.7505   -0.7224   -1.4388 S   0  0  0  0  0  0  0  0  0  0  0  0
   -4.3701   -1.5240   -1.1205 C   0  0  0  0  0  0  0  0  0  0  0  0
   -4.1738   -2.9660   -0.6313 C   0  0  2  0  0  0  0  0  0  0  0  0
   -5.4656   -3.6589   -0.5835 N   0  0  0  0  0  0  0  0  0  0  0  0
   -5.5869   -5.0421   -0.9620 C   0  0  0  0  0  0  0  0  0  0  0  0
   -4.8401   -5.5073   -1.8677 O   0  0  0  0  0  0  0  0  0  0  0  0
   -6.6442   -5.9311   -0.3434 C   0  0  1  0  0  0  0  0  0  0  0  0
   -6.1061   -7.3497   -0.1281 C   0  0  0  0  0  0  0  0  0  0  0  0
   -7.0696   -5.3968    0.9543 N   0  0  0  0  0  0  0  0  0  0  0  0
   -8.4307   -5.1468    1.3642 C   0  0  0  0  0  0  0  0  0  0  0  0
   -8.6547   -4.8834    2.5785 O   0  0  0  0  0  0  0  0  0  0  0  0
   -9.6021   -5.2252    0.4079 C   0  0  1  0  0  0  0  0  0  0  0  0
  -10.1097   -6.6653    0.3126 C   0  0  0  0  0  0  0  0  0  0  0  0
  -10.6840   -4.3403    0.8595 N   0  0  0  0  0  0  0  0  0  0  0  0
  -10.6659   -2.9136    0.7046 C   0  0  0  0  0  0  0  0  0  0  0  0
  -11.2430   -2.2087    1.5786 O   0  0  0  0  0  0  0  0  0  0  0  0
  -10.0191   -2.2509   -0.4995 C   0  0  1  0  0  0  0  0  0  0  0  0
  -10.7195   -2.6556   -1.8044 C   0  0  0  0  0  0  0  0  0  0  0  0
   -9.9831   -0.7855   -0.3750 N   0  0  0  0  0  0  0  0  0  0  0  0
  -11.1488    0.0614   -0.3685 C   0  0  0  0  0  0  0  0  0  0  0  0
  -12.3024   -0.4489   -0.3198 O   0  0  0  0  0  0  0  0  0  0  0  0
  -10.9807    1.5631   -0.4142 C   0  0  1  0  0  0  0  0  0  0  0  0
  -12.3286    2.2836   -0.5659 C   0  0  0  0  0  0  0  0  0  0  0  0
  -10.2950    2.0261    0.7981 N   0  0  0  0  0  0  0  0  0  0  0  0
   -9.4842    3.2121    0.8960 C   0  0  0  0  0  0  0  0  0  0  0  0
   -8.8307    3.4068    1.9587 O   0  0  0  0  0  0  0  0  0  0  0  0
   -3.5417   -2.9989    0.7398 C   0  0  0  0  0  0  0  0  0  0  0  0
   -4.1402   -2.4608    1.7137 O   0  0  0  0  0  0  0  0  0  0  0  0
   -2.2712   -3.6245    0.9622 N   0  0  0  0  0  0  0  0  0  0  0  0
   -1.9984   -4.9955    0.5228 C   0  0  2  0  0  0  0  0  0  0  0  0
   -2.4604   -5.9789    1.6031 C   0  0  0  0  0  0  0  0  0  0  0  0
   -0.5421   -5.1394    0.1448 C   0  0  0  0  0  0  0  0  0  0  0  0
   -0.0789   -4.3883   -0.7551 O   0  0  0  0  0  0  0  0  0  0  0  0
    0.3034   -6.1432    0.7366 N   0  0  0  0  0  0  0  0  0  0  0  0
    1.4722   -6.7015    0.0461 C   0  0  2  0  0  0  0  0  0  0  0  0
    1.0489   -7.3079   -1.2998 C   0  0  0  0  0  0  0  0  0  0  0  0
    2.1135   -7.7791    0.8946 C   0  0  0  0  0  0  0  0  0  0  0  0
    1.3824   -8.6215    1.4782 O   0  0  0  0  0  0  0  0  0  0  0  0
    3.5377   -7.8582    1.0682 N   0  0  0  0  0  0  0  0  0  0  0  0
    4.4741   -7.7523   -0.0552 C   0  0  2  0  0  0  0  0  0  0  0  0
    4.5208   -9.0815   -0.8229 C   0  0  0  0  0  0  0  0  0  0  0  0
    5.8546   -7.4176    0.4442 C   0  0  0  0  0  0  0  0  0  0  0  0
    6.4262   -8.2011    1.2483 O   0  0  0  0  0  0  0  0  0  0  0  0
    6.5402   -6.2547   -0.0492 N   0  0  0  0  0  0  0  0  0  0  0  0
    7.9762   -6.2183   -0.3582 C   0  0  2  0  0  0  0  0  0  0  0  0
    8.3856   -7.4340   -1.2042 C   0  0  0  0  0  0  0  0  0  0  0  0
    8.8060   -6.1096    0.9053 C   0  0  0  0  0  0  0  0  0  0  0  0
    8.8151   -7.0765    1.7178 O   0  0  0  0  0  0  0  0  0  0  0  0
    9.6043   -4.9510    1.2153 N   0  0  0  0  0  0  0  0  0  0  0  0
   10.1098   -3.9832    0.2330 C   0  0  2  0  0  0  0  0  0  0  0  0
   11.0412   -4.6722   -0.7757 C   0  0  0  0  0  0  0  0  0  0  0  0
   10.8451   -2.8653    0.9248 C   0  0  0  0  0  0  0  0  0  0  0  0
   11.9086   -3.1047    1.5620 O   0  0  0  0  0  0  0  0  0  0  0  0
   10.3504   -1.5199    0.8457 N   0  0  0  0  0  0  0  0  0  0  0  0
   10.9903   -0.4438    0.0734 C   0  0  2  0  0  0  0  0  0  0  0  0
   12.1058   -0.9549   -0.8500 C   0  0  0  0  0  0  0  0  0  0  0  0
   11.5345    0.6034    1.0182 C   0  0  0  0  0  0  0  0  0  0  0  0
   12.2868    0.2252    1.9548 O   0  0  0  0  0  0  0  0  0  0  0  0
   11.2678    2.0185    0.8794 N   0  0  0  0  0  0  0  0  0  0  0  0
   10.6081    2.6665   -0.2605 C   0  0  2  0  0  0  0  0  0  0  0  0
   11.6265    3.0031   -1.3533 C   0  0  0  0  0  0  0  0  0  0  0  0
    9.8930    3.9098    0.1958 C   0  0  0  0  0  0  0  0  0  0  0  0
   10.5395    4.9520    0.4745 O   0  0  0  0  0  0  0  0  0  0  0  0
    8.4667    3.8961    0.3299 N   0  0  0  0  0  0  0  0  0  0  0  0
    7.5805    4.7704   -0.4458 C   0  0  2  0  0  0  0  0  0  0  0  0
    7.7033    4.4550   -1.9388 C   0  0  0  0  0  0  0  0  0  0  0  0
    7.8523    6.2326   -0.1605 C   0  0  0  0  0  0  0  0  0  0  0  0
    8.8103    6.7907   -0.7591 O   0  0  0  0  0  0  0  0  0  0  0  0
    7.0578    7.0350    0.7395 N   0  0  0  0  0  0  0  0  0  0  0  0
    5.9551    6.5990    1.6140 C   0  0  2  0  0  0  0  0  0  0  0  0
    6.4639    5.6214    2.6768 C   0  0  0  0  0  0  0  0  0  0  0  0
    4.7746    6.0729    0.8252 C   0  0  0  0  0  0  0  0  0  0  0  0
    4.3352    4.9133    1.0483 O   0  0  0  0  0  0  0  0  0  0  0  0
    4.1505    6.8577   -0.2040 N   0  0  0  0  0  0  0  0  0  0  0  0
    3.6494    8.2264   -0.0352 C   0  0  2  0  0  0  0  0  0  0  0  0
    4.7647    9.2478   -0.2953 C   0  0  0  0  0  0  0  0  0  0  0  0
    2.9776    8.4138    1.3163 C   0  0  0  0  0  0  0  0  0  0  0  0
    3.5436    9.1122    2.2014 O   0  0  0  0  0  0  0  0  0  0  0  0
    1.7381    7.7623    1.6537 N   0  0  0  0  0  0  0  0  0  0  0  0
    0.5882    7.5842    0.7545 C   0  0  1  0  0  0  0  0  0  0  0  0
    0.3209    8.8367   -0.0478 C   0  0  0  0  0  0  0  0  0  0  0  0
    0.0648   10.0684    0.6273 N   0  0  0  0  0  0  0  0  0  0  0  0
    0.3109    8.8126   -1.3067 O   0  0  0  0  0  0  0  0  0  0  0  0
    0.7614    6.3137   -0.1012 C   0  0  0  0  0  0  0  0  0  0  0  0
   -0.7830    5.8311   -0.9674 S   0  0  0  0  0  0  0  0  0  0  0  0
   -1.7152    5.2325    0.4865 C   0  0  0  0  0  0  0  0  0  0  0  0
  -11.3135    7.8953    0.9509 H   0  0  0  0  0  0  0  0  0  0  0  0
   -9.7548    8.3641    0.1570 H   0  0  0  0  0  0  0  0  0  0  0  0
  -11.3133    8.5131   -0.7506 H   0  0  0  0  0  0  0  0  0  0  0  0
   -9.5974    5.8513    1.2708 H   0  0  0  0  0  0  0  0  0  0  0  0
  -10.0252    3.9635   -1.0650 H   0  0  0  0  0  0  0  0  0  0  0  0
   -7.3275    4.8304    0.1218 H   0  0  0  0  0  0  0  0  0  0  0  0
   -8.0056    5.2372   -1.4994 H   0  0  0  0  0  0  0  0  0  0  0  0
   -5.8879    4.7557   -2.2290 H   0  0  0  0  0  0  0  0  0  0  0  0
   -5.5871    3.2055   -3.0613 H   0  0  0  0  0  0  0  0  0  0  0  0
   -4.0522    5.4382   -0.8795 H   0  0  0  0  0  0  0  0  0  0  0  0
   -1.3678    2.5611    0.8486 H   0  0  0  0  0  0  0  0  0  0  0  0
   -4.8427    1.2415   -1.3267 H   0  0  0  0  0  0  0  0  0  0  0  0
   -3.3351   -0.0867    0.8777 H   0  0  0  0  0  0  0  0  0  0  0  0
   -1.6417    0.2523    0.4574 H   0  0  0  0  0  0  0  0  0  0  0  0
   -4.9987   -0.9486   -0.4133 H   0  0  0  0  0  0  0  0  0  0  0  0
   -4.9209   -1.5486   -2.0857 H   0  0  0  0  0  0  0  0  0  0  0  0
   -3.5072   -3.4600   -1.3653 H   0  0  0  0  0  0  0  0  0  0  0  0
   -6.2299   -3.2202   -0.0212 H   0  0  0  0  0  0  0  0  0  0  0  0
   -7.4851   -5.9980   -1.0565 H   0  0  0  0  0  0  0  0  0  0  0  0
   -6.8878   -7.9768    0.3534 H   0  0  0  0  0  0  0  0  0  0  0  0
   -5.8274   -7.8222   -1.0956 H   0  0  0  0  0  0  0  0  0  0  0  0
   -5.2152   -7.3314    0.5367 H   0  0  0  0  0  0  0  0  0  0  0  0
   -6.3245   -5.2122    1.6689 H   0  0  0  0  0  0  0  0  0  0  0  0
   -9.2865   -4.9117   -0.6039 H   0  0  0  0  0  0  0  0  0  0  0  0
   -9.3214   -7.3253   -0.1071 H   0  0  0  0  0  0  0  0  0  0  0  0
  -10.4121   -7.0441    1.3126 H   0  0  0  0  0  0  0  0  0  0  0  0
  -10.9884   -6.7030   -0.3667 H   0  0  0  0  0  0  0  0  0  0  0  0
  -11.4255   -4.7478    1.4779 H   0  0  0  0  0  0  0  0  0  0  0  0
   -8.9653   -2.6090   -0.5540 H   0  0  0  0  0  0  0  0  0  0  0  0
  -10.3206   -2.0513   -2.6497 H   0  0  0  0  0  0  0  0  0  0  0  0
  -11.8158   -2.4878   -1.7418 H   0  0  0  0  0  0  0  0  0  0  0  0
  -10.5494   -3.7257   -2.0393 H   0  0  0  0  0  0  0  0  0  0  0  0
   -9.0490   -0.3231   -0.3859 H   0  0  0  0  0  0  0  0  0  0  0  0
  -10.3524    1.7755   -1.3059 H   0  0  0  0  0  0  0  0  0  0  0  0
  -12.8662    1.9005   -1.4626 H   0  0  0  0  0  0  0  0  0  0  0  0
  -12.9647    2.1164    0.3316 H   0  0  0  0  0  0  0  0  0  0  0  0
  -12.1887    3.3766   -0.6948 H   0  0  0  0  0  0  0  0  0  0  0  0
  -10.3907    1.4480    1.6646 H   0  0  0  0  0  0  0  0  0  0  0  0
   -1.6871   -3.2497    1.7473 H   0  0  0  0  0  0  0  0  0  0  0  0
   -2.5811   -5.2319   -0.3927 H   0  0  0  0  0  0  0  0  0  0  0  0
   -3.5549   -5.8825    1.7541 H   0  0  0  0  0  0  0  0  0  0  0  0
   -2.2440   -7.0260    1.2970 H   0  0  0  0  0  0  0  0  0  0  0  0
   -1.9556   -5.7635    2.5711 H   0  0  0  0  0  0  0  0  0  0  0  0
    0.1630   -6.3691    1.7504 H   0  0  0  0  0  0  0  0  0  0  0  0
    2.1930   -5.8811   -0.1354 H   0  0  0  0  0  0  0  0  0  0  0  0
    1.9140   -7.7809   -1.8060 H   0  0  0  0  0  0  0  0  0  0  0  0
    0.6591   -6.5238   -1.9823 H   0  0  0  0  0  0  0  0  0  0  0  0
    0.2511   -8.0700   -1.1481 H   0  0  0  0  0  0  0  0  0  0  0  0
    3.8676   -8.3784    1.9119 H   0  0  0  0  0  0  0  0  0  0  0  0
    4.1383   -6.9597   -0.7565 H   0  0  0  0  0  0  0  0  0  0  0  0
    3.5179   -9.3416   -1.2181 H   0  0  0  0  0  0  0  0  0  0  0  0
    5.2300   -8.9992   -1.6762 H   0  0  0  0  0  0  0  0  0  0  0  0
    4.8517   -9.9065   -0.1570 H   0  0  0  0  0  0  0  0  0  0  0  0
    5.9549   -5.4834   -0.4383 H   0  0  0  0  0  0  0  0  0  0  0  0
    8.1444   -5.3233   -0.9901 H   0  0  0  0  0  0  0  0  0  0  0  0
    9.4418   -7.3488   -1.5290 H   0  0  0  0  0  0  0  0  0  0  0  0
    8.2740   -8.3764   -0.6281 H   0  0  0  0  0  0  0  0  0  0  0  0
    7.7380   -7.4894   -2.1078 H   0  0  0  0  0  0  0  0  0  0  0  0
    9.9341   -4.8693    2.2065 H   0  0  0  0  0  0  0  0  0  0  0  0
    9.2547   -3.5245   -0.3109 H   0  0  0  0  0  0  0  0  0  0  0  0
   11.6369   -3.9282   -1.3429 H   0  0  0  0  0  0  0  0  0  0  0  0
   10.4512   -5.2470   -1.5169 H   0  0  0  0  0  0  0  0  0  0  0  0
   11.7410   -5.3646   -0.2575 H   0  0  0  0  0  0  0  0  0  0  0  0
    9.4434   -1.3113    1.3229 H   0  0  0  0  0  0  0  0  0  0  0  0
   10.2110   -0.0307   -0.5878 H   0  0  0  0  0  0  0  0  0  0  0  0
   12.5852   -0.1098   -1.3834 H   0  0  0  0  0  0  0  0  0  0  0  0
   12.8909   -1.4914   -0.2743 H   0  0  0  0  0  0  0  0  0  0  0  0
   11.6722   -1.6333   -1.6139 H   0  0  0  0  0  0  0  0  0  0  0  0
   11.7284    2.6448    1.5805 H   0  0  0  0  0  0  0  0  0  0  0  0
    9.8291    2.0108   -0.6917 H   0  0  0  0  0  0  0  0  0  0  0  0
   12.4488    3.6265   -0.9400 H   0  0  0  0  0  0  0  0  0  0  0  0
   11.1379    3.5624   -2.1794 H   0  0  0  0  0  0  0  0  0  0  0  0
   12.0628    2.0768   -1.7751 H   0  0  0  0  0  0  0  0  0  0  0  0
    8.0352    3.0367    0.7390 H   0  0  0  0  0  0  0  0  0  0  0  0
    6.5416    4.5264   -0.1749 H   0  0  0  0  0  0  0  0  0  0  0  0
    7.4634    3.3862   -2.1172 H   0  0  0  0  0  0  0  0  0  0  0  0
    6.9876    5.0782   -2.5250 H   0  0  0  0  0  0  0  0  0  0  0  0
    8.7337    4.6529   -2.3074 H   0  0  0  0  0  0  0  0  0  0  0  0
    7.3520    8.0328    0.8325 H   0  0  0  0  0  0  0  0  0  0  0  0
    5.6003    7.4888    2.1742 H   0  0  0  0  0  0  0  0  0  0  0  0
    6.7484    4.6436    2.2384 H   0  0  0  0  0  0  0  0  0  0  0  0
    5.6707    5.4436    3.4344 H   0  0  0  0  0  0  0  0  0  0  0  0
    7.3485    6.0517    3.1940 H   0  0  0  0  0  0  0  0  0  0  0  0
    3.8277    6.3335   -1.0505 H   0  0  0  0  0  0  0  0  0  0  0  0
    2.8952    8.4165   -0.8252 H   0  0  0  0  0  0  0  0  0  0  0  0
    4.3220   10.2543   -0.4502 H   0  0  0  0  0  0  0  0  0  0  0  0
    5.3316    8.9662   -1.2063 H   0  0  0  0  0  0  0  0  0  0  0  0
    5.4691    9.3122    0.5552 H   0  0  0  0  0  0  0  0  0  0  0  0
    1.5587    7.6101    2.6724 H   0  0  0  0  0  0  0  0  0  0  0  0
   -0.3038    7.4276    1.3931 H   0  0  0  0  0  0  0  0  0  0  0  0
    0.0339   10.1082    1.6702 H   0  0  0  0  0  0  0  0  0  0  0  0
   -0.1427   10.9330    0.0801 H   0  0  0  0  0  0  0  0  0  0  0  0
    1.5261    6.4816   -0.8836 H   0  0  0  0  0  0  0  0  0  0  0  0
    1.1062    5.4708    0.5340 H   0  0  0  0  0  0  0  0  0  0  0  0
   -1.0342    4.8830    1.2924 H   0  0  0  0  0  0  0  0  0  0  0  0
   -2.3207    6.0698    0.8952 H   0  0  0  0  0  0  0  0  0  0  0  0
  1  2  1  0
  2  3  2  0
  2  4  1  0
  4  5  1  0
  5  6  1  0
  6  7  1  0
  7  8  1  0
  8  9  1  0
  9 10  2  0
 10 11  1  0
 11 12  2  0
 12 13  1  0
 13 14  2  0
 13 15  1  0
 15 16  1  0
 16 17  1  0
 17 18  1  0
 18 19  1  0
 19 20  1  0
 20 21  2  0
 20 22  1  0
 22 23  1  0
 22 24  1  0
 24 25  1  0
 25 26  2  0
 25 27  1  0
 27 28  1  0
 27 29  1  0
 29 30  1  0
 30 31  2  0
 30 32  1  0
 32 33  1  0
 32 34  1  0
 34 35  1  0
 35 36  2  0
 35 37  1  0
 37 38  1  0
 37 39  1  0
 39 40  1  0
 40 41  2  0
 18 42  1  0
 42 43  2  0
 42 44  1  0
 44 45  1  0
 45 46  1  0
 45 47  1  0
 47 48  2  0
 47 49  1  0
 49 50  1  0
 50 51  1  0
 50 52  1  0
 52 53  2  0
 52 54  1  0
 54 55  1  0
 55 56  1  0
 55 57  1  0
 57 58  2  0
 57 59  1  0
 59 60  1  0
 60 61  1  0
 60 62  1  0
 62 63  2  0
 62 64  1  0
 64 65  1  0
 65 66  1  0
 65 67  1  0
 67 68  2  0
 67 69  1  0
 69 70  1  0
 70 71  1  0
 70 72  1  0
 72 73  2  0
 72 74  1  0
 74 75  1  0
 75 76  1  0
 75 77  1  0
 77 78  2  0
 77 79  1  0
 79 80  1  0
 80 81  1  0
 80 82  1  0
 82 83  2  0
 82 84  1  0
 84 85  1  0
 85 86  1  0
 85 87  1  0
 87 88  2  0
 87 89  1  0
 89 90  1  0
 90 91  1  0
 90 92  1  0
 92 93  2  0
 92 94  1  0
 94 95  1  0
 95 96  1  0
 96 97  1  0
 96 98  2  0
 95 99  1  0
 99100  1  0
100101  1  0
 40  5  1  0
 14  9  1  0
101 11  1  0
  1102  1  0
  1103  1  0
  1104  1  0
  4105  1  0
  5106  1  6
  6107  1  0
  6108  1  0
  8109  1  0
  8110  1  0
 10111  1  0
 12112  1  0
 14113  1  0
 15114  1  0
 15115  1  0
 17116  1  0
 17117  1  0
 18118  1  6
 19119  1  0
 22120  1  6
 23121  1  0
 23122  1  0
 23123  1  0
 24124  1  0
 27125  1  6
 28126  1  0
 28127  1  0
 28128  1  0
 29129  1  0
 32130  1  6
 33131  1  0
 33132  1  0
 33133  1  0
 34134  1  0
 37135  1  6
 38136  1  0
 38137  1  0
 38138  1  0
 39139  1  0
 44140  1  0
 45141  1  6
 46142  1  0
 46143  1  0
 46144  1  0
 49145  1  0
 50146  1  6
 51147  1  0
 51148  1  0
 51149  1  0
 54150  1  0
 55151  1  6
 56152  1  0
 56153  1  0
 56154  1  0
 59155  1  0
 60156  1  6
 61157  1  0
 61158  1  0
 61159  1  0
 64160  1  0
 65161  1  6
 66162  1  0
 66163  1  0
 66164  1  0
 69165  1  0
 70166  1  6
 71167  1  0
 71168  1  0
 71169  1  0
 74170  1  0
 75171  1  6
 76172  1  0
 76173  1  0
 76174  1  0
 79175  1  0
 80176  1  1
 81177  1  0
 81178  1  0
 81179  1  0
 84180  1  0
 85181  1  1
 86182  1  0
 86183  1  0
 86184  1  0
 89185  1  0
 90186  1  6
 91187  1  0
 91188  1  0
 91189  1  0
 94190  1  0
 95191  1  1
 97192  1  0
 97193  1  0
 99194  1  0
 99195  1  0
101196  1  0
101197  1  0
M  END
