
     RDKit          3D

137139  0  0  0  0  0  0  0  0999 V2000
    7.5260    7.3896    0.6570 C   0  0  0  0  0  0  0  0  0  0  0  0
    6.2912    6.7981    0.0533 C   0  0  0  0  0  0  0  0  0  0  0  0
    5.7300    7.3832   -0.9131 O   0  0  0  0  0  0  0  0  0  0  0  0
    5.7389    5.5855    0.5955 N   0  0  0  0  0  0  0  0  0  0  0  0
    4.6031    4.8614    0.0080 C   0  0  1  0  0  0  0  0  0  0  0  0
    3.3117    5.6912    0.1512 C   0  0  0  0  0  0  0  0  0  0  0  0
    1.8244    4.7729   -0.3954 S   0  0  0  0  0  0  0  0  0  0  0  0
    1.5614    3.8205    1.1416 C   0  0  0  0  0  0  0  0  0  0  0  0
    0.3760    2.9156    0.9640 C   0  0  0  0  0  0  0  0  0  0  0  0
    0.5476    1.5279    0.8276 C   0  0  0  0  0  0  0  0  0  0  0  0
   -0.5549    0.6934    0.5918 C   0  0  0  0  0  0  0  0  0  0  0  0
   -1.8411    1.2451    0.5466 C   0  0  0  0  0  0  0  0  0  0  0  0
   -2.0329    2.6234    0.7263 C   0  0  0  0  0  0  0  0  0  0  0  0
   -0.9182    3.4575    0.9074 C   0  0  0  0  0  0  0  0  0  0  0  0
   -3.4144    3.2116    0.6824 C   0  0  0  0  0  0  0  0  0  0  0  0
   -3.6532    4.0798   -0.9060 S   0  0  0  0  0  0  0  0  0  0  0  0
   -5.2242    4.8927   -0.4441 C   0  0  0  0  0  0  0  0  0  0  0  0
   -6.4217    3.9480   -0.6324 C   0  0  1  0  0  0  0  0  0  0  0  0
   -7.6579    4.6299   -0.1199 C   0  0  0  0  0  0  0  0  0  0  0  0
   -8.0228    4.4974    1.2558 N   0  0  0  0  0  0  0  0  0  0  0  0
   -8.3348    5.3808   -0.8773 O   0  0  0  0  0  0  0  0  0  0  0  0
   -6.5767    3.6009   -2.0504 N   0  0  0  0  0  0  0  0  0  0  0  0
   -7.1788    2.4007   -2.5636 C   0  0  0  0  0  0  0  0  0  0  0  0
   -7.0761    2.1672   -3.7977 O   0  0  0  0  0  0  0  0  0  0  0  0
   -8.0214    1.4733   -1.7116 C   0  0  1  0  0  0  0  0  0  0  0  0
   -9.4558    2.0074   -1.6345 C   0  0  0  0  0  0  0  0  0  0  0  0
   -8.0574    0.1315   -2.3183 N   0  0  0  0  0  0  0  0  0  0  0  0
   -7.9539   -1.1288   -1.6182 C   0  0  0  0  0  0  0  0  0  0  0  0
   -8.1930   -2.1861   -2.2652 O   0  0  0  0  0  0  0  0  0  0  0  0
   -7.6050   -1.2306   -0.1452 C   0  0  1  0  0  0  0  0  0  0  0  0
   -8.8048   -0.8490    0.7285 C   0  0  0  0  0  0  0  0  0  0  0  0
   -7.2099   -2.6082    0.1857 N   0  0  0  0  0  0  0  0  0  0  0  0
   -6.4114   -2.9066    1.3400 C   0  0  0  0  0  0  0  0  0  0  0  0
   -6.9421   -3.5381    2.2981 O   0  0  0  0  0  0  0  0  0  0  0  0
   -4.9519   -2.5210    1.4071 C   0  0  1  0  0  0  0  0  0  0  0  0
   -4.7737   -1.2144    2.1847 C   0  0  0  0  0  0  0  0  0  0  0  0
   -4.1973   -3.5841    2.0871 N   0  0  0  0  0  0  0  0  0  0  0  0
   -3.0498   -4.2977    1.5894 C   0  0  0  0  0  0  0  0  0  0  0  0
   -2.7234   -5.3667    2.1751 O   0  0  0  0  0  0  0  0  0  0  0  0
   -2.1267   -3.7450    0.5218 C   0  0  1  0  0  0  0  0  0  0  0  0
   -0.7757   -3.3375    1.1301 C   0  0  0  0  0  0  0  0  0  0  0  0
   -0.8535   -1.6831    1.9067 S   0  0  0  0  0  0  0  0  0  0  0  0
   -0.3672   -0.7802    0.3946 C   0  0  0  0  0  0  0  0  0  0  0  0
   -1.9195   -4.6973   -0.5798 N   0  0  0  0  0  0  0  0  0  0  0  0
   -1.3546   -6.0090   -0.4138 C   0  0  0  0  0  0  0  0  0  0  0  0
   -2.0605   -6.9234    0.0859 O   0  0  0  0  0  0  0  0  0  0  0  0
    0.0679   -6.3222   -0.8162 C   0  0  1  0  0  0  0  0  0  0  0  0
    0.4561   -5.6166   -2.1225 C   0  0  0  0  0  0  0  0  0  0  0  0
    0.9717   -5.9716    0.2896 N   0  0  0  0  0  0  0  0  0  0  0  0
    2.3731   -5.7524    0.0980 C   0  0  0  0  0  0  0  0  0  0  0  0
    3.1226   -6.7329   -0.1728 O   0  0  0  0  0  0  0  0  0  0  0  0
    2.9343   -4.3629    0.2526 C   0  0  1  0  0  0  0  0  0  0  0  0
    2.9281   -3.9081    1.7161 C   0  0  0  0  0  0  0  0  0  0  0  0
    4.2712   -4.2282   -0.3359 N   0  0  0  0  0  0  0  0  0  0  0  0
    5.4727   -4.7784    0.2403 C   0  0  0  0  0  0  0  0  0  0  0  0
    5.3937   -5.6798    1.1148 O   0  0  0  0  0  0  0  0  0  0  0  0
    6.8362   -4.2038   -0.0858 C   0  0  1  0  0  0  0  0  0  0  0  0
    7.8983   -5.3041   -0.1804 C   0  0  0  0  0  0  0  0  0  0  0  0
    6.8051   -3.4414   -1.3435 N   0  0  0  0  0  0  0  0  0  0  0  0
    6.6374   -2.0144   -1.4497 C   0  0  0  0  0  0  0  0  0  0  0  0
    6.4194   -1.5211   -2.5908 O   0  0  0  0  0  0  0  0  0  0  0  0
    6.7852   -1.0953   -0.2526 C   0  0  1  0  0  0  0  0  0  0  0  0
    8.2647   -0.9306    0.1335 C   0  0  0  0  0  0  0  0  0  0  0  0
    6.1596    0.2198   -0.4782 N   0  0  0  0  0  0  0  0  0  0  0  0
    6.7713    1.2730   -1.2450 C   0  0  0  0  0  0  0  0  0  0  0  0
    7.4124    1.0047   -2.2985 O   0  0  0  0  0  0  0  0  0  0  0  0
    6.6978    2.6989   -0.7636 C   0  0  1  0  0  0  0  0  0  0  0  0
    8.1088    3.2570   -0.5551 C   0  0  0  0  0  0  0  0  0  0  0  0
    5.9736    3.5242   -1.7406 N   0  0  0  0  0  0  0  0  0  0  0  0
    4.9269    4.4604   -1.4208 C   0  0  0  0  0  0  0  0  0  0  0  0
    4.2840    4.9788   -2.3764 O   0  0  0  0  0  0  0  0  0  0  0  0
    7.7758    8.3585    0.1694 H   0  0  0  0  0  0  0  0  0  0  0  0
    7.3638    7.5604    1.7455 H   0  0  0  0  0  0  0  0  0  0  0  0
    8.3826    6.6898    0.5105 H   0  0  0  0  0  0  0  0  0  0  0  0
    6.1962    5.1711    1.4423 H   0  0  0  0  0  0  0  0  0  0  0  0
    4.4413    3.9401    0.5976 H   0  0  0  0  0  0  0  0  0  0  0  0
    3.3798    6.6140   -0.4583 H   0  0  0  0  0  0  0  0  0  0  0  0
    3.1850    6.0126    1.2105 H   0  0  0  0  0  0  0  0  0  0  0  0
    2.4638    3.2238    1.3716 H   0  0  0  0  0  0  0  0  0  0  0  0
    1.3807    4.5113    1.9928 H   0  0  0  0  0  0  0  0  0  0  0  0
    1.5419    1.1022    0.8761 H   0  0  0  0  0  0  0  0  0  0  0  0
   -2.6902    0.6003    0.3614 H   0  0  0  0  0  0  0  0  0  0  0  0
   -1.0625    4.5250    1.0265 H   0  0  0  0  0  0  0  0  0  0  0  0
   -4.1753    2.4087    0.7856 H   0  0  0  0  0  0  0  0  0  0  0  0
   -3.5348    3.9122    1.5305 H   0  0  0  0  0  0  0  0  0  0  0  0
   -5.1776    5.2613    0.6052 H   0  0  0  0  0  0  0  0  0  0  0  0
   -5.3472    5.7872   -1.0942 H   0  0  0  0  0  0  0  0  0  0  0  0
   -6.2385    3.0301   -0.0423 H   0  0  0  0  0  0  0  0  0  0  0  0
   -8.7657    5.1166    1.6594 H   0  0  0  0  0  0  0  0  0  0  0  0
   -7.4394    3.9203    1.9025 H   0  0  0  0  0  0  0  0  0  0  0  0
   -6.2217    4.2848   -2.7638 H   0  0  0  0  0  0  0  0  0  0  0  0
   -7.6004    1.4188   -0.6941 H   0  0  0  0  0  0  0  0  0  0  0  0
   -9.5029    2.9050   -0.9857 H   0  0  0  0  0  0  0  0  0  0  0  0
  -10.1323    1.2421   -1.2061 H   0  0  0  0  0  0  0  0  0  0  0  0
   -9.8295    2.2754   -2.6466 H   0  0  0  0  0  0  0  0  0  0  0  0
   -8.3637    0.0664   -3.3186 H   0  0  0  0  0  0  0  0  0  0  0  0
   -6.7602   -0.5507    0.0626 H   0  0  0  0  0  0  0  0  0  0  0  0
   -8.5697   -1.0361    1.7983 H   0  0  0  0  0  0  0  0  0  0  0  0
   -9.0506    0.2283    0.6322 H   0  0  0  0  0  0  0  0  0  0  0  0
   -9.6947   -1.4541    0.4466 H   0  0  0  0  0  0  0  0  0  0  0  0
   -7.8896   -3.3602   -0.0709 H   0  0  0  0  0  0  0  0  0  0  0  0
   -4.5948   -2.3766    0.3713 H   0  0  0  0  0  0  0  0  0  0  0  0
   -5.3275   -1.2561    3.1504 H   0  0  0  0  0  0  0  0  0  0  0  0
   -5.1332   -0.3511    1.5945 H   0  0  0  0  0  0  0  0  0  0  0  0
   -3.6971   -1.0466    2.4049 H   0  0  0  0  0  0  0  0  0  0  0  0
   -4.5410   -3.8813    3.0316 H   0  0  0  0  0  0  0  0  0  0  0  0
   -2.5611   -2.8294    0.0738 H   0  0  0  0  0  0  0  0  0  0  0  0
    0.0055   -3.3326    0.3434 H   0  0  0  0  0  0  0  0  0  0  0  0
   -0.4581   -4.0716    1.8995 H   0  0  0  0  0  0  0  0  0  0  0  0
   -0.9891   -1.1080   -0.4647 H   0  0  0  0  0  0  0  0  0  0  0  0
    0.6917   -1.0103    0.1604 H   0  0  0  0  0  0  0  0  0  0  0  0
   -1.8333   -4.2719   -1.5295 H   0  0  0  0  0  0  0  0  0  0  0  0
    0.1464   -7.4202   -0.9919 H   0  0  0  0  0  0  0  0  0  0  0  0
    0.5361   -4.5165   -1.9686 H   0  0  0  0  0  0  0  0  0  0  0  0
   -0.3026   -5.8165   -2.9131 H   0  0  0  0  0  0  0  0  0  0  0  0
    1.4365   -5.9901   -2.4906 H   0  0  0  0  0  0  0  0  0  0  0  0
    0.6813   -6.2449    1.2534 H   0  0  0  0  0  0  0  0  0  0  0  0
    2.2568   -3.6795   -0.3015 H   0  0  0  0  0  0  0  0  0  0  0  0
    3.3954   -2.9006    1.7949 H   0  0  0  0  0  0  0  0  0  0  0  0
    1.8907   -3.8341    2.0985 H   0  0  0  0  0  0  0  0  0  0  0  0
    3.4792   -4.6128    2.3682 H   0  0  0  0  0  0  0  0  0  0  0  0
    4.3406   -3.6510   -1.2069 H   0  0  0  0  0  0  0  0  0  0  0  0
    7.1262   -3.5559    0.7677 H   0  0  0  0  0  0  0  0  0  0  0  0
    8.0026   -5.8263    0.7943 H   0  0  0  0  0  0  0  0  0  0  0  0
    7.6126   -6.0514   -0.9561 H   0  0  0  0  0  0  0  0  0  0  0  0
    8.8830   -4.8634   -0.4499 H   0  0  0  0  0  0  0  0  0  0  0  0
    6.7522   -3.9968   -2.2301 H   0  0  0  0  0  0  0  0  0  0  0  0
    6.2520   -1.5545    0.6052 H   0  0  0  0  0  0  0  0  0  0  0  0
    8.8546   -0.5357   -0.7174 H   0  0  0  0  0  0  0  0  0  0  0  0
    8.3594   -0.2406    0.9963 H   0  0  0  0  0  0  0  0  0  0  0  0
    8.7022   -1.9080    0.4199 H   0  0  0  0  0  0  0  0  0  0  0  0
    5.3734    0.4822    0.1568 H   0  0  0  0  0  0  0  0  0  0  0  0
    6.1868    2.7086    0.2214 H   0  0  0  0  0  0  0  0  0  0  0  0
    8.6886    3.2454   -1.5010 H   0  0  0  0  0  0  0  0  0  0  0  0
    8.0540    4.3049   -0.1900 H   0  0  0  0  0  0  0  0  0  0  0  0
    8.6467    2.6482    0.2102 H   0  0  0  0  0  0  0  0  0  0  0  0
    6.2528    3.4473   -2.7452 H   0  0  0  0  0  0  0  0  0  0  0  0
  1  2  1  0
  2  3  2  0
  2  4  1  0
  4  5  1  0
  5  6  1  0
  6  7  1  0
  7  8  1  0
  8  9  1  0
  9 10  1  0
 10 11  2  0
 11 12  1  0
 12 13  2  0
 13 14  1  0
 13 15  1  0
 15 16  1  0
 16 17  1  0
 17 18  1  0
 18 19  1  0
 19 20  1  0
 19 21  2  0
 18 22  1  0
 22 23  1  0
 23 24  2  0
 23 25  1  0
 25 26  1  0
 25 27  1  0
 27 28  1  0
 28 29  2  0
 28 30  1  0
 30 31  1  0
 30 32  1  0
 32 33  1  0
 33 34  2  0
 33 35  1  0
 35 36  1  0
 35 37  1  0
 37 38  1  0
 38 39  2  0
 38 40  1  0
 40 41  1  0
 41 42  1  0
 42 43  1  0
 40 44  1  0
 44 45  1  0
 45 46  2  0
 45 47  1  0
 47 48  1  0
 47 49  1  0
 49 50  1  0
 50 51  2  0
 50 52  1  0
 52 53  1  0
 52 54  1  0
 54 55  1  0
 55 56  2  0
 55 57  1  0
 57 58  1  0
 57 59  1  0
 59 60  1  0
 60 61  2  0
 60 62  1  0
 62 63  1  0
 62 64  1  0
 64 65  1  0
 65 66  2  0
 65 67  1  0
 67 68  1  0
 67 69  1  0
 69 70  1  0
 70 71  2  0
 70  5  1  0
 14  9  2  0
 43 11  1  0
  1 72  1  0
  1 73  1  0
  1 74  1  0
  4 75  1  0
  5 76  1  1
  6 77  1  0
  6 78  1  0
  8 79  1  0
  8 80  1  0
 10 81  1  0
 12 82  1  0
 14 83  1  0
 15 84  1  0
 15 85  1  0
 17 86  1  0
 17 87  1  0
 18 88  1  1
 20 89  1  0
 20 90  1  0
 22 91  1  0
 25 92  1  1
 26 93  1  0
 26 94  1  0
 26 95  1  0
 27 96  1  0
 30 97  1  6
 31 98  1  0
 31 99  1  0
 31100  1  0
 32101  1  0
 35102  1  6
 36103  1  0
 36104  1  0
 36105  1  0
 37106  1  0
 40107  1  6
 41108  1  0
 41109  1  0
 43110  1  0
 43111  1  0
 44112  1  0
 47113  1  6
 48114  1  0
 48115  1  0
 48116  1  0
 49117  1  0
 52118  1  6
 53119  1  0
 53120  1  0
 53121  1  0
 54122  1  0
 57123  1  1
 58124  1  0
 58125  1  0
 58126  1  0
 59127  1  0
 62128  1  1
 63129  1  0
 63130  1  0
 63131  1  0
 64132  1  0
 67133  1  1
 68134  1  0
 68135  1  0
 68136  1  0
 69137  1  0
M  END
