
     RDKit          3D

197199  0  0  0  0  0  0  0  0999 V2000
  -11.4588   -6.1747   -0.0642 C   0  0  0  0  0  0  0  0  0  0  0  0
  -10.7318   -5.5874   -1.2299 C   0  0  0  0  0  0  0  0  0  0  0  0
  -11.2725   -5.6045   -2.3693 O   0  0  0  0  0  0  0  0  0  0  0  0
   -9.4228   -5.0255   -1.0629 N   0  0  0  0  0  0  0  0  0  0  0  0
   -8.7874   -4.2048   -2.1008 C   0  0  2  0  0  0  0  0  0  0  0  0
   -7.3161   -3.9089   -1.7561 C   0  0  0  0  0  0  0  0  0  0  0  0
   -6.5272   -2.9898   -3.1313 S   0  0  0  0  0  0  0  0  0  0  0  0
   -4.8087   -3.5334   -2.8249 C   0  0  0  0  0  0  0  0  0  0  0  0
   -4.2490   -3.0159   -1.5237 C   0  0  0  0  0  0  0  0  0  0  0  0
   -3.5363   -3.8727   -0.6713 C   0  0  0  0  0  0  0  0  0  0  0  0
   -2.8873   -3.3708    0.4687 C   0  0  0  0  0  0  0  0  0  0  0  0
   -3.0140   -2.0108    0.7911 C   0  0  0  0  0  0  0  0  0  0  0  0
   -3.7618   -1.1543   -0.0317 C   0  0  0  0  0  0  0  0  0  0  0  0
   -4.3467   -1.6530   -1.2023 C   0  0  0  0  0  0  0  0  0  0  0  0
   -3.8414    0.3132    0.2734 C   0  0  0  0  0  0  0  0  0  0  0  0
   -2.3794    1.1508   -0.4361 S   0  0  0  0  0  0  0  0  0  0  0  0
   -3.1826    2.7521   -0.8199 C   0  0  0  0  0  0  0  0  0  0  0  0
   -3.5928    3.5572    0.4269 C   0  0  2  0  0  0  0  0  0  0  0  0
   -4.2294    4.8078   -0.0055 N   0  0  0  0  0  0  0  0  0  0  0  0
   -5.4343    5.3656    0.5503 C   0  0  0  0  0  0  0  0  0  0  0  0
   -5.7948    6.5101    0.1695 O   0  0  0  0  0  0  0  0  0  0  0  0
   -6.3141    4.5850    1.5059 C   0  0  1  0  0  0  0  0  0  0  0  0
   -7.3297    5.4635    2.2427 C   0  0  0  0  0  0  0  0  0  0  0  0
   -6.9724    3.4756    0.8053 N   0  0  0  0  0  0  0  0  0  0  0  0
   -7.6913    3.6222   -0.4292 C   0  0  0  0  0  0  0  0  0  0  0  0
   -7.2108    3.1216   -1.4783 O   0  0  0  0  0  0  0  0  0  0  0  0
   -9.0532    4.2718   -0.4674 C   0  0  1  0  0  0  0  0  0  0  0  0
   -8.9774    5.5983   -1.2336 C   0  0  0  0  0  0  0  0  0  0  0  0
  -10.0302    3.3779   -1.1068 N   0  0  0  0  0  0  0  0  0  0  0  0
  -10.4791    2.1241   -0.5655 C   0  0  0  0  0  0  0  0  0  0  0  0
  -11.3462    1.4665   -1.2039 O   0  0  0  0  0  0  0  0  0  0  0  0
   -9.9364    1.5423    0.7204 C   0  0  1  0  0  0  0  0  0  0  0  0
  -11.0805    1.3109    1.7203 C   0  0  0  0  0  0  0  0  0  0  0  0
   -9.1817    0.3230    0.3988 N   0  0  0  0  0  0  0  0  0  0  0  0
   -9.4800   -0.9819    0.9182 C   0  0  0  0  0  0  0  0  0  0  0  0
   -9.3464   -1.2032    2.1536 O   0  0  0  0  0  0  0  0  0  0  0  0
  -10.0026   -2.0834    0.0298 C   0  0  1  0  0  0  0  0  0  0  0  0
  -11.5269   -2.1765    0.1563 C   0  0  0  0  0  0  0  0  0  0  0  0
   -9.6436   -1.8643   -1.3759 N   0  0  0  0  0  0  0  0  0  0  0  0
   -9.5671   -2.9269   -2.3425 C   0  0  0  0  0  0  0  0  0  0  0  0
  -10.1008   -2.7596   -3.4717 O   0  0  0  0  0  0  0  0  0  0  0  0
   -2.3977    3.8606    1.2963 C   0  0  0  0  0  0  0  0  0  0  0  0
   -1.8976    2.9486    2.0107 O   0  0  0  0  0  0  0  0  0  0  0  0
   -1.7998    5.1595    1.2867 N   0  0  0  0  0  0  0  0  0  0  0  0
   -0.3641    5.3371    1.0904 C   0  0  2  0  0  0  0  0  0  0  0  0
    0.3190    5.4704    2.4541 C   0  0  0  0  0  0  0  0  0  0  0  0
   -0.1483    6.5020    0.1505 C   0  0  0  0  0  0  0  0  0  0  0  0
   -0.6872    6.4546   -0.9887 O   0  0  0  0  0  0  0  0  0  0  0  0
    0.5689    7.6919    0.5188 N   0  0  0  0  0  0  0  0  0  0  0  0
    2.0166    7.7188    0.7681 C   0  0  2  0  0  0  0  0  0  0  0  0
    2.4994    9.1683    0.9045 C   0  0  0  0  0  0  0  0  0  0  0  0
    2.7571    6.9815   -0.3223 C   0  0  0  0  0  0  0  0  0  0  0  0
    2.7625    5.7193   -0.3280 O   0  0  0  0  0  0  0  0  0  0  0  0
    3.4238    7.6892   -1.3686 N   0  0  0  0  0  0  0  0  0  0  0  0
    4.8803    7.7946   -1.3684 C   0  0  2  0  0  0  0  0  0  0  0  0
    5.3151    9.0775   -2.0782 C   0  0  0  0  0  0  0  0  0  0  0  0
    5.4827    6.5833   -2.0362 C   0  0  0  0  0  0  0  0  0  0  0  0
    5.0523    6.2278   -3.1668 O   0  0  0  0  0  0  0  0  0  0  0  0
    6.5017    5.7938   -1.3992 N   0  0  0  0  0  0  0  0  0  0  0  0
    7.6246    6.3830   -0.6599 C   0  0  2  0  0  0  0  0  0  0  0  0
    8.7619    6.7121   -1.6302 C   0  0  0  0  0  0  0  0  0  0  0  0
    8.0542    5.4518    0.4524 C   0  0  0  0  0  0  0  0  0  0  0  0
    8.0569    5.8760    1.6397 O   0  0  0  0  0  0  0  0  0  0  0  0
    8.3469    4.0711    0.2041 N   0  0  0  0  0  0  0  0  0  0  0  0
    9.5823    3.6459   -0.4543 C   0  0  2  0  0  0  0  0  0  0  0  0
    9.2561    2.7272   -1.6367 C   0  0  0  0  0  0  0  0  0  0  0  0
   10.4941    2.9753    0.5417 C   0  0  0  0  0  0  0  0  0  0  0  0
   11.4806    3.6137    0.9993 O   0  0  0  0  0  0  0  0  0  0  0  0
   10.2497    1.6255    0.9654 N   0  0  0  0  0  0  0  0  0  0  0  0
   11.2787    0.7723    1.5737 C   0  0  2  0  0  0  0  0  0  0  0  0
   12.5448    0.7213    0.7029 C   0  0  0  0  0  0  0  0  0  0  0  0
   10.7554   -0.6375    1.7171 C   0  0  0  0  0  0  0  0  0  0  0  0
   10.8130   -1.2170    2.8348 O   0  0  0  0  0  0  0  0  0  0  0  0
   10.2537   -1.3275    0.5608 N   0  0  0  0  0  0  0  0  0  0  0  0
   10.1349   -2.7855    0.4895 C   0  0  2  0  0  0  0  0  0  0  0  0
   11.5306   -3.4239    0.4843 C   0  0  0  0  0  0  0  0  0  0  0  0
    9.3834   -3.1944   -0.7521 C   0  0  0  0  0  0  0  0  0  0  0  0
    9.6104   -2.6056   -1.8487 O   0  0  0  0  0  0  0  0  0  0  0  0
    8.4519   -4.2791   -0.7052 N   0  0  0  0  0  0  0  0  0  0  0  0
    7.3642   -4.4032   -1.6808 C   0  0  2  0  0  0  0  0  0  0  0  0
    6.2350   -3.4094   -1.3815 C   0  0  0  0  0  0  0  0  0  0  0  0
    6.8592   -5.8279   -1.7874 C   0  0  0  0  0  0  0  0  0  0  0  0
    7.0026   -6.4158   -2.8975 O   0  0  0  0  0  0  0  0  0  0  0  0
    6.2157   -6.5530   -0.7252 N   0  0  0  0  0  0  0  0  0  0  0  0
    6.1449   -6.1871    0.6941 C   0  0  2  0  0  0  0  0  0  0  0  0
    7.0021   -7.1727    1.5013 C   0  0  0  0  0  0  0  0  0  0  0  0
    4.6898   -6.1570    1.1099 C   0  0  0  0  0  0  0  0  0  0  0  0
    3.9639   -5.2201    0.6771 O   0  0  0  0  0  0  0  0  0  0  0  0
    4.0952   -7.1912    1.9201 N   0  0  0  0  0  0  0  0  0  0  0  0
    2.6539   -7.4743    1.8713 C   0  0  2  0  0  0  0  0  0  0  0  0
    2.2810   -8.5037    2.9441 C   0  0  0  0  0  0  0  0  0  0  0  0
    2.2776   -7.9838    0.5008 C   0  0  0  0  0  0  0  0  0  0  0  0
    3.0524   -8.7792   -0.1002 O   0  0  0  0  0  0  0  0  0  0  0  0
    1.0877   -7.5391   -0.1613 N   0  0  0  0  0  0  0  0  0  0  0  0
   -0.2254   -7.5535    0.4946 C   0  0  2  0  0  0  0  0  0  0  0  0
   -0.8701   -8.9180    0.4005 C   0  0  0  0  0  0  0  0  0  0  0  0
   -0.4377   -9.9049   -0.5423 N   0  0  0  0  0  0  0  0  0  0  0  0
   -1.8200   -9.1970    1.1790 O   0  0  0  0  0  0  0  0  0  0  0  0
   -1.1397   -6.4832   -0.1197 C   0  0  0  0  0  0  0  0  0  0  0  0
   -0.5525   -4.8084    0.3527 S   0  0  0  0  0  0  0  0  0  0  0  0
   -2.0248   -4.2774    1.3107 C   0  0  0  0  0  0  0  0  0  0  0  0
  -10.8576   -6.0799    0.8640 H   0  0  0  0  0  0  0  0  0  0  0  0
  -11.6552   -7.2492   -0.2592 H   0  0  0  0  0  0  0  0  0  0  0  0
  -12.4268   -5.6453    0.0762 H   0  0  0  0  0  0  0  0  0  0  0  0
   -8.9137   -5.2106   -0.1683 H   0  0  0  0  0  0  0  0  0  0  0  0
   -8.7826   -4.8018   -3.0415 H   0  0  0  0  0  0  0  0  0  0  0  0
   -7.2396   -3.3143   -0.8222 H   0  0  0  0  0  0  0  0  0  0  0  0
   -6.7893   -4.8765   -1.6019 H   0  0  0  0  0  0  0  0  0  0  0  0
   -4.7583   -4.6425   -2.8819 H   0  0  0  0  0  0  0  0  0  0  0  0
   -4.1816   -3.1347   -3.6494 H   0  0  0  0  0  0  0  0  0  0  0  0
   -3.4565   -4.9258   -0.9154 H   0  0  0  0  0  0  0  0  0  0  0  0
   -2.5153   -1.6105    1.6669 H   0  0  0  0  0  0  0  0  0  0  0  0
   -4.8698   -0.9776   -1.8692 H   0  0  0  0  0  0  0  0  0  0  0  0
   -4.7891    0.7272   -0.1389 H   0  0  0  0  0  0  0  0  0  0  0  0
   -3.8542    0.4774    1.3714 H   0  0  0  0  0  0  0  0  0  0  0  0
   -4.0723    2.5742   -1.4587 H   0  0  0  0  0  0  0  0  0  0  0  0
   -2.4587    3.3485   -1.4143 H   0  0  0  0  0  0  0  0  0  0  0  0
   -4.2972    2.9453    1.0206 H   0  0  0  0  0  0  0  0  0  0  0  0
   -3.7172    5.3974   -0.7032 H   0  0  0  0  0  0  0  0  0  0  0  0
   -5.6640    4.1638    2.3001 H   0  0  0  0  0  0  0  0  0  0  0  0
   -6.7983    6.1850    2.8988 H   0  0  0  0  0  0  0  0  0  0  0  0
   -7.9873    4.8300    2.8787 H   0  0  0  0  0  0  0  0  0  0  0  0
   -7.9611    6.0439    1.5429 H   0  0  0  0  0  0  0  0  0  0  0  0
   -6.6392    2.5083    1.0326 H   0  0  0  0  0  0  0  0  0  0  0  0
   -9.4020    4.4908    0.5627 H   0  0  0  0  0  0  0  0  0  0  0  0
   -8.2461    6.2847   -0.7618 H   0  0  0  0  0  0  0  0  0  0  0  0
   -9.9693    6.0952   -1.2276 H   0  0  0  0  0  0  0  0  0  0  0  0
   -8.6716    5.4238   -2.2871 H   0  0  0  0  0  0  0  0  0  0  0  0
  -10.4622    3.6754   -2.0104 H   0  0  0  0  0  0  0  0  0  0  0  0
   -9.2471    2.2481    1.2126 H   0  0  0  0  0  0  0  0  0  0  0  0
  -11.6155    2.2655    1.9071 H   0  0  0  0  0  0  0  0  0  0  0  0
  -11.8088    0.5677    1.3343 H   0  0  0  0  0  0  0  0  0  0  0  0
  -10.6774    0.9561    2.6933 H   0  0  0  0  0  0  0  0  0  0  0  0
   -8.4161    0.3946   -0.3109 H   0  0  0  0  0  0  0  0  0  0  0  0
   -9.5571   -3.0263    0.3950 H   0  0  0  0  0  0  0  0  0  0  0  0
  -11.8203   -2.3431    1.2166 H   0  0  0  0  0  0  0  0  0  0  0  0
  -12.0029   -1.2414   -0.2151 H   0  0  0  0  0  0  0  0  0  0  0  0
  -11.9049   -3.0265   -0.4514 H   0  0  0  0  0  0  0  0  0  0  0  0
   -9.8555   -0.9213   -1.7759 H   0  0  0  0  0  0  0  0  0  0  0  0
   -2.4002    5.9939    1.4892 H   0  0  0  0  0  0  0  0  0  0  0  0
    0.0508    4.4310    0.5920 H   0  0  0  0  0  0  0  0  0  0  0  0
    1.4086    5.2866    2.3536 H   0  0  0  0  0  0  0  0  0  0  0  0
    0.1320    6.4702    2.9007 H   0  0  0  0  0  0  0  0  0  0  0  0
   -0.0701    4.7001    3.1514 H   0  0  0  0  0  0  0  0  0  0  0  0
    0.0777    8.5983    0.3322 H   0  0  0  0  0  0  0  0  0  0  0  0
    2.2422    7.2358    1.7361 H   0  0  0  0  0  0  0  0  0  0  0  0
    2.2818    9.7464   -0.0170 H   0  0  0  0  0  0  0  0  0  0  0  0
    3.5922    9.1932    1.0981 H   0  0  0  0  0  0  0  0  0  0  0  0
    1.9819    9.6597    1.7574 H   0  0  0  0  0  0  0  0  0  0  0  0
    2.8826    7.9085   -2.2348 H   0  0  0  0  0  0  0  0  0  0  0  0
    5.2205    7.8610   -0.3110 H   0  0  0  0  0  0  0  0  0  0  0  0
    6.4210    9.1504   -2.1004 H   0  0  0  0  0  0  0  0  0  0  0  0
    4.9351    9.0980   -3.1242 H   0  0  0  0  0  0  0  0  0  0  0  0
    4.9170    9.9575   -1.5326 H   0  0  0  0  0  0  0  0  0  0  0  0
    6.6216    4.8173   -1.7562 H   0  0  0  0  0  0  0  0  0  0  0  0
    7.3244    7.3411   -0.1890 H   0  0  0  0  0  0  0  0  0  0  0  0
    8.9761    5.8562   -2.3026 H   0  0  0  0  0  0  0  0  0  0  0  0
    9.6829    6.9922   -1.0727 H   0  0  0  0  0  0  0  0  0  0  0  0
    8.4673    7.5737   -2.2673 H   0  0  0  0  0  0  0  0  0  0  0  0
    7.8001    3.3593    0.7418 H   0  0  0  0  0  0  0  0  0  0  0  0
   10.1239    4.5275   -0.8544 H   0  0  0  0  0  0  0  0  0  0  0  0
    8.6746    1.8386   -1.3041 H   0  0  0  0  0  0  0  0  0  0  0  0
   10.1927    2.3833   -2.1238 H   0  0  0  0  0  0  0  0  0  0  0  0
    8.6485    3.2788   -2.3846 H   0  0  0  0  0  0  0  0  0  0  0  0
    9.2748    1.2548    0.8647 H   0  0  0  0  0  0  0  0  0  0  0  0
   11.5375    1.1817    2.5723 H   0  0  0  0  0  0  0  0  0  0  0  0
   13.0517    1.7072    0.6836 H   0  0  0  0  0  0  0  0  0  0  0  0
   13.2639   -0.0085    1.1309 H   0  0  0  0  0  0  0  0  0  0  0  0
   12.3001    0.4201   -0.3363 H   0  0  0  0  0  0  0  0  0  0  0  0
    9.9808   -0.7483   -0.2668 H   0  0  0  0  0  0  0  0  0  0  0  0
    9.5757   -3.1520    1.3786 H   0  0  0  0  0  0  0  0  0  0  0  0
   11.4493   -4.5279    0.3913 H   0  0  0  0  0  0  0  0  0  0  0  0
   12.0588   -3.1940    1.4370 H   0  0  0  0  0  0  0  0  0  0  0  0
   12.1380   -3.0276   -0.3601 H   0  0  0  0  0  0  0  0  0  0  0  0
    8.6569   -5.0578   -0.0392 H   0  0  0  0  0  0  0  0  0  0  0  0
    7.7643   -4.1315   -2.6828 H   0  0  0  0  0  0  0  0  0  0  0  0
    5.3739   -3.5903   -2.0669 H   0  0  0  0  0  0  0  0  0  0  0  0
    5.8771   -3.4859   -0.3385 H   0  0  0  0  0  0  0  0  0  0  0  0
    6.5943   -2.3704   -1.5491 H   0  0  0  0  0  0  0  0  0  0  0  0
    5.8158   -7.4852   -0.9792 H   0  0  0  0  0  0  0  0  0  0  0  0
    6.5645   -5.1822    0.8791 H   0  0  0  0  0  0  0  0  0  0  0  0
    6.6726   -8.2195    1.3236 H   0  0  0  0  0  0  0  0  0  0  0  0
    8.0646   -7.0930    1.1889 H   0  0  0  0  0  0  0  0  0  0  0  0
    6.9424   -6.9377    2.5859 H   0  0  0  0  0  0  0  0  0  0  0  0
    4.7041   -7.8304    2.4746 H   0  0  0  0  0  0  0  0  0  0  0  0
    2.0982   -6.5366    2.0848 H   0  0  0  0  0  0  0  0  0  0  0  0
    2.8392   -9.4521    2.7930 H   0  0  0  0  0  0  0  0  0  0  0  0
    2.5281   -8.0983    3.9474 H   0  0  0  0  0  0  0  0  0  0  0  0
    1.1940   -8.7203    2.9240 H   0  0  0  0  0  0  0  0  0  0  0  0
    1.1089   -7.5209   -1.2074 H   0  0  0  0  0  0  0  0  0  0  0  0
   -0.1055   -7.3138    1.5739 H   0  0  0  0  0  0  0  0  0  0  0  0
   -0.8755  -10.8528   -0.5370 H   0  0  0  0  0  0  0  0  0  0  0  0
    0.3332   -9.7258   -1.2240 H   0  0  0  0  0  0  0  0  0  0  0  0
   -2.1867   -6.6576    0.2032 H   0  0  0  0  0  0  0  0  0  0  0  0
   -1.1273   -6.5660   -1.2280 H   0  0  0  0  0  0  0  0  0  0  0  0
   -2.6181   -5.1310    1.6900 H   0  0  0  0  0  0  0  0  0  0  0  0
   -1.6521   -3.7416    2.2117 H   0  0  0  0  0  0  0  0  0  0  0  0
  1  2  1  0
  2  3  2  0
  2  4  1  0
  4  5  1  0
  5  6  1  0
  6  7  1  0
  7  8  1  0
  8  9  1  0
  9 10  2  0
 10 11  1  0
 11 12  2  0
 12 13  1  0
 13 14  2  0
 13 15  1  0
 15 16  1  0
 16 17  1  0
 17 18  1  0
 18 19  1  0
 19 20  1  0
 20 21  2  0
 20 22  1  0
 22 23  1  0
 22 24  1  0
 24 25  1  0
 25 26  2  0
 25 27  1  0
 27 28  1  0
 27 29  1  0
 29 30  1  0
 30 31  2  0
 30 32  1  0
 32 33  1  0
 32 34  1  0
 34 35  1  0
 35 36  2  0
 35 37  1  0
 37 38  1  0
 37 39  1  0
 39 40  1  0
 40 41  2  0
 18 42  1  0
 42 43  2  0
 42 44  1  0
 44 45  1  0
 45 46  1  0
 45 47  1  0
 47 48  2  0
 47 49  1  0
 49 50  1  0
 50 51  1  0
 50 52  1  0
 52 53  2  0
 52 54  1  0
 54 55  1  0
 55 56  1  0
 55 57  1  0
 57 58  2  0
 57 59  1  0
 59 60  1  0
 60 61  1  0
 60 62  1  0
 62 63  2  0
 62 64  1  0
 64 65  1  0
 65 66  1  0
 65 67  1  0
 67 68  2  0
 67 69  1  0
 69 70  1  0
 70 71  1  0
 70 72  1  0
 72 73  2  0
 72 74  1  0
 74 75  1  0
 75 76  1  0
 75 77  1  0
 77 78  2  0
 77 79  1  0
 79 80  1  0
 80 81  1  0
 80 82  1  0
 82 83  2  0
 82 84  1  0
 84 85  1  0
 85 86  1  0
 85 87  1  0
 87 88  2  0
 87 89  1  0
 89 90  1  0
 90 91  1  0
 90 92  1  0
 92 93  2  0
 92 94  1  0
 94 95  1  0
 95 96  1  0
 96 97  1  0
 96 98  2  0
 95 99  1  0
 99100  1  0
100101  1  0
 40  5  1  0
 14  9  1  0
101 11  1  0
  1102  1  0
  1103  1  0
  1104  1  0
  4105  1  0
  5106  1  6
  6107  1  0
  6108  1  0
  8109  1  0
  8110  1  0
 10111  1  0
 12112  1  0
 14113  1  0
 15114  1  0
 15115  1  0
 17116  1  0
 17117  1  0
 18118  1  1
 19119  1  0
 22120  1  1
 23121  1  0
 23122  1  0
 23123  1  0
 24124  1  0
 27125  1  1
 28126  1  0
 28127  1  0
 28128  1  0
 29129  1  0
 32130  1  1
 33131  1  0
 33132  1  0
 33133  1  0
 34134  1  0
 37135  1  1
 38136  1  0
 38137  1  0
 38138  1  0
 39139  1  0
 44140  1  0
 45141  1  6
 46142  1  0
 46143  1  0
 46144  1  0
 49145  1  0
 50146  1  1
 51147  1  0
 51148  1  0
 51149  1  0
 54150  1  0
 55151  1  1
 56152  1  0
 56153  1  0
 56154  1  0
 59155  1  0
 60156  1  1
 61157  1  0
 61158  1  0
 61159  1  0
 64160  1  0
 65161  1  6
 66162  1  0
 66163  1  0
 66164  1  0
 69165  1  0
 70166  1  1
 71167  1  0
 71168  1  0
 71169  1  0
 74170  1  0
 75171  1  1
 76172  1  0
 76173  1  0
 76174  1  0
 79175  1  0
 80176  1  6
 81177  1  0
 81178  1  0
 81179  1  0
 84180  1  0
 85181  1  6
 86182  1  0
 86183  1  0
 86184  1  0
 89185  1  0
 90186  1  1
 91187  1  0
 91188  1  0
 91189  1  0
 94190  1  0
 95191  1  1
 97192  1  0
 97193  1  0
 99194  1  0
 99195  1  0
101196  1  0
101197  1  0
M  END
