
     RDKit          3D

147149  0  0  0  0  0  0  0  0999 V2000
   -7.0151    8.1588   -0.1923 C   0  0  0  0  0  0  0  0  0  0  0  0
   -6.0324    7.2102    0.4040 C   0  0  0  0  0  0  0  0  0  0  0  0
   -5.7446    7.3110    1.6315 O   0  0  0  0  0  0  0  0  0  0  0  0
   -5.4334    6.1857   -0.3991 N   0  0  0  0  0  0  0  0  0  0  0  0
   -4.6458    5.0929    0.1871 C   0  0  2  0  0  0  0  0  0  0  0  0
   -3.9965    4.2189   -0.9123 C   0  0  0  0  0  0  0  0  0  0  0  0
   -3.2991    2.6472   -0.2818 S   0  0  0  0  0  0  0  0  0  0  0  0
   -1.8080    3.3373    0.5239 C   0  0  0  0  0  0  0  0  0  0  0  0
   -0.5676    2.8455   -0.1729 C   0  0  0  0  0  0  0  0  0  0  0  0
    0.3891    3.7644   -0.6386 C   0  0  0  0  0  0  0  0  0  0  0  0
    1.5893    3.3144   -1.2111 C   0  0  0  0  0  0  0  0  0  0  0  0
    1.8239    1.9342   -1.3280 C   0  0  0  0  0  0  0  0  0  0  0  0
    0.8698    1.0100   -0.8764 C   0  0  0  0  0  0  0  0  0  0  0  0
   -0.3134    1.4726   -0.2869 C   0  0  0  0  0  0  0  0  0  0  0  0
    1.1689   -0.4606   -0.9273 C   0  0  0  0  0  0  0  0  0  0  0  0
    2.3969   -0.8815    0.3567 S   0  0  0  0  0  0  0  0  0  0  0  0
    1.2556   -1.6251    1.5901 C   0  0  0  0  0  0  0  0  0  0  0  0
    1.2544   -3.1628    1.5610 C   0  0  1  0  0  0  0  0  0  0  0  0
    0.6481   -3.6645    0.3196 N   0  0  0  0  0  0  0  0  0  0  0  0
    0.2555   -5.0363    0.1952 C   0  0  0  0  0  0  0  0  0  0  0  0
    1.0378   -5.8576   -0.3593 O   0  0  0  0  0  0  0  0  0  0  0  0
   -1.1170   -5.4951    0.5953 C   0  0  1  0  0  0  0  0  0  0  0  0
   -1.3207   -5.4324    2.1126 C   0  0  0  0  0  0  0  0  0  0  0  0
   -2.1285   -4.6790   -0.0793 N   0  0  0  0  0  0  0  0  0  0  0  0
   -3.0513   -5.2384   -1.0132 C   0  0  0  0  0  0  0  0  0  0  0  0
   -2.8925   -5.0138   -2.2442 O   0  0  0  0  0  0  0  0  0  0  0  0
   -4.2467   -6.0286   -0.5458 C   0  0  1  0  0  0  0  0  0  0  0  0
   -3.8850   -7.5009   -0.3187 C   0  0  0  0  0  0  0  0  0  0  0  0
   -4.7934   -5.4313    0.6731 N   0  0  0  0  0  0  0  0  0  0  0  0
   -5.5369   -4.1958    0.7249 C   0  0  0  0  0  0  0  0  0  0  0  0
   -5.9227   -3.7793    1.8494 O   0  0  0  0  0  0  0  0  0  0  0  0
   -5.9382   -3.4351   -0.5261 C   0  0  1  0  0  0  0  0  0  0  0  0
   -7.3690   -3.7982   -0.9277 C   0  0  0  0  0  0  0  0  0  0  0  0
   -5.7826   -1.9812   -0.3577 N   0  0  0  0  0  0  0  0  0  0  0  0
   -6.7123   -1.1595    0.3633 C   0  0  0  0  0  0  0  0  0  0  0  0
   -6.7526   -1.2189    1.6234 O   0  0  0  0  0  0  0  0  0  0  0  0
   -7.5758   -0.1757   -0.3822 C   0  0  1  0  0  0  0  0  0  0  0  0
   -9.0269   -0.2805    0.0889 C   0  0  0  0  0  0  0  0  0  0  0  0
   -7.0668    1.1865   -0.1970 N   0  0  0  0  0  0  0  0  0  0  0  0
   -7.6089    2.3004   -0.9257 C   0  0  0  0  0  0  0  0  0  0  0  0
   -8.2114    2.0960   -2.0173 O   0  0  0  0  0  0  0  0  0  0  0  0
   -7.4380    3.7262   -0.4442 C   0  0  1  0  0  0  0  0  0  0  0  0
   -8.8021    4.4200   -0.3514 C   0  0  0  0  0  0  0  0  0  0  0  0
   -6.7877    3.7658    0.8730 N   0  0  0  0  0  0  0  0  0  0  0  0
   -5.4808    4.2879    1.1669 C   0  0  0  0  0  0  0  0  0  0  0  0
   -5.0076    4.1013    2.3189 O   0  0  0  0  0  0  0  0  0  0  0  0
    2.6383   -3.7377    1.7612 C   0  0  0  0  0  0  0  0  0  0  0  0
    3.0957   -3.8307    2.9351 O   0  0  0  0  0  0  0  0  0  0  0  0
    3.4237   -4.1735    0.6373 N   0  0  0  0  0  0  0  0  0  0  0  0
    4.4023   -5.2639    0.7116 C   0  0  2  0  0  0  0  0  0  0  0  0
    5.5593   -4.9577    1.6773 C   0  0  0  0  0  0  0  0  0  0  0  0
    4.9279   -5.6043   -0.6679 C   0  0  0  0  0  0  0  0  0  0  0  0
    4.8566   -6.8082   -1.0386 O   0  0  0  0  0  0  0  0  0  0  0  0
    5.4583   -4.6315   -1.5980 N   0  0  0  0  0  0  0  0  0  0  0  0
    5.8551   -3.2471   -1.2827 C   0  0  2  0  0  0  0  0  0  0  0  0
    5.7901   -2.4106   -2.5675 C   0  0  0  0  0  0  0  0  0  0  0  0
    7.2576   -3.2295   -0.7258 C   0  0  0  0  0  0  0  0  0  0  0  0
    8.1208   -3.9845   -1.2449 O   0  0  0  0  0  0  0  0  0  0  0  0
    7.6217   -2.4505    0.4281 N   0  0  0  0  0  0  0  0  0  0  0  0
    7.2983   -1.0320    0.6814 C   0  0  2  0  0  0  0  0  0  0  0  0
    5.8196   -0.8238    1.0328 C   0  0  0  0  0  0  0  0  0  0  0  0
    7.7215   -0.1318   -0.4544 C   0  0  0  0  0  0  0  0  0  0  0  0
    8.3635   -0.5966   -1.4432 O   0  0  0  0  0  0  0  0  0  0  0  0
    7.3613    1.2542   -0.4583 N   0  0  0  0  0  0  0  0  0  0  0  0
    8.0495    2.2315    0.3943 C   0  0  2  0  0  0  0  0  0  0  0  0
    7.3837    2.3307    1.7702 C   0  0  0  0  0  0  0  0  0  0  0  0
    8.1858    3.5573   -0.3385 C   0  0  0  0  0  0  0  0  0  0  0  0
    8.8898    3.5682   -1.3861 O   0  0  0  0  0  0  0  0  0  0  0  0
    7.6454    4.8110    0.1311 N   0  0  0  0  0  0  0  0  0  0  0  0
    6.2436    5.0649    0.5102 C   0  0  1  0  0  0  0  0  0  0  0  0
    6.0201    6.5471    0.6901 C   0  0  0  0  0  0  0  0  0  0  0  0
    6.2486    7.4550   -0.3883 N   0  0  0  0  0  0  0  0  0  0  0  0
    5.6258    6.9935    1.8020 O   0  0  0  0  0  0  0  0  0  0  0  0
    5.2653    4.5123   -0.5380 C   0  0  0  0  0  0  0  0  0  0  0  0
    3.5449    4.6696    0.0720 S   0  0  0  0  0  0  0  0  0  0  0  0
    2.7033    4.2793   -1.5038 C   0  0  0  0  0  0  0  0  0  0  0  0
   -6.6145    9.1970   -0.1361 H   0  0  0  0  0  0  0  0  0  0  0  0
   -7.2183    7.9026   -1.2505 H   0  0  0  0  0  0  0  0  0  0  0  0
   -7.9732    8.1100    0.3730 H   0  0  0  0  0  0  0  0  0  0  0  0
   -5.5620    6.2331   -1.4398 H   0  0  0  0  0  0  0  0  0  0  0  0
   -3.8123    5.5595    0.7540 H   0  0  0  0  0  0  0  0  0  0  0  0
   -3.2033    4.7929   -1.4406 H   0  0  0  0  0  0  0  0  0  0  0  0
   -4.7410    3.9455   -1.6925 H   0  0  0  0  0  0  0  0  0  0  0  0
   -1.8330    4.4392    0.5866 H   0  0  0  0  0  0  0  0  0  0  0  0
   -1.7869    2.9565    1.5647 H   0  0  0  0  0  0  0  0  0  0  0  0
    0.2278    4.8315   -0.5225 H   0  0  0  0  0  0  0  0  0  0  0  0
    2.7695    1.5769   -1.7256 H   0  0  0  0  0  0  0  0  0  0  0  0
   -1.0246    0.7656    0.1208 H   0  0  0  0  0  0  0  0  0  0  0  0
    1.6008   -0.7275   -1.9128 H   0  0  0  0  0  0  0  0  0  0  0  0
    0.2317   -1.0520   -0.8257 H   0  0  0  0  0  0  0  0  0  0  0  0
    1.5946   -1.2859    2.5923 H   0  0  0  0  0  0  0  0  0  0  0  0
    0.2162   -1.2475    1.4612 H   0  0  0  0  0  0  0  0  0  0  0  0
    0.6344   -3.4933    2.4131 H   0  0  0  0  0  0  0  0  0  0  0  0
    0.9413   -3.2222   -0.5803 H   0  0  0  0  0  0  0  0  0  0  0  0
   -1.2247   -6.5536    0.2885 H   0  0  0  0  0  0  0  0  0  0  0  0
   -1.4482   -4.3869    2.4511 H   0  0  0  0  0  0  0  0  0  0  0  0
   -0.4656   -5.8990    2.6419 H   0  0  0  0  0  0  0  0  0  0  0  0
   -2.2434   -5.9871    2.3846 H   0  0  0  0  0  0  0  0  0  0  0  0
   -2.0705   -3.6364   -0.0033 H   0  0  0  0  0  0  0  0  0  0  0  0
   -5.0279   -6.0123   -1.3403 H   0  0  0  0  0  0  0  0  0  0  0  0
   -3.2232   -7.6219    0.5629 H   0  0  0  0  0  0  0  0  0  0  0  0
   -3.3787   -7.9195   -1.2150 H   0  0  0  0  0  0  0  0  0  0  0  0
   -4.8111   -8.0824   -0.1364 H   0  0  0  0  0  0  0  0  0  0  0  0
   -4.5638   -5.8790    1.5973 H   0  0  0  0  0  0  0  0  0  0  0  0
   -5.2837   -3.7315   -1.3668 H   0  0  0  0  0  0  0  0  0  0  0  0
   -7.4331   -4.8780   -1.1693 H   0  0  0  0  0  0  0  0  0  0  0  0
   -7.6656   -3.2144   -1.8249 H   0  0  0  0  0  0  0  0  0  0  0  0
   -8.0794   -3.5758   -0.0997 H   0  0  0  0  0  0  0  0  0  0  0  0
   -5.1017   -1.4944   -0.9877 H   0  0  0  0  0  0  0  0  0  0  0  0
   -7.5366   -0.4328   -1.4665 H   0  0  0  0  0  0  0  0  0  0  0  0
   -9.6762    0.3693   -0.5255 H   0  0  0  0  0  0  0  0  0  0  0  0
   -9.3919   -1.3240   -0.0112 H   0  0  0  0  0  0  0  0  0  0  0  0
   -9.1178    0.0362    1.1482 H   0  0  0  0  0  0  0  0  0  0  0  0
   -6.2912    1.3539    0.4899 H   0  0  0  0  0  0  0  0  0  0  0  0
   -6.8504    4.2624   -1.2023 H   0  0  0  0  0  0  0  0  0  0  0  0
   -9.4948    3.8458    0.3062 H   0  0  0  0  0  0  0  0  0  0  0  0
   -9.2553    4.5193   -1.3590 H   0  0  0  0  0  0  0  0  0  0  0  0
   -8.6766    5.4453    0.0730 H   0  0  0  0  0  0  0  0  0  0  0  0
   -7.3117    3.3388    1.6685 H   0  0  0  0  0  0  0  0  0  0  0  0
    3.1505   -3.8220   -0.3058 H   0  0  0  0  0  0  0  0  0  0  0  0
    3.8765   -6.1642    1.1088 H   0  0  0  0  0  0  0  0  0  0  0  0
    5.2617   -5.2084    2.7110 H   0  0  0  0  0  0  0  0  0  0  0  0
    5.8266   -3.8901    1.6515 H   0  0  0  0  0  0  0  0  0  0  0  0
    6.4544   -5.5676    1.4306 H   0  0  0  0  0  0  0  0  0  0  0  0
    5.6220   -4.9807   -2.5712 H   0  0  0  0  0  0  0  0  0  0  0  0
    5.1365   -2.8046   -0.5769 H   0  0  0  0  0  0  0  0  0  0  0  0
    6.5344   -2.7746   -3.3129 H   0  0  0  0  0  0  0  0  0  0  0  0
    5.9869   -1.3406   -2.3415 H   0  0  0  0  0  0  0  0  0  0  0  0
    4.7785   -2.4878   -3.0134 H   0  0  0  0  0  0  0  0  0  0  0  0
    8.3447   -2.8776    1.0480 H   0  0  0  0  0  0  0  0  0  0  0  0
    7.8901   -0.7257    1.5721 H   0  0  0  0  0  0  0  0  0  0  0  0
    5.4015   -1.6937    1.5759 H   0  0  0  0  0  0  0  0  0  0  0  0
    5.2248   -0.6363    0.1124 H   0  0  0  0  0  0  0  0  0  0  0  0
    5.7014    0.0564    1.6949 H   0  0  0  0  0  0  0  0  0  0  0  0
    6.8872    1.5929   -1.3243 H   0  0  0  0  0  0  0  0  0  0  0  0
    9.0930    1.8732    0.5741 H   0  0  0  0  0  0  0  0  0  0  0  0
    7.6130    1.4230    2.3693 H   0  0  0  0  0  0  0  0  0  0  0  0
    7.7772    3.1986    2.3327 H   0  0  0  0  0  0  0  0  0  0  0  0
    6.2840    2.3983    1.6635 H   0  0  0  0  0  0  0  0  0  0  0  0
    8.2806    5.6305    0.0048 H   0  0  0  0  0  0  0  0  0  0  0  0
    6.0409    4.5858    1.4813 H   0  0  0  0  0  0  0  0  0  0  0  0
    6.6719    7.1284   -1.2898 H   0  0  0  0  0  0  0  0  0  0  0  0
    6.0382    8.4820   -0.2780 H   0  0  0  0  0  0  0  0  0  0  0  0
    5.3835    5.0568   -1.5021 H   0  0  0  0  0  0  0  0  0  0  0  0
    5.4608    3.4412   -0.7223 H   0  0  0  0  0  0  0  0  0  0  0  0
    2.2958    5.2203   -1.9272 H   0  0  0  0  0  0  0  0  0  0  0  0
    3.4044    3.8467   -2.2501 H   0  0  0  0  0  0  0  0  0  0  0  0
  1  2  1  0
  2  3  2  0
  2  4  1  0
  4  5  1  0
  5  6  1  0
  6  7  1  0
  7  8  1  0
  8  9  1  0
  9 10  1  0
 10 11  2  0
 11 12  1  0
 12 13  2  0
 13 14  1  0
 13 15  1  0
 15 16  1  0
 16 17  1  0
 17 18  1  0
 18 19  1  0
 19 20  1  0
 20 21  2  0
 20 22  1  0
 22 23  1  0
 22 24  1  0
 24 25  1  0
 25 26  2  0
 25 27  1  0
 27 28  1  0
 27 29  1  0
 29 30  1  0
 30 31  2  0
 30 32  1  0
 32 33  1  0
 32 34  1  0
 34 35  1  0
 35 36  2  0
 35 37  1  0
 37 38  1  0
 37 39  1  0
 39 40  1  0
 40 41  2  0
 40 42  1  0
 42 43  1  0
 42 44  1  0
 44 45  1  0
 45 46  2  0
 18 47  1  0
 47 48  2  0
 47 49  1  0
 49 50  1  0
 50 51  1  0
 50 52  1  0
 52 53  2  0
 52 54  1  0
 54 55  1  0
 55 56  1  0
 55 57  1  0
 57 58  2  0
 57 59  1  0
 59 60  1  0
 60 61  1  0
 60 62  1  0
 62 63  2  0
 62 64  1  0
 64 65  1  0
 65 66  1  0
 65 67  1  0
 67 68  2  0
 67 69  1  0
 69 70  1  0
 70 71  1  0
 71 72  1  0
 71 73  2  0
 70 74  1  0
 74 75  1  0
 75 76  1  0
 45  5  1  0
 14  9  2  0
 76 11  1  0
  1 77  1  0
  1 78  1  0
  1 79  1  0
  4 80  1  0
  5 81  1  1
  6 82  1  0
  6 83  1  0
  8 84  1  0
  8 85  1  0
 10 86  1  0
 12 87  1  0
 14 88  1  0
 15 89  1  0
 15 90  1  0
 17 91  1  0
 17 92  1  0
 18 93  1  1
 19 94  1  0
 22 95  1  6
 23 96  1  0
 23 97  1  0
 23 98  1  0
 24 99  1  0
 27100  1  6
 28101  1  0
 28102  1  0
 28103  1  0
 29104  1  0
 32105  1  6
 33106  1  0
 33107  1  0
 33108  1  0
 34109  1  0
 37110  1  6
 38111  1  0
 38112  1  0
 38113  1  0
 39114  1  0
 42115  1  6
 43116  1  0
 43117  1  0
 43118  1  0
 44119  1  0
 49120  1  0
 50121  1  1
 51122  1  0
 51123  1  0
 51124  1  0
 54125  1  0
 55126  1  1
 56127  1  0
 56128  1  0
 56129  1  0
 59130  1  0
 60131  1  1
 61132  1  0
 61133  1  0
 61134  1  0
 64135  1  0
 65136  1  1
 66137  1  0
 66138  1  0
 66139  1  0
 69140  1  0
 70141  1  1
 72142  1  0
 72143  1  0
 74144  1  0
 74145  1  0
 76146  1  0
 76147  1  0
M  END
