
     RDKit          3D

157159  0  0  0  0  0  0  0  0999 V2000
    5.3987    6.6020    2.2920 C   0  0  0  0  0  0  0  0  0  0  0  0
    4.7450    5.2536    2.2127 C   0  0  0  0  0  0  0  0  0  0  0  0
    4.4385    4.6624    3.2822 O   0  0  0  0  0  0  0  0  0  0  0  0
    4.4643    4.6099    0.9550 N   0  0  0  0  0  0  0  0  0  0  0  0
    4.7939    5.1907   -0.3532 C   0  0  2  0  0  0  0  0  0  0  0  0
    3.6554    6.1299   -0.8282 C   0  0  0  0  0  0  0  0  0  0  0  0
    2.1197    5.2318   -1.2960 S   0  0  0  0  0  0  0  0  0  0  0  0
    1.2943    5.2842    0.3323 C   0  0  0  0  0  0  0  0  0  0  0  0
    0.4429    4.0538    0.4970 C   0  0  0  0  0  0  0  0  0  0  0  0
   -0.9443    4.1636    0.6756 C   0  0  0  0  0  0  0  0  0  0  0  0
   -1.7386    3.0127    0.7963 C   0  0  0  0  0  0  0  0  0  0  0  0
   -1.1411    1.7475    0.7170 C   0  0  0  0  0  0  0  0  0  0  0  0
    0.2507    1.6237    0.5831 C   0  0  0  0  0  0  0  0  0  0  0  0
    1.0312    2.7808    0.4626 C   0  0  0  0  0  0  0  0  0  0  0  0
    0.8951    0.2691    0.4529 C   0  0  0  0  0  0  0  0  0  0  0  0
    0.3711   -0.8331    1.8194 S   0  0  0  0  0  0  0  0  0  0  0  0
   -0.5863   -2.0131    0.7877 C   0  0  0  0  0  0  0  0  0  0  0  0
    0.3528   -3.0195    0.0935 C   0  0  1  0  0  0  0  0  0  0  0  0
    0.8438   -4.0339    1.0305 N   0  0  0  0  0  0  0  0  0  0  0  0
    1.9793   -4.8413    0.7044 C   0  0  0  0  0  0  0  0  0  0  0  0
    1.8108   -6.0622    0.4295 O   0  0  0  0  0  0  0  0  0  0  0  0
    3.3555   -4.2238    0.6380 C   0  0  1  0  0  0  0  0  0  0  0  0
    3.6074   -3.3055    1.8416 C   0  0  0  0  0  0  0  0  0  0  0  0
    4.3893   -5.2630    0.6145 N   0  0  0  0  0  0  0  0  0  0  0  0
    5.5046   -5.1503   -0.2729 C   0  0  0  0  0  0  0  0  0  0  0  0
    5.3196   -5.2824   -1.5145 O   0  0  0  0  0  0  0  0  0  0  0  0
    6.8630   -4.7567    0.2579 C   0  0  1  0  0  0  0  0  0  0  0  0
    7.2406   -5.5624    1.5040 C   0  0  0  0  0  0  0  0  0  0  0  0
    7.8945   -4.9524   -0.7706 N   0  0  0  0  0  0  0  0  0  0  0  0
    8.7669   -3.9280   -1.2771 C   0  0  0  0  0  0  0  0  0  0  0  0
    9.2436   -4.0663   -2.4355 O   0  0  0  0  0  0  0  0  0  0  0  0
    9.2512   -2.7767   -0.4191 C   0  0  1  0  0  0  0  0  0  0  0  0
   10.4702   -3.2119    0.3930 C   0  0  0  0  0  0  0  0  0  0  0  0
    9.6121   -1.6377   -1.2658 N   0  0  0  0  0  0  0  0  0  0  0  0
    9.1196   -0.3164   -1.0214 C   0  0  0  0  0  0  0  0  0  0  0  0
    9.9408    0.5836   -0.6997 O   0  0  0  0  0  0  0  0  0  0  0  0
    7.6678    0.0560   -1.2182 C   0  0  1  0  0  0  0  0  0  0  0  0
    6.8331   -1.0382   -1.8912 C   0  0  0  0  0  0  0  0  0  0  0  0
    7.0643    0.4349    0.0668 N   0  0  0  0  0  0  0  0  0  0  0  0
    7.2184    1.7259    0.6849 C   0  0  0  0  0  0  0  0  0  0  0  0
    7.4924    1.7711    1.9171 O   0  0  0  0  0  0  0  0  0  0  0  0
    7.0530    3.0387   -0.0515 C   0  0  1  0  0  0  0  0  0  0  0  0
    8.3589    3.4948   -0.7121 C   0  0  0  0  0  0  0  0  0  0  0  0
    5.9639    2.9808   -1.0329 N   0  0  0  0  0  0  0  0  0  0  0  0
    5.1184    4.0978   -1.3607 C   0  0  0  0  0  0  0  0  0  0  0  0
    4.6623    4.1716   -2.5341 O   0  0  0  0  0  0  0  0  0  0  0  0
   -0.2961   -3.6602   -1.1167 C   0  0  0  0  0  0  0  0  0  0  0  0
    0.2137   -3.4354   -2.2456 O   0  0  0  0  0  0  0  0  0  0  0  0
   -1.4489   -4.5219   -1.0541 N   0  0  0  0  0  0  0  0  0  0  0  0
   -2.1528   -4.9560    0.1579 C   0  0  2  0  0  0  0  0  0  0  0  0
   -2.3613   -6.4706    0.1142 C   0  0  0  0  0  0  0  0  0  0  0  0
   -3.4789   -4.2535    0.2633 C   0  0  0  0  0  0  0  0  0  0  0  0
   -3.7334   -3.5402    1.2727 O   0  0  0  0  0  0  0  0  0  0  0  0
   -4.4391   -4.3456   -0.7968 N   0  0  0  0  0  0  0  0  0  0  0  0
   -5.7174   -5.0400   -0.6247 C   0  0  2  0  0  0  0  0  0  0  0  0
   -6.5390   -4.9850   -1.9157 C   0  0  0  0  0  0  0  0  0  0  0  0
   -6.5067   -4.4589    0.5187 C   0  0  0  0  0  0  0  0  0  0  0  0
   -6.7541   -5.1865    1.5187 O   0  0  0  0  0  0  0  0  0  0  0  0
   -6.9041   -3.0754    0.4976 N   0  0  0  0  0  0  0  0  0  0  0  0
   -8.1042   -2.4896    1.1142 C   0  0  2  0  0  0  0  0  0  0  0  0
   -8.7701   -3.3780    2.1804 C   0  0  0  0  0  0  0  0  0  0  0  0
   -9.0798   -2.1099    0.0276 C   0  0  0  0  0  0  0  0  0  0  0  0
  -10.0747   -2.8371   -0.2383 O   0  0  0  0  0  0  0  0  0  0  0  0
   -8.8310   -0.9475   -0.7653 N   0  0  0  0  0  0  0  0  0  0  0  0
   -9.2618    0.3769   -0.3169 C   0  0  2  0  0  0  0  0  0  0  0  0
  -10.7583    0.5563   -0.5761 C   0  0  0  0  0  0  0  0  0  0  0  0
   -8.4666    1.4464   -1.0246 C   0  0  0  0  0  0  0  0  0  0  0  0
   -8.4568    1.4848   -2.2846 O   0  0  0  0  0  0  0  0  0  0  0  0
   -7.6475    2.3665   -0.2936 N   0  0  0  0  0  0  0  0  0  0  0  0
   -8.1647    3.2144    0.7878 C   0  0  2  0  0  0  0  0  0  0  0  0
   -9.1238    4.2841    0.2510 C   0  0  0  0  0  0  0  0  0  0  0  0
   -7.0484    3.8145    1.6178 C   0  0  0  0  0  0  0  0  0  0  0  0
   -6.9858    3.4802    2.8327 O   0  0  0  0  0  0  0  0  0  0  0  0
   -6.0782    4.7646    1.1263 N   0  0  0  0  0  0  0  0  0  0  0  0
   -5.8882    5.2097   -0.2603 C   0  0  1  0  0  0  0  0  0  0  0  0
   -6.2663    6.6600   -0.3979 C   0  0  0  0  0  0  0  0  0  0  0  0
   -6.6156    7.1954   -1.6757 N   0  0  0  0  0  0  0  0  0  0  0  0
   -6.2489    7.4244    0.6051 O   0  0  0  0  0  0  0  0  0  0  0  0
   -4.4242    5.0167   -0.6883 C   0  0  0  0  0  0  0  0  0  0  0  0
   -3.9751    3.2394   -0.7279 S   0  0  0  0  0  0  0  0  0  0  0  0
   -3.2250    3.1322    0.9342 C   0  0  0  0  0  0  0  0  0  0  0  0
    6.4079    6.5622    1.8358 H   0  0  0  0  0  0  0  0  0  0  0  0
    4.7772    7.3586    1.7712 H   0  0  0  0  0  0  0  0  0  0  0  0
    5.5085    6.9145    3.3537 H   0  0  0  0  0  0  0  0  0  0  0  0
    4.0356    3.6575    0.9942 H   0  0  0  0  0  0  0  0  0  0  0  0
    5.7217    5.8004   -0.2670 H   0  0  0  0  0  0  0  0  0  0  0  0
    3.4298    6.8972   -0.0613 H   0  0  0  0  0  0  0  0  0  0  0  0
    4.0066    6.6754   -1.7298 H   0  0  0  0  0  0  0  0  0  0  0  0
    0.6802    6.2123    0.3793 H   0  0  0  0  0  0  0  0  0  0  0  0
    2.0195    5.3282    1.1708 H   0  0  0  0  0  0  0  0  0  0  0  0
   -1.4092    5.1421    0.7068 H   0  0  0  0  0  0  0  0  0  0  0  0
   -1.7574    0.8583    0.7594 H   0  0  0  0  0  0  0  0  0  0  0  0
    2.0966    2.6893    0.3033 H   0  0  0  0  0  0  0  0  0  0  0  0
    0.6481   -0.1461   -0.5471 H   0  0  0  0  0  0  0  0  0  0  0  0
    2.0035    0.3517    0.5077 H   0  0  0  0  0  0  0  0  0  0  0  0
   -1.1868   -1.4509    0.0373 H   0  0  0  0  0  0  0  0  0  0  0  0
   -1.2967   -2.5326    1.4571 H   0  0  0  0  0  0  0  0  0  0  0  0
    1.2288   -2.4451   -0.2759 H   0  0  0  0  0  0  0  0  0  0  0  0
    0.5141   -4.0439    2.0192 H   0  0  0  0  0  0  0  0  0  0  0  0
    3.4140   -3.6115   -0.2913 H   0  0  0  0  0  0  0  0  0  0  0  0
    2.8821   -2.4672    1.8465 H   0  0  0  0  0  0  0  0  0  0  0  0
    4.6320   -2.8761    1.7777 H   0  0  0  0  0  0  0  0  0  0  0  0
    3.5148   -3.8767    2.7897 H   0  0  0  0  0  0  0  0  0  0  0  0
    4.4518   -5.9259    1.4209 H   0  0  0  0  0  0  0  0  0  0  0  0
    6.7795   -3.6919    0.5469 H   0  0  0  0  0  0  0  0  0  0  0  0
    8.2631   -5.2835    1.8388 H   0  0  0  0  0  0  0  0  0  0  0  0
    7.2254   -6.6531    1.2874 H   0  0  0  0  0  0  0  0  0  0  0  0
    6.5465   -5.3379    2.3394 H   0  0  0  0  0  0  0  0  0  0  0  0
    7.9446   -5.8926   -1.2304 H   0  0  0  0  0  0  0  0  0  0  0  0
    8.4752   -2.4544    0.3005 H   0  0  0  0  0  0  0  0  0  0  0  0
   10.8003   -2.3803    1.0524 H   0  0  0  0  0  0  0  0  0  0  0  0
   10.2182   -4.0890    1.0304 H   0  0  0  0  0  0  0  0  0  0  0  0
   11.3122   -3.4908   -0.2814 H   0  0  0  0  0  0  0  0  0  0  0  0
   10.4573   -1.7268   -1.8766 H   0  0  0  0  0  0  0  0  0  0  0  0
    7.6616    0.9086   -1.9192 H   0  0  0  0  0  0  0  0  0  0  0  0
    6.6933   -1.9110   -1.2218 H   0  0  0  0  0  0  0  0  0  0  0  0
    7.3148   -1.3690   -2.8354 H   0  0  0  0  0  0  0  0  0  0  0  0
    5.8242   -0.6391   -2.1353 H   0  0  0  0  0  0  0  0  0  0  0  0
    6.8149   -0.3545    0.7076 H   0  0  0  0  0  0  0  0  0  0  0  0
    6.8269    3.8140    0.7110 H   0  0  0  0  0  0  0  0  0  0  0  0
    9.1613    3.5692    0.0552 H   0  0  0  0  0  0  0  0  0  0  0  0
    8.2184    4.4990   -1.1632 H   0  0  0  0  0  0  0  0  0  0  0  0
    8.6871    2.8031   -1.5053 H   0  0  0  0  0  0  0  0  0  0  0  0
    5.9491    2.1994   -1.7220 H   0  0  0  0  0  0  0  0  0  0  0  0
   -1.8353   -4.8490   -1.9681 H   0  0  0  0  0  0  0  0  0  0  0  0
   -1.5573   -4.7429    1.0601 H   0  0  0  0  0  0  0  0  0  0  0  0
   -2.8842   -6.8127    1.0347 H   0  0  0  0  0  0  0  0  0  0  0  0
   -2.9591   -6.7612   -0.7760 H   0  0  0  0  0  0  0  0  0  0  0  0
   -1.3732   -6.9816    0.0625 H   0  0  0  0  0  0  0  0  0  0  0  0
   -4.1370   -4.0564   -1.7550 H   0  0  0  0  0  0  0  0  0  0  0  0
   -5.5019   -6.1114   -0.4048 H   0  0  0  0  0  0  0  0  0  0  0  0
   -6.7185   -3.9305   -2.2174 H   0  0  0  0  0  0  0  0  0  0  0  0
   -5.9898   -5.4993   -2.7328 H   0  0  0  0  0  0  0  0  0  0  0  0
   -7.5159   -5.4937   -1.7743 H   0  0  0  0  0  0  0  0  0  0  0  0
   -6.3838   -2.4505   -0.1580 H   0  0  0  0  0  0  0  0  0  0  0  0
   -7.8003   -1.5532    1.6285 H   0  0  0  0  0  0  0  0  0  0  0  0
   -9.6488   -2.8548    2.6107 H   0  0  0  0  0  0  0  0  0  0  0  0
   -8.0593   -3.5795    3.0095 H   0  0  0  0  0  0  0  0  0  0  0  0
   -9.1201   -4.3339    1.7309 H   0  0  0  0  0  0  0  0  0  0  0  0
   -8.2051   -1.0549   -1.5984 H   0  0  0  0  0  0  0  0  0  0  0  0
   -9.0868    0.4532    0.7764 H   0  0  0  0  0  0  0  0  0  0  0  0
  -11.0778    1.5827   -0.2962 H   0  0  0  0  0  0  0  0  0  0  0  0
  -10.9904    0.3837   -1.6506 H   0  0  0  0  0  0  0  0  0  0  0  0
  -11.3369   -0.1679    0.0319 H   0  0  0  0  0  0  0  0  0  0  0  0
   -6.6614    2.4699   -0.6183 H   0  0  0  0  0  0  0  0  0  0  0  0
   -8.7634    2.5702    1.4701 H   0  0  0  0  0  0  0  0  0  0  0  0
   -8.6760    4.8782   -0.5662 H   0  0  0  0  0  0  0  0  0  0  0  0
  -10.0440    3.7999   -0.1453 H   0  0  0  0  0  0  0  0  0  0  0  0
   -9.4274    4.9705    1.0718 H   0  0  0  0  0  0  0  0  0  0  0  0
   -5.4637    5.2029    1.8494 H   0  0  0  0  0  0  0  0  0  0  0  0
   -6.5193    4.6328   -0.9583 H   0  0  0  0  0  0  0  0  0  0  0  0
   -6.6211    6.5851   -2.5231 H   0  0  0  0  0  0  0  0  0  0  0  0
   -6.8659    8.2017   -1.7804 H   0  0  0  0  0  0  0  0  0  0  0  0
   -3.7390    5.6004   -0.0386 H   0  0  0  0  0  0  0  0  0  0  0  0
   -4.2960    5.4040   -1.7194 H   0  0  0  0  0  0  0  0  0  0  0  0
   -3.4776    4.0021    1.5720 H   0  0  0  0  0  0  0  0  0  0  0  0
   -3.6355    2.2334    1.4404 H   0  0  0  0  0  0  0  0  0  0  0  0
  1  2  1  0
  2  3  2  0
  2  4  1  0
  4  5  1  0
  5  6  1  0
  6  7  1  0
  7  8  1  0
  8  9  1  0
  9 10  2  0
 10 11  1  0
 11 12  2  0
 12 13  1  0
 13 14  2  0
 13 15  1  0
 15 16  1  0
 16 17  1  0
 17 18  1  0
 18 19  1  0
 19 20  1  0
 20 21  2  0
 20 22  1  0
 22 23  1  0
 22 24  1  0
 24 25  1  0
 25 26  2  0
 25 27  1  0
 27 28  1  0
 27 29  1  0
 29 30  1  0
 30 31  2  0
 30 32  1  0
 32 33  1  0
 32 34  1  0
 34 35  1  0
 35 36  2  0
 35 37  1  0
 37 38  1  0
 37 39  1  0
 39 40  1  0
 40 41  2  0
 40 42  1  0
 42 43  1  0
 42 44  1  0
 44 45  1  0
 45 46  2  0
 18 47  1  0
 47 48  2  0
 47 49  1  0
 49 50  1  0
 50 51  1  0
 50 52  1  0
 52 53  2  0
 52 54  1  0
 54 55  1  0
 55 56  1  0
 55 57  1  0
 57 58  2  0
 57 59  1  0
 59 60  1  0
 60 61  1  0
 60 62  1  0
 62 63  2  0
 62 64  1  0
 64 65  1  0
 65 66  1  0
 65 67  1  0
 67 68  2  0
 67 69  1  0
 69 70  1  0
 70 71  1  0
 70 72  1  0
 72 73  2  0
 72 74  1  0
 74 75  1  0
 75 76  1  0
 76 77  1  0
 76 78  2  0
 75 79  1  0
 79 80  1  0
 80 81  1  0
 45  5  1  0
 14  9  1  0
 81 11  1  0
  1 82  1  0
  1 83  1  0
  1 84  1  0
  4 85  1  0
  5 86  1  1
  6 87  1  0
  6 88  1  0
  8 89  1  0
  8 90  1  0
 10 91  1  0
 12 92  1  0
 14 93  1  0
 15 94  1  0
 15 95  1  0
 17 96  1  0
 17 97  1  0
 18 98  1  6
 19 99  1  0
 22100  1  6
 23101  1  0
 23102  1  0
 23103  1  0
 24104  1  0
 27105  1  1
 28106  1  0
 28107  1  0
 28108  1  0
 29109  1  0
 32110  1  1
 33111  1  0
 33112  1  0
 33113  1  0
 34114  1  0
 37115  1  6
 38116  1  0
 38117  1  0
 38118  1  0
 39119  1  0
 42120  1  1
 43121  1  0
 43122  1  0
 43123  1  0
 44124  1  0
 49125  1  0
 50126  1  1
 51127  1  0
 51128  1  0
 51129  1  0
 54130  1  0
 55131  1  1
 56132  1  0
 56133  1  0
 56134  1  0
 59135  1  0
 60136  1  1
 61137  1  0
 61138  1  0
 61139  1  0
 64140  1  0
 65141  1  1
 66142  1  0
 66143  1  0
 66144  1  0
 69145  1  0
 70146  1  1
 71147  1  0
 71148  1  0
 71149  1  0
 74150  1  0
 75151  1  6
 77152  1  0
 77153  1  0
 79154  1  0
 79155  1  0
 81156  1  0
 81157  1  0
M  END
