
     RDKit          3D

167169  0  0  0  0  0  0  0  0999 V2000
   -6.4355   -7.2353   -0.5781 C   0  0  0  0  0  0  0  0  0  0  0  0
   -6.2437   -6.8752    0.8662 C   0  0  0  0  0  0  0  0  0  0  0  0
   -6.2799   -7.7907    1.7313 O   0  0  0  0  0  0  0  0  0  0  0  0
   -6.0279   -5.5205    1.2919 N   0  0  0  0  0  0  0  0  0  0  0  0
   -5.7855   -4.3974    0.3797 C   0  0  2  0  0  0  0  0  0  0  0  0
   -4.2953   -4.3699   -0.0078 C   0  0  0  0  0  0  0  0  0  0  0  0
   -4.0212   -3.2431   -1.4237 S   0  0  0  0  0  0  0  0  0  0  0  0
   -2.3372   -3.8359   -1.8142 C   0  0  0  0  0  0  0  0  0  0  0  0
   -1.3437   -3.3245   -0.8078 C   0  0  0  0  0  0  0  0  0  0  0  0
   -0.7305   -4.2032    0.0976 C   0  0  0  0  0  0  0  0  0  0  0  0
    0.2312   -3.7322    1.0045 C   0  0  0  0  0  0  0  0  0  0  0  0
    0.5860   -2.3745    0.9918 C   0  0  0  0  0  0  0  0  0  0  0  0
   -0.0015   -1.4937    0.0708 C   0  0  0  0  0  0  0  0  0  0  0  0
   -0.9863   -1.9691   -0.8066 C   0  0  0  0  0  0  0  0  0  0  0  0
    0.4069   -0.0480    0.0352 C   0  0  0  0  0  0  0  0  0  0  0  0
   -0.6557    0.9101    1.1647 S   0  0  0  0  0  0  0  0  0  0  0  0
    0.1297    2.5269    0.8158 C   0  0  0  0  0  0  0  0  0  0  0  0
   -0.4007    3.1712   -0.4913 C   0  0  1  0  0  0  0  0  0  0  0  0
   -1.1351    4.4122   -0.2072 N   0  0  0  0  0  0  0  0  0  0  0  0
   -2.4486    4.4825    0.3760 C   0  0  0  0  0  0  0  0  0  0  0  0
   -2.8060    5.5667    0.9104 O   0  0  0  0  0  0  0  0  0  0  0  0
   -3.4535    3.3522    0.2681 C   0  0  1  0  0  0  0  0  0  0  0  0
   -4.3614    3.2612    1.4997 C   0  0  0  0  0  0  0  0  0  0  0  0
   -4.2373    3.4677   -0.9685 N   0  0  0  0  0  0  0  0  0  0  0  0
   -4.9160    4.6659   -1.3778 C   0  0  0  0  0  0  0  0  0  0  0  0
   -4.4585    5.3235   -2.3530 O   0  0  0  0  0  0  0  0  0  0  0  0
   -6.1983    5.1101   -0.7195 C   0  0  1  0  0  0  0  0  0  0  0  0
   -6.0169    6.4872   -0.0786 C   0  0  0  0  0  0  0  0  0  0  0  0
   -7.2693    5.1812   -1.7187 N   0  0  0  0  0  0  0  0  0  0  0  0
   -8.5866    4.6102   -1.5901 C   0  0  0  0  0  0  0  0  0  0  0  0
   -9.4550    4.9186   -2.4512 O   0  0  0  0  0  0  0  0  0  0  0  0
   -8.9808    3.6965   -0.4465 C   0  0  1  0  0  0  0  0  0  0  0  0
   -9.3344    4.5204    0.7945 C   0  0  0  0  0  0  0  0  0  0  0  0
  -10.1457    2.8825   -0.8190 N   0  0  0  0  0  0  0  0  0  0  0  0
  -10.3133    1.4961   -0.4782 C   0  0  0  0  0  0  0  0  0  0  0  0
  -11.4822    1.0571   -0.3019 O   0  0  0  0  0  0  0  0  0  0  0  0
   -9.1382    0.5616   -0.2768 C   0  0  1  0  0  0  0  0  0  0  0  0
   -8.7446    0.5410    1.2066 C   0  0  0  0  0  0  0  0  0  0  0  0
   -9.4715   -0.7967   -0.7275 N   0  0  0  0  0  0  0  0  0  0  0  0
   -8.5486   -1.8787   -0.5913 C   0  0  0  0  0  0  0  0  0  0  0  0
   -7.5586   -1.9564   -1.3692 O   0  0  0  0  0  0  0  0  0  0  0  0
   -8.7585   -2.9028    0.4932 C   0  0  1  0  0  0  0  0  0  0  0  0
   -9.0970   -4.2851   -0.0722 C   0  0  0  0  0  0  0  0  0  0  0  0
   -7.6193   -2.9308    1.4213 N   0  0  0  0  0  0  0  0  0  0  0  0
   -6.2463   -3.1165    1.0426 C   0  0  0  0  0  0  0  0  0  0  0  0
   -5.4028   -2.2403    1.3842 O   0  0  0  0  0  0  0  0  0  0  0  0
    0.7125    3.4344   -1.4936 C   0  0  0  0  0  0  0  0  0  0  0  0
    0.7245    2.7548   -2.5544 O   0  0  0  0  0  0  0  0  0  0  0  0
    1.6956    4.4784   -1.3444 N   0  0  0  0  0  0  0  0  0  0  0  0
    2.1728    5.0450   -0.0777 C   0  0  2  0  0  0  0  0  0  0  0  0
    2.1165    6.5739   -0.1479 C   0  0  0  0  0  0  0  0  0  0  0  0
    3.5933    4.6139    0.2129 C   0  0  0  0  0  0  0  0  0  0  0  0
    4.0792    4.8421    1.3540 O   0  0  0  0  0  0  0  0  0  0  0  0
    4.4261    4.0306   -0.8042 N   0  0  0  0  0  0  0  0  0  0  0  0
    5.8211    4.4597   -0.9818 C   0  0  2  0  0  0  0  0  0  0  0  0
    5.8572    5.9435   -1.3729 C   0  0  0  0  0  0  0  0  0  0  0  0
    6.4920    3.6426   -2.0684 C   0  0  0  0  0  0  0  0  0  0  0  0
    5.9224    3.5599   -3.1918 O   0  0  0  0  0  0  0  0  0  0  0  0
    7.7563    2.9728   -1.8939 N   0  0  0  0  0  0  0  0  0  0  0  0
    8.6140    3.0274   -0.6990 C   0  0  2  0  0  0  0  0  0  0  0  0
    9.2591    4.4131   -0.5557 C   0  0  0  0  0  0  0  0  0  0  0  0
    9.7126    1.9849   -0.8138 C   0  0  0  0  0  0  0  0  0  0  0  0
   10.5151    2.0648   -1.7831 O   0  0  0  0  0  0  0  0  0  0  0  0
    9.8810    0.9007    0.1210 N   0  0  0  0  0  0  0  0  0  0  0  0
    9.1148    0.7124    1.3596 C   0  0  2  0  0  0  0  0  0  0  0  0
    9.5957    1.6928    2.4368 C   0  0  0  0  0  0  0  0  0  0  0  0
    9.2433   -0.7189    1.8308 C   0  0  0  0  0  0  0  0  0  0  0  0
   10.2273   -1.0563    2.5476 O   0  0  0  0  0  0  0  0  0  0  0  0
    8.2662   -1.7125    1.4867 N   0  0  0  0  0  0  0  0  0  0  0  0
    7.5044   -1.7057    0.2328 C   0  0  2  0  0  0  0  0  0  0  0  0
    5.9988   -1.6942    0.5116 C   0  0  0  0  0  0  0  0  0  0  0  0
    7.9392   -2.8287   -0.6947 C   0  0  0  0  0  0  0  0  0  0  0  0
    8.5797   -2.5101   -1.7326 O   0  0  0  0  0  0  0  0  0  0  0  0
    7.6138   -4.2207   -0.5058 N   0  0  0  0  0  0  0  0  0  0  0  0
    7.5122   -4.9041    0.7867 C   0  0  2  0  0  0  0  0  0  0  0  0
    8.9253   -5.2114    1.3046 C   0  0  0  0  0  0  0  0  0  0  0  0
    6.6815   -6.1679    0.6533 C   0  0  0  0  0  0  0  0  0  0  0  0
    7.2474   -7.2947    0.6571 O   0  0  0  0  0  0  0  0  0  0  0  0
    5.2462   -6.1237    0.5948 N   0  0  0  0  0  0  0  0  0  0  0  0
    4.4934   -5.0983   -0.1364 C   0  0  1  0  0  0  0  0  0  0  0  0
    3.9953   -5.6022   -1.4741 C   0  0  0  0  0  0  0  0  0  0  0  0
    4.1250   -6.9691   -1.8749 N   0  0  0  0  0  0  0  0  0  0  0  0
    3.4427   -4.7882   -2.2627 O   0  0  0  0  0  0  0  0  0  0  0  0
    3.3460   -4.5530    0.7280 C   0  0  0  0  0  0  0  0  0  0  0  0
    2.0423   -5.8043    1.0184 S   0  0  0  0  0  0  0  0  0  0  0  0
    0.9193   -4.6900    1.9391 C   0  0  0  0  0  0  0  0  0  0  0  0
   -5.5476   -6.9335   -1.1692 H   0  0  0  0  0  0  0  0  0  0  0  0
   -6.5721   -8.3320   -0.6891 H   0  0  0  0  0  0  0  0  0  0  0  0
   -7.3368   -6.7257   -0.9773 H   0  0  0  0  0  0  0  0  0  0  0  0
   -5.9124   -5.3556    2.3192 H   0  0  0  0  0  0  0  0  0  0  0  0
   -6.3633   -4.5360   -0.5526 H   0  0  0  0  0  0  0  0  0  0  0  0
   -3.6684   -4.0596    0.8557 H   0  0  0  0  0  0  0  0  0  0  0  0
   -3.9788   -5.3942   -0.2957 H   0  0  0  0  0  0  0  0  0  0  0  0
   -2.0548   -3.4666   -2.8219 H   0  0  0  0  0  0  0  0  0  0  0  0
   -2.3274   -4.9462   -1.8678 H   0  0  0  0  0  0  0  0  0  0  0  0
   -0.9880   -5.2564    0.0890 H   0  0  0  0  0  0  0  0  0  0  0  0
    1.3414   -2.0075    1.6777 H   0  0  0  0  0  0  0  0  0  0  0  0
   -1.4551   -1.2894   -1.5088 H   0  0  0  0  0  0  0  0  0  0  0  0
    1.4721    0.0556    0.3405 H   0  0  0  0  0  0  0  0  0  0  0  0
    0.3089    0.3494   -0.9979 H   0  0  0  0  0  0  0  0  0  0  0  0
   -0.0871    3.1845    1.6831 H   0  0  0  0  0  0  0  0  0  0  0  0
    1.2332    2.3911    0.7901 H   0  0  0  0  0  0  0  0  0  0  0  0
   -1.0934    2.4643   -0.9942 H   0  0  0  0  0  0  0  0  0  0  0  0
   -0.6410    5.3241   -0.3275 H   0  0  0  0  0  0  0  0  0  0  0  0
   -2.9153    2.3885    0.2372 H   0  0  0  0  0  0  0  0  0  0  0  0
   -5.1422    2.4852    1.3393 H   0  0  0  0  0  0  0  0  0  0  0  0
   -4.8568    4.2285    1.7188 H   0  0  0  0  0  0  0  0  0  0  0  0
   -3.7584    2.9723    2.3874 H   0  0  0  0  0  0  0  0  0  0  0  0
   -4.0578    2.7537   -1.7097 H   0  0  0  0  0  0  0  0  0  0  0  0
   -6.4548    4.3940    0.0804 H   0  0  0  0  0  0  0  0  0  0  0  0
   -5.7358    7.2434   -0.8443 H   0  0  0  0  0  0  0  0  0  0  0  0
   -6.9662    6.8120    0.3958 H   0  0  0  0  0  0  0  0  0  0  0  0
   -5.2341    6.4560    0.7052 H   0  0  0  0  0  0  0  0  0  0  0  0
   -7.1066    5.7934   -2.5507 H   0  0  0  0  0  0  0  0  0  0  0  0
   -8.1263    3.0391   -0.2044 H   0  0  0  0  0  0  0  0  0  0  0  0
   -8.4509    5.0709    1.1751 H   0  0  0  0  0  0  0  0  0  0  0  0
   -9.6919    3.8495    1.6050 H   0  0  0  0  0  0  0  0  0  0  0  0
  -10.1399    5.2501    0.5622 H   0  0  0  0  0  0  0  0  0  0  0  0
  -11.0099    3.3925   -1.1142 H   0  0  0  0  0  0  0  0  0  0  0  0
   -8.2758    0.9163   -0.8811 H   0  0  0  0  0  0  0  0  0  0  0  0
   -9.5436    0.0617    1.8109 H   0  0  0  0  0  0  0  0  0  0  0  0
   -7.8006   -0.0252    1.3427 H   0  0  0  0  0  0  0  0  0  0  0  0
   -8.5793    1.5688    1.5878 H   0  0  0  0  0  0  0  0  0  0  0  0
  -10.3975   -1.0115   -1.1667 H   0  0  0  0  0  0  0  0  0  0  0  0
   -9.6508   -2.5832    1.0800 H   0  0  0  0  0  0  0  0  0  0  0  0
   -8.4998   -4.5214   -0.9736 H   0  0  0  0  0  0  0  0  0  0  0  0
  -10.1642   -4.3078   -0.3798 H   0  0  0  0  0  0  0  0  0  0  0  0
   -8.9429   -5.0681    0.6996 H   0  0  0  0  0  0  0  0  0  0  0  0
   -7.7808   -2.5086    2.3633 H   0  0  0  0  0  0  0  0  0  0  0  0
    2.1911    4.7789   -2.2148 H   0  0  0  0  0  0  0  0  0  0  0  0
    1.5338    4.7278    0.7657 H   0  0  0  0  0  0  0  0  0  0  0  0
    2.4543    7.0152    0.8142 H   0  0  0  0  0  0  0  0  0  0  0  0
    1.0806    6.9133   -0.3410 H   0  0  0  0  0  0  0  0  0  0  0  0
    2.7718    6.9502   -0.9635 H   0  0  0  0  0  0  0  0  0  0  0  0
    3.9926    3.3721   -1.4902 H   0  0  0  0  0  0  0  0  0  0  0  0
    6.3482    4.3326   -0.0163 H   0  0  0  0  0  0  0  0  0  0  0  0
    5.2043    6.1278   -2.2529 H   0  0  0  0  0  0  0  0  0  0  0  0
    6.8892    6.2594   -1.6286 H   0  0  0  0  0  0  0  0  0  0  0  0
    5.5015    6.5716   -0.5303 H   0  0  0  0  0  0  0  0  0  0  0  0
    8.0710    2.3855   -2.7007 H   0  0  0  0  0  0  0  0  0  0  0  0
    7.9946    2.8373    0.1941 H   0  0  0  0  0  0  0  0  0  0  0  0
    9.9996    4.4070    0.2712 H   0  0  0  0  0  0  0  0  0  0  0  0
    9.7725    4.7068   -1.4960 H   0  0  0  0  0  0  0  0  0  0  0  0
    8.5011    5.1806   -0.3092 H   0  0  0  0  0  0  0  0  0  0  0  0
   10.6262    0.2028   -0.1065 H   0  0  0  0  0  0  0  0  0  0  0  0
    8.0376    0.9043    1.1781 H   0  0  0  0  0  0  0  0  0  0  0  0
   10.6817    1.5624    2.6291 H   0  0  0  0  0  0  0  0  0  0  0  0
    9.0354    1.5256    3.3808 H   0  0  0  0  0  0  0  0  0  0  0  0
    9.4220    2.7389    2.1146 H   0  0  0  0  0  0  0  0  0  0  0  0
    8.1602   -2.5103    2.1491 H   0  0  0  0  0  0  0  0  0  0  0  0
    7.7065   -0.7627   -0.3166 H   0  0  0  0  0  0  0  0  0  0  0  0
    5.7005   -2.5137    1.1906 H   0  0  0  0  0  0  0  0  0  0  0  0
    5.4289   -1.7744   -0.4389 H   0  0  0  0  0  0  0  0  0  0  0  0
    5.7230   -0.7379    1.0025 H   0  0  0  0  0  0  0  0  0  0  0  0
    7.7241   -4.8346   -1.3464 H   0  0  0  0  0  0  0  0  0  0  0  0
    7.0007   -4.2689    1.5301 H   0  0  0  0  0  0  0  0  0  0  0  0
    9.4639   -5.8793    0.5995 H   0  0  0  0  0  0  0  0  0  0  0  0
    9.5148   -4.2770    1.4051 H   0  0  0  0  0  0  0  0  0  0  0  0
    8.8716   -5.6982    2.3017 H   0  0  0  0  0  0  0  0  0  0  0  0
    4.7321   -6.9723    0.9213 H   0  0  0  0  0  0  0  0  0  0  0  0
    5.1507   -4.2402   -0.3581 H   0  0  0  0  0  0  0  0  0  0  0  0
    4.5820   -7.6860   -1.2718 H   0  0  0  0  0  0  0  0  0  0  0  0
    3.7477   -7.2813   -2.7979 H   0  0  0  0  0  0  0  0  0  0  0  0
    2.9080   -3.6736    0.2115 H   0  0  0  0  0  0  0  0  0  0  0  0
    3.7538   -4.2165    1.7048 H   0  0  0  0  0  0  0  0  0  0  0  0
    0.1557   -5.3150    2.4537 H   0  0  0  0  0  0  0  0  0  0  0  0
    1.4836   -4.1506    2.7298 H   0  0  0  0  0  0  0  0  0  0  0  0
  1  2  1  0
  2  3  2  0
  2  4  1  0
  4  5  1  0
  5  6  1  0
  6  7  1  0
  7  8  1  0
  8  9  1  0
  9 10  1  0
 10 11  2  0
 11 12  1  0
 12 13  2  0
 13 14  1  0
 13 15  1  0
 15 16  1  0
 16 17  1  0
 17 18  1  0
 18 19  1  0
 19 20  1  0
 20 21  2  0
 20 22  1  0
 22 23  1  0
 22 24  1  0
 24 25  1  0
 25 26  2  0
 25 27  1  0
 27 28  1  0
 27 29  1  0
 29 30  1  0
 30 31  2  0
 30 32  1  0
 32 33  1  0
 32 34  1  0
 34 35  1  0
 35 36  2  0
 35 37  1  0
 37 38  1  0
 37 39  1  0
 39 40  1  0
 40 41  2  0
 40 42  1  0
 42 43  1  0
 42 44  1  0
 44 45  1  0
 45 46  2  0
 18 47  1  0
 47 48  2  0
 47 49  1  0
 49 50  1  0
 50 51  1  0
 50 52  1  0
 52 53  2  0
 52 54  1  0
 54 55  1  0
 55 56  1  0
 55 57  1  0
 57 58  2  0
 57 59  1  0
 59 60  1  0
 60 61  1  0
 60 62  1  0
 62 63  2  0
 62 64  1  0
 64 65  1  0
 65 66  1  0
 65 67  1  0
 67 68  2  0
 67 69  1  0
 69 70  1  0
 70 71  1  0
 70 72  1  0
 72 73  2  0
 72 74  1  0
 74 75  1  0
 75 76  1  0
 75 77  1  0
 77 78  2  0
 77 79  1  0
 79 80  1  0
 80 81  1  0
 81 82  1  0
 81 83  2  0
 80 84  1  0
 84 85  1  0
 85 86  1  0
 45  5  1  0
 14  9  2  0
 86 11  1  0
  1 87  1  0
  1 88  1  0
  1 89  1  0
  4 90  1  0
  5 91  1  6
  6 92  1  0
  6 93  1  0
  8 94  1  0
  8 95  1  0
 10 96  1  0
 12 97  1  0
 14 98  1  0
 15 99  1  0
 15100  1  0
 17101  1  0
 17102  1  0
 18103  1  6
 19104  1  0
 22105  1  6
 23106  1  0
 23107  1  0
 23108  1  0
 24109  1  0
 27110  1  1
 28111  1  0
 28112  1  0
 28113  1  0
 29114  1  0
 32115  1  1
 33116  1  0
 33117  1  0
 33118  1  0
 34119  1  0
 37120  1  6
 38121  1  0
 38122  1  0
 38123  1  0
 39124  1  0
 42125  1  1
 43126  1  0
 43127  1  0
 43128  1  0
 44129  1  0
 49130  1  0
 50131  1  1
 51132  1  0
 51133  1  0
 51134  1  0
 54135  1  0
 55136  1  1
 56137  1  0
 56138  1  0
 56139  1  0
 59140  1  0
 60141  1  1
 61142  1  0
 61143  1  0
 61144  1  0
 64145  1  0
 65146  1  6
 66147  1  0
 66148  1  0
 66149  1  0
 69150  1  0
 70151  1  6
 71152  1  0
 71153  1  0
 71154  1  0
 74155  1  0
 75156  1  1
 76157  1  0
 76158  1  0
 76159  1  0
 79160  1  0
 80161  1  6
 82162  1  0
 82163  1  0
 84164  1  0
 84165  1  0
 86166  1  0
 86167  1  0
M  END
