
     RDKit          3D

157159  0  0  0  0  0  0  0  0999 V2000
    5.6600   -7.0179    0.7878 C   0  0  0  0  0  0  0  0  0  0  0  0
    6.0250   -6.2779   -0.4576 C   0  0  0  0  0  0  0  0  0  0  0  0
    6.5597   -6.9065   -1.4120 O   0  0  0  0  0  0  0  0  0  0  0  0
    5.7729   -4.8681   -0.5625 N   0  0  0  0  0  0  0  0  0  0  0  0
    6.2040   -4.0757   -1.7217 C   0  0  1  0  0  0  0  0  0  0  0  0
    5.2498   -4.3130   -2.9248 C   0  0  0  0  0  0  0  0  0  0  0  0
    3.7498   -3.2504   -2.9729 S   0  0  0  0  0  0  0  0  0  0  0  0
    2.8829   -3.9810   -1.5494 C   0  0  0  0  0  0  0  0  0  0  0  0
    1.5184   -3.3759   -1.3967 C   0  0  0  0  0  0  0  0  0  0  0  0
    1.3952   -2.0313   -1.0095 C   0  0  0  0  0  0  0  0  0  0  0  0
    0.1420   -1.4819   -0.7102 C   0  0  0  0  0  0  0  0  0  0  0  0
   -1.0014   -2.2962   -0.7999 C   0  0  0  0  0  0  0  0  0  0  0  0
   -0.8994   -3.6297   -1.2239 C   0  0  0  0  0  0  0  0  0  0  0  0
    0.3661   -4.1669   -1.5104 C   0  0  0  0  0  0  0  0  0  0  0  0
   -2.1185   -4.4992   -1.2402 C   0  0  0  0  0  0  0  0  0  0  0  0
   -2.5626   -4.9336    0.4769 S   0  0  0  0  0  0  0  0  0  0  0  0
   -4.0603   -5.9161    0.0627 C   0  0  0  0  0  0  0  0  0  0  0  0
   -5.3536   -5.3202    0.6494 C   0  0  1  0  0  0  0  0  0  0  0  0
   -5.3072   -5.2232    2.1536 C   0  0  0  0  0  0  0  0  0  0  0  0
   -6.0334   -6.1495    2.9618 N   0  0  0  0  0  0  0  0  0  0  0  0
   -4.6295   -4.3160    2.7089 O   0  0  0  0  0  0  0  0  0  0  0  0
   -5.6290   -4.0047    0.0689 N   0  0  0  0  0  0  0  0  0  0  0  0
   -6.5841   -3.8300   -0.9863 C   0  0  0  0  0  0  0  0  0  0  0  0
   -6.1683   -3.6728   -2.1656 O   0  0  0  0  0  0  0  0  0  0  0  0
   -8.0627   -3.7088   -0.7116 C   0  0  1  0  0  0  0  0  0  0  0  0
   -8.6166   -4.8726    0.1136 C   0  0  0  0  0  0  0  0  0  0  0  0
   -8.3450   -2.4436   -0.0307 N   0  0  0  0  0  0  0  0  0  0  0  0
   -9.1291   -1.4174   -0.6541 C   0  0  0  0  0  0  0  0  0  0  0  0
   -9.0246   -1.2134   -1.8936 O   0  0  0  0  0  0  0  0  0  0  0  0
  -10.1371   -0.6291    0.1414 C   0  0  1  0  0  0  0  0  0  0  0  0
  -11.3521   -1.5146    0.4328 C   0  0  0  0  0  0  0  0  0  0  0  0
   -9.5467   -0.1466    1.3957 N   0  0  0  0  0  0  0  0  0  0  0  0
   -8.7784    1.0610    1.5253 C   0  0  0  0  0  0  0  0  0  0  0  0
   -8.5366    1.4977    2.6826 O   0  0  0  0  0  0  0  0  0  0  0  0
   -8.2785    1.8444    0.3274 C   0  0  1  0  0  0  0  0  0  0  0  0
   -8.9893    3.1969    0.2315 C   0  0  0  0  0  0  0  0  0  0  0  0
   -6.8214    2.0135    0.3762 N   0  0  0  0  0  0  0  0  0  0  0  0
   -6.1280    2.6851    1.4348 C   0  0  0  0  0  0  0  0  0  0  0  0
   -5.7273    2.0210    2.4286 O   0  0  0  0  0  0  0  0  0  0  0  0
   -5.7835    4.1512    1.2962 C   0  0  1  0  0  0  0  0  0  0  0  0
   -5.1232    4.7291    2.5590 C   0  0  0  0  0  0  0  0  0  0  0  0
   -4.9275    4.3704    0.1244 N   0  0  0  0  0  0  0  0  0  0  0  0
   -3.6013    3.8237    0.0066 C   0  0  0  0  0  0  0  0  0  0  0  0
   -3.2903    2.8121    0.6974 O   0  0  0  0  0  0  0  0  0  0  0  0
   -2.5639    4.3922   -0.9346 C   0  0  1  0  0  0  0  0  0  0  0  0
   -2.9776    5.7124   -1.5895 C   0  0  0  0  0  0  0  0  0  0  0  0
   -1.3196    4.5980   -0.1904 N   0  0  0  0  0  0  0  0  0  0  0  0
   -0.2752    3.6151   -0.1274 C   0  0  0  0  0  0  0  0  0  0  0  0
    0.1397    3.2442    1.0052 O   0  0  0  0  0  0  0  0  0  0  0  0
    0.4074    3.0741   -1.3635 C   0  0  1  0  0  0  0  0  0  0  0  0
   -0.3246    1.8812   -2.0365 C   0  0  0  0  0  0  0  0  0  0  0  0
   -1.3248    0.8507   -0.8959 S   0  0  0  0  0  0  0  0  0  0  0  0
    0.0505   -0.0868   -0.1427 C   0  0  0  0  0  0  0  0  0  0  0  0
    0.6039    4.1591   -2.3343 N   0  0  0  0  0  0  0  0  0  0  0  0
    1.6183    5.1734   -2.2184 C   0  0  0  0  0  0  0  0  0  0  0  0
    1.4039    6.2958   -2.7512 O   0  0  0  0  0  0  0  0  0  0  0  0
    2.9142    4.9453   -1.4680 C   0  0  1  0  0  0  0  0  0  0  0  0
    4.0582    5.7331   -2.1188 C   0  0  0  0  0  0  0  0  0  0  0  0
    2.7564    5.3295   -0.0579 N   0  0  0  0  0  0  0  0  0  0  0  0
    3.6028    4.8029    0.9696 C   0  0  0  0  0  0  0  0  0  0  0  0
    3.1699    3.8808    1.7126 O   0  0  0  0  0  0  0  0  0  0  0  0
    4.9784    5.3816    1.2014 C   0  0  1  0  0  0  0  0  0  0  0  0
    5.2375    5.6795    2.6801 C   0  0  0  0  0  0  0  0  0  0  0  0
    6.0221    4.5158    0.6410 N   0  0  0  0  0  0  0  0  0  0  0  0
    6.2270    3.1392    1.0005 C   0  0  0  0  0  0  0  0  0  0  0  0
    5.7413    2.6782    2.0693 O   0  0  0  0  0  0  0  0  0  0  0  0
    7.0417    2.2292    0.1189 C   0  0  1  0  0  0  0  0  0  0  0  0
    6.4753    2.2052   -1.3034 C   0  0  0  0  0  0  0  0  0  0  0  0
    8.4415    2.6663    0.0920 N   0  0  0  0  0  0  0  0  0  0  0  0
    9.5736    1.7749    0.0839 C   0  0  0  0  0  0  0  0  0  0  0  0
   10.5751    2.0809   -0.6204 O   0  0  0  0  0  0  0  0  0  0  0  0
    9.6431    0.5076    0.9067 C   0  0  1  0  0  0  0  0  0  0  0  0
    9.2104    0.7552    2.3607 C   0  0  0  0  0  0  0  0  0  0  0  0
    8.8529   -0.5627    0.2860 N   0  0  0  0  0  0  0  0  0  0  0  0
    8.8309   -1.8892    0.8342 C   0  0  0  0  0  0  0  0  0  0  0  0
    9.8771   -2.3658    1.3523 O   0  0  0  0  0  0  0  0  0  0  0  0
    7.5653   -2.7125    0.8572 C   0  0  1  0  0  0  0  0  0  0  0  0
    7.0187   -2.7784    2.2858 C   0  0  0  0  0  0  0  0  0  0  0  0
    6.5462   -2.1492   -0.0336 N   0  0  0  0  0  0  0  0  0  0  0  0
    6.3668   -2.6056   -1.3814 C   0  0  0  0  0  0  0  0  0  0  0  0
    6.3820   -1.7529   -2.3133 O   0  0  0  0  0  0  0  0  0  0  0  0
    6.5699   -7.4880    1.2214 H   0  0  0  0  0  0  0  0  0  0  0  0
    5.2180   -6.3401    1.5462 H   0  0  0  0  0  0  0  0  0  0  0  0
    4.9192   -7.8148    0.5534 H   0  0  0  0  0  0  0  0  0  0  0  0
    5.3474   -4.3903    0.2640 H   0  0  0  0  0  0  0  0  0  0  0  0
    7.2155   -4.4289   -2.0224 H   0  0  0  0  0  0  0  0  0  0  0  0
    4.9449   -5.3803   -2.9770 H   0  0  0  0  0  0  0  0  0  0  0  0
    5.8154   -4.1047   -3.8574 H   0  0  0  0  0  0  0  0  0  0  0  0
    2.8242   -5.0843   -1.6815 H   0  0  0  0  0  0  0  0  0  0  0  0
    3.4387   -3.7574   -0.6241 H   0  0  0  0  0  0  0  0  0  0  0  0
    2.2885   -1.4324   -0.8831 H   0  0  0  0  0  0  0  0  0  0  0  0
   -1.9664   -1.9052   -0.5052 H   0  0  0  0  0  0  0  0  0  0  0  0
    0.4543   -5.2112   -1.7893 H   0  0  0  0  0  0  0  0  0  0  0  0
   -2.9605   -3.9606   -1.7216 H   0  0  0  0  0  0  0  0  0  0  0  0
   -1.9291   -5.4273   -1.8182 H   0  0  0  0  0  0  0  0  0  0  0  0
   -4.1803   -6.0313   -1.0375 H   0  0  0  0  0  0  0  0  0  0  0  0
   -3.9131   -6.9382    0.4737 H   0  0  0  0  0  0  0  0  0  0  0  0
   -6.1577   -6.0278    0.3669 H   0  0  0  0  0  0  0  0  0  0  0  0
   -6.6383   -6.8800    2.5311 H   0  0  0  0  0  0  0  0  0  0  0  0
   -5.9939   -6.0732    4.0051 H   0  0  0  0  0  0  0  0  0  0  0  0
   -4.9533   -3.2277    0.2389 H   0  0  0  0  0  0  0  0  0  0  0  0
   -8.5998   -3.7347   -1.6894 H   0  0  0  0  0  0  0  0  0  0  0  0
   -8.1466   -4.9055    1.1196 H   0  0  0  0  0  0  0  0  0  0  0  0
   -8.4428   -5.8341   -0.4144 H   0  0  0  0  0  0  0  0  0  0  0  0
   -9.7121   -4.7441    0.2496 H   0  0  0  0  0  0  0  0  0  0  0  0
   -8.1143   -2.3610    0.9864 H   0  0  0  0  0  0  0  0  0  0  0  0
  -10.5026    0.2377   -0.4555 H   0  0  0  0  0  0  0  0  0  0  0  0
  -11.0560   -2.4030    1.0305 H   0  0  0  0  0  0  0  0  0  0  0  0
  -12.1113   -0.9372    1.0009 H   0  0  0  0  0  0  0  0  0  0  0  0
  -11.8140   -1.8586   -0.5182 H   0  0  0  0  0  0  0  0  0  0  0  0
   -9.7736   -0.6558    2.2791 H   0  0  0  0  0  0  0  0  0  0  0  0
   -8.5054    1.2961   -0.6056 H   0  0  0  0  0  0  0  0  0  0  0  0
   -8.5607    3.7920   -0.6053 H   0  0  0  0  0  0  0  0  0  0  0  0
   -8.8859    3.7722    1.1748 H   0  0  0  0  0  0  0  0  0  0  0  0
  -10.0692    3.0439    0.0324 H   0  0  0  0  0  0  0  0  0  0  0  0
   -6.2404    1.4986   -0.3238 H   0  0  0  0  0  0  0  0  0  0  0  0
   -6.7330    4.7076    1.1485 H   0  0  0  0  0  0  0  0  0  0  0  0
   -4.1666    4.2135    2.7831 H   0  0  0  0  0  0  0  0  0  0  0  0
   -4.9110    5.8103    2.4077 H   0  0  0  0  0  0  0  0  0  0  0  0
   -5.8029    4.6182    3.4280 H   0  0  0  0  0  0  0  0  0  0  0  0
   -5.3174    4.9637   -0.6421 H   0  0  0  0  0  0  0  0  0  0  0  0
   -2.4142    3.6556   -1.7455 H   0  0  0  0  0  0  0  0  0  0  0  0
   -3.8244    5.5487   -2.2904 H   0  0  0  0  0  0  0  0  0  0  0  0
   -3.2692    6.4588   -0.8203 H   0  0  0  0  0  0  0  0  0  0  0  0
   -2.1279    6.1250   -2.1770 H   0  0  0  0  0  0  0  0  0  0  0  0
   -1.3467    5.3036    0.5833 H   0  0  0  0  0  0  0  0  0  0  0  0
    1.3966    2.6828   -1.0499 H   0  0  0  0  0  0  0  0  0  0  0  0
    0.4170    1.2372   -2.5567 H   0  0  0  0  0  0  0  0  0  0  0  0
   -1.0146    2.2428   -2.8255 H   0  0  0  0  0  0  0  0  0  0  0  0
    1.0135    0.4569   -0.2574 H   0  0  0  0  0  0  0  0  0  0  0  0
   -0.1434   -0.1636    0.9473 H   0  0  0  0  0  0  0  0  0  0  0  0
   -0.1872    4.3715   -2.9843 H   0  0  0  0  0  0  0  0  0  0  0  0
    3.1859    3.8691   -1.5291 H   0  0  0  0  0  0  0  0  0  0  0  0
    3.9303    6.8233   -1.9469 H   0  0  0  0  0  0  0  0  0  0  0  0
    4.0852    5.5382   -3.2136 H   0  0  0  0  0  0  0  0  0  0  0  0
    5.0310    5.4155   -1.7037 H   0  0  0  0  0  0  0  0  0  0  0  0
    1.8525    5.7529    0.2517 H   0  0  0  0  0  0  0  0  0  0  0  0
    5.0275    6.3614    0.6783 H   0  0  0  0  0  0  0  0  0  0  0  0
    4.4871    6.4113    3.0520 H   0  0  0  0  0  0  0  0  0  0  0  0
    6.2493    6.1293    2.8016 H   0  0  0  0  0  0  0  0  0  0  0  0
    5.1779    4.7671    3.3080 H   0  0  0  0  0  0  0  0  0  0  0  0
    6.6212    4.9215   -0.1101 H   0  0  0  0  0  0  0  0  0  0  0  0
    6.9546    1.2023    0.5200 H   0  0  0  0  0  0  0  0  0  0  0  0
    5.3989    1.9201   -1.2888 H   0  0  0  0  0  0  0  0  0  0  0  0
    6.5802    3.1971   -1.7919 H   0  0  0  0  0  0  0  0  0  0  0  0
    7.0249    1.4561   -1.9132 H   0  0  0  0  0  0  0  0  0  0  0  0
    8.6308    3.6505   -0.2133 H   0  0  0  0  0  0  0  0  0  0  0  0
   10.7048    0.1800    0.9339 H   0  0  0  0  0  0  0  0  0  0  0  0
    8.1278    0.9817    2.4363 H   0  0  0  0  0  0  0  0  0  0  0  0
    9.4104   -0.1456    2.9793 H   0  0  0  0  0  0  0  0  0  0  0  0
    9.7880    1.5982    2.7937 H   0  0  0  0  0  0  0  0  0  0  0  0
    8.2156   -0.3347   -0.5053 H   0  0  0  0  0  0  0  0  0  0  0  0
    7.8313   -3.7403    0.5346 H   0  0  0  0  0  0  0  0  0  0  0  0
    6.0927   -3.3899    2.3128 H   0  0  0  0  0  0  0  0  0  0  0  0
    6.7852   -1.7576    2.6620 H   0  0  0  0  0  0  0  0  0  0  0  0
    7.7639   -3.2482    2.9587 H   0  0  0  0  0  0  0  0  0  0  0  0
    6.1394   -1.2156    0.2137 H   0  0  0  0  0  0  0  0  0  0  0  0
  1  2  1  0
  2  3  2  0
  2  4  1  0
  4  5  1  0
  5  6  1  0
  6  7  1  0
  7  8  1  0
  8  9  1  0
  9 10  2  0
 10 11  1  0
 11 12  2  0
 12 13  1  0
 13 14  2  0
 13 15  1  0
 15 16  1  0
 16 17  1  0
 17 18  1  0
 18 19  1  0
 19 20  1  0
 19 21  2  0
 18 22  1  0
 22 23  1  0
 23 24  2  0
 23 25  1  0
 25 26  1  0
 25 27  1  0
 27 28  1  0
 28 29  2  0
 28 30  1  0
 30 31  1  0
 30 32  1  0
 32 33  1  0
 33 34  2  0
 33 35  1  0
 35 36  1  0
 35 37  1  0
 37 38  1  0
 38 39  2  0
 38 40  1  0
 40 41  1  0
 40 42  1  0
 42 43  1  0
 43 44  2  0
 43 45  1  0
 45 46  1  0
 45 47  1  0
 47 48  1  0
 48 49  2  0
 48 50  1  0
 50 51  1  0
 51 52  1  0
 52 53  1  0
 50 54  1  0
 54 55  1  0
 55 56  2  0
 55 57  1  0
 57 58  1  0
 57 59  1  0
 59 60  1  0
 60 61  2  0
 60 62  1  0
 62 63  1  0
 62 64  1  0
 64 65  1  0
 65 66  2  0
 65 67  1  0
 67 68  1  0
 67 69  1  0
 69 70  1  0
 70 71  2  0
 70 72  1  0
 72 73  1  0
 72 74  1  0
 74 75  1  0
 75 76  2  0
 75 77  1  0
 77 78  1  0
 77 79  1  0
 79 80  1  0
 80 81  2  0
 80  5  1  0
 14  9  1  0
 53 11  1  0
  1 82  1  0
  1 83  1  0
  1 84  1  0
  4 85  1  0
  5 86  1  6
  6 87  1  0
  6 88  1  0
  8 89  1  0
  8 90  1  0
 10 91  1  0
 12 92  1  0
 14 93  1  0
 15 94  1  0
 15 95  1  0
 17 96  1  0
 17 97  1  0
 18 98  1  1
 20 99  1  0
 20100  1  0
 22101  1  0
 25102  1  6
 26103  1  0
 26104  1  0
 26105  1  0
 27106  1  0
 30107  1  6
 31108  1  0
 31109  1  0
 31110  1  0
 32111  1  0
 35112  1  6
 36113  1  0
 36114  1  0
 36115  1  0
 37116  1  0
 40117  1  6
 41118  1  0
 41119  1  0
 41120  1  0
 42121  1  0
 45122  1  6
 46123  1  0
 46124  1  0
 46125  1  0
 47126  1  0
 50127  1  1
 51128  1  0
 51129  1  0
 53130  1  0
 53131  1  0
 54132  1  0
 57133  1  1
 58134  1  0
 58135  1  0
 58136  1  0
 59137  1  0
 62138  1  6
 63139  1  0
 63140  1  0
 63141  1  0
 64142  1  0
 67143  1  1
 68144  1  0
 68145  1  0
 68146  1  0
 69147  1  0
 72148  1  1
 73149  1  0
 73150  1  0
 73151  1  0
 74152  1  0
 77153  1  6
 78154  1  0
 78155  1  0
 78156  1  0
 79157  1  0
M  END
