
     RDKit          3D

157159  0  0  0  0  0  0  0  0999 V2000
    6.8675   -8.1597    0.3139 C   0  0  0  0  0  0  0  0  0  0  0  0
    6.8360   -7.4545   -1.0077 C   0  0  0  0  0  0  0  0  0  0  0  0
    7.2793   -8.0479   -2.0249 O   0  0  0  0  0  0  0  0  0  0  0  0
    6.3052   -6.1314   -1.1455 N   0  0  0  0  0  0  0  0  0  0  0  0
    5.7773   -5.3321   -0.0362 C   0  0  2  0  0  0  0  0  0  0  0  0
    4.2459   -5.5030    0.0360 C   0  0  0  0  0  0  0  0  0  0  0  0
    3.5715   -4.8658    1.6176 S   0  0  0  0  0  0  0  0  0  0  0  0
    3.0764   -3.2012    1.0265 C   0  0  0  0  0  0  0  0  0  0  0  0
    1.6223   -3.0866    0.6311 C   0  0  0  0  0  0  0  0  0  0  0  0
    1.0107   -1.8265    0.7075 C   0  0  0  0  0  0  0  0  0  0  0  0
   -0.2789   -1.6256    0.1944 C   0  0  0  0  0  0  0  0  0  0  0  0
   -0.9570   -2.6943   -0.4171 C   0  0  0  0  0  0  0  0  0  0  0  0
   -0.3762   -3.9769   -0.4761 C   0  0  0  0  0  0  0  0  0  0  0  0
    0.9194   -4.1555    0.0410 C   0  0  0  0  0  0  0  0  0  0  0  0
   -1.0317   -5.1542   -1.1692 C   0  0  0  0  0  0  0  0  0  0  0  0
   -2.7580   -4.8989   -1.7199 S   0  0  0  0  0  0  0  0  0  0  0  0
   -3.5274   -5.1155   -0.0758 C   0  0  0  0  0  0  0  0  0  0  0  0
   -5.0581   -4.9902   -0.1637 C   0  0  1  0  0  0  0  0  0  0  0  0
   -5.6327   -6.1570   -0.9200 C   0  0  0  0  0  0  0  0  0  0  0  0
   -6.1583   -5.9906   -2.2386 N   0  0  0  0  0  0  0  0  0  0  0  0
   -5.6454   -7.3016   -0.3838 O   0  0  0  0  0  0  0  0  0  0  0  0
   -5.6412   -4.9612    1.1850 N   0  0  0  0  0  0  0  0  0  0  0  0
   -7.0091   -4.5989    1.4663 C   0  0  0  0  0  0  0  0  0  0  0  0
   -7.4621   -4.8262    2.6227 O   0  0  0  0  0  0  0  0  0  0  0  0
   -7.8783   -3.8713    0.4684 C   0  0  1  0  0  0  0  0  0  0  0  0
   -9.3254   -4.3904    0.5093 C   0  0  0  0  0  0  0  0  0  0  0  0
   -7.8687   -2.4373    0.7634 N   0  0  0  0  0  0  0  0  0  0  0  0
   -8.2361   -1.4709   -0.2338 C   0  0  0  0  0  0  0  0  0  0  0  0
   -7.9475   -1.6776   -1.4416 O   0  0  0  0  0  0  0  0  0  0  0  0
   -8.9844   -0.2121    0.1430 C   0  0  1  0  0  0  0  0  0  0  0  0
  -10.2567   -0.5432    0.9267 C   0  0  0  0  0  0  0  0  0  0  0  0
   -8.1321    0.6791    0.9361 N   0  0  0  0  0  0  0  0  0  0  0  0
   -8.3839    2.0920    1.0020 C   0  0  0  0  0  0  0  0  0  0  0  0
   -8.4135    2.6516    2.1302 O   0  0  0  0  0  0  0  0  0  0  0  0
   -8.5758    2.9203   -0.2470 C   0  0  1  0  0  0  0  0  0  0  0  0
  -10.0676    3.1746   -0.4895 C   0  0  0  0  0  0  0  0  0  0  0  0
   -7.8527    4.1941   -0.1547 N   0  0  0  0  0  0  0  0  0  0  0  0
   -6.4542    4.2478    0.1483 C   0  0  0  0  0  0  0  0  0  0  0  0
   -6.0909    4.2689    1.3558 O   0  0  0  0  0  0  0  0  0  0  0  0
   -5.4209    4.4468   -0.9298 C   0  0  1  0  0  0  0  0  0  0  0  0
   -5.9456    4.1146   -2.3313 C   0  0  0  0  0  0  0  0  0  0  0  0
   -4.9539    5.8362   -0.8988 N   0  0  0  0  0  0  0  0  0  0  0  0
   -3.6677    6.2989   -0.4350 C   0  0  0  0  0  0  0  0  0  0  0  0
   -3.4310    7.5398   -0.4761 O   0  0  0  0  0  0  0  0  0  0  0  0
   -2.5688    5.3826    0.0734 C   0  0  1  0  0  0  0  0  0  0  0  0
   -2.9680    4.6689    1.3687 C   0  0  0  0  0  0  0  0  0  0  0  0
   -2.1405    4.4495   -0.9773 N   0  0  0  0  0  0  0  0  0  0  0  0
   -0.8432    3.8317   -1.0110 C   0  0  0  0  0  0  0  0  0  0  0  0
   -0.2321    3.7727   -2.1176 O   0  0  0  0  0  0  0  0  0  0  0  0
   -0.2459    3.1538    0.2061 C   0  0  1  0  0  0  0  0  0  0  0  0
    0.7141    2.0055   -0.1653 C   0  0  0  0  0  0  0  0  0  0  0  0
   -0.1336    0.7274   -1.1742 S   0  0  0  0  0  0  0  0  0  0  0  0
   -0.8701   -0.2430    0.1892 C   0  0  0  0  0  0  0  0  0  0  0  0
    0.4182    4.0853    1.1396 N   0  0  0  0  0  0  0  0  0  0  0  0
    0.9007    5.4100    0.8612 C   0  0  0  0  0  0  0  0  0  0  0  0
    0.7704    6.2982    1.7530 O   0  0  0  0  0  0  0  0  0  0  0  0
    1.6382    5.7631   -0.4021 C   0  0  1  0  0  0  0  0  0  0  0  0
    0.8766    6.8282   -1.1953 C   0  0  0  0  0  0  0  0  0  0  0  0
    2.9672    6.2828   -0.0596 N   0  0  0  0  0  0  0  0  0  0  0  0
    4.2025    5.6815   -0.4781 C   0  0  0  0  0  0  0  0  0  0  0  0
    5.1879    6.4318   -0.7214 O   0  0  0  0  0  0  0  0  0  0  0  0
    4.3613    4.1804   -0.5890 C   0  0  1  0  0  0  0  0  0  0  0  0
    4.2056    3.6887   -2.0367 C   0  0  0  0  0  0  0  0  0  0  0  0
    5.6364    3.7478   -0.0043 N   0  0  0  0  0  0  0  0  0  0  0  0
    6.9186    3.8892   -0.6352 C   0  0  0  0  0  0  0  0  0  0  0  0
    7.0284    4.4891   -1.7371 O   0  0  0  0  0  0  0  0  0  0  0  0
    8.1759    3.3952    0.0335 C   0  0  1  0  0  0  0  0  0  0  0  0
    8.7266    4.4750    0.9695 C   0  0  0  0  0  0  0  0  0  0  0  0
    7.9449    2.1493    0.7699 N   0  0  0  0  0  0  0  0  0  0  0  0
    7.5699    0.9433    0.0898 C   0  0  0  0  0  0  0  0  0  0  0  0
    6.3672    0.7836   -0.2675 O   0  0  0  0  0  0  0  0  0  0  0  0
    8.5529   -0.1765   -0.0999 C   0  0  1  0  0  0  0  0  0  0  0  0
    9.7536    0.2929   -0.9157 C   0  0  0  0  0  0  0  0  0  0  0  0
    9.0022   -0.6747    1.2098 N   0  0  0  0  0  0  0  0  0  0  0  0
    8.7796   -2.0015    1.7238 C   0  0  0  0  0  0  0  0  0  0  0  0
    8.9265   -2.1995    2.9618 O   0  0  0  0  0  0  0  0  0  0  0  0
    8.3180   -3.1450    0.8400 C   0  0  1  0  0  0  0  0  0  0  0  0
    8.8580   -4.4889    1.3457 C   0  0  0  0  0  0  0  0  0  0  0  0
    6.8539   -3.1718    0.7818 N   0  0  0  0  0  0  0  0  0  0  0  0
    6.1592   -3.8891   -0.2387 C   0  0  0  0  0  0  0  0  0  0  0  0
    5.8310   -3.2892   -1.3018 O   0  0  0  0  0  0  0  0  0  0  0  0
    7.1848   -9.2200    0.1915 H   0  0  0  0  0  0  0  0  0  0  0  0
    7.6053   -7.6481    0.9783 H   0  0  0  0  0  0  0  0  0  0  0  0
    5.8650   -8.1433    0.7840 H   0  0  0  0  0  0  0  0  0  0  0  0
    6.1903   -5.7664   -2.1177 H   0  0  0  0  0  0  0  0  0  0  0  0
    6.2104   -5.6732    0.9273 H   0  0  0  0  0  0  0  0  0  0  0  0
    3.7533   -5.0282   -0.8407 H   0  0  0  0  0  0  0  0  0  0  0  0
    4.0078   -6.5841   -0.0016 H   0  0  0  0  0  0  0  0  0  0  0  0
    3.6964   -2.8753    0.1699 H   0  0  0  0  0  0  0  0  0  0  0  0
    3.2933   -2.4939    1.8611 H   0  0  0  0  0  0  0  0  0  0  0  0
    1.5595   -0.9884    1.1226 H   0  0  0  0  0  0  0  0  0  0  0  0
   -1.9151   -2.4999   -0.8723 H   0  0  0  0  0  0  0  0  0  0  0  0
    1.3887   -5.1211   -0.0756 H   0  0  0  0  0  0  0  0  0  0  0  0
   -0.9846   -6.0451   -0.5104 H   0  0  0  0  0  0  0  0  0  0  0  0
   -0.4384   -5.3954   -2.0713 H   0  0  0  0  0  0  0  0  0  0  0  0
   -3.2513   -6.1106    0.3480 H   0  0  0  0  0  0  0  0  0  0  0  0
   -3.1356   -4.3328    0.6077 H   0  0  0  0  0  0  0  0  0  0  0  0
   -5.2796   -4.0302   -0.6835 H   0  0  0  0  0  0  0  0  0  0  0  0
   -6.1901   -5.0489   -2.6933 H   0  0  0  0  0  0  0  0  0  0  0  0
   -6.5298   -6.8199   -2.7598 H   0  0  0  0  0  0  0  0  0  0  0  0
   -5.0947   -5.3938    1.9653 H   0  0  0  0  0  0  0  0  0  0  0  0
   -7.5088   -4.0526   -0.5599 H   0  0  0  0  0  0  0  0  0  0  0  0
   -9.3498   -5.4780    0.2820 H   0  0  0  0  0  0  0  0  0  0  0  0
   -9.9397   -3.8569   -0.2412 H   0  0  0  0  0  0  0  0  0  0  0  0
   -9.7739   -4.2169    1.5122 H   0  0  0  0  0  0  0  0  0  0  0  0
   -7.8840   -2.1427    1.7712 H   0  0  0  0  0  0  0  0  0  0  0  0
   -9.2867    0.2919   -0.8028 H   0  0  0  0  0  0  0  0  0  0  0  0
  -10.9004   -1.2381    0.3388 H   0  0  0  0  0  0  0  0  0  0  0  0
  -10.8352    0.3868    1.1110 H   0  0  0  0  0  0  0  0  0  0  0  0
  -10.0124   -1.0048    1.9040 H   0  0  0  0  0  0  0  0  0  0  0  0
   -7.5836    0.2556    1.7221 H   0  0  0  0  0  0  0  0  0  0  0  0
   -8.1740    2.3621   -1.1193 H   0  0  0  0  0  0  0  0  0  0  0  0
  -10.5085    3.7308    0.3713 H   0  0  0  0  0  0  0  0  0  0  0  0
  -10.2052    3.7726   -1.4159 H   0  0  0  0  0  0  0  0  0  0  0  0
  -10.6156    2.2160   -0.6120 H   0  0  0  0  0  0  0  0  0  0  0  0
   -8.3856    5.0963   -0.1314 H   0  0  0  0  0  0  0  0  0  0  0  0
   -4.5971    3.7450   -0.7300 H   0  0  0  0  0  0  0  0  0  0  0  0
   -5.1433    4.2894   -3.0800 H   0  0  0  0  0  0  0  0  0  0  0  0
   -6.2412    3.0463   -2.3918 H   0  0  0  0  0  0  0  0  0  0  0  0
   -6.8172    4.7507   -2.5953 H   0  0  0  0  0  0  0  0  0  0  0  0
   -5.6380    6.5740   -1.1969 H   0  0  0  0  0  0  0  0  0  0  0  0
   -1.7033    6.0401    0.3264 H   0  0  0  0  0  0  0  0  0  0  0  0
   -2.0821    4.5006    2.0137 H   0  0  0  0  0  0  0  0  0  0  0  0
   -3.6739    5.2958    1.9586 H   0  0  0  0  0  0  0  0  0  0  0  0
   -3.4309    3.6785    1.1736 H   0  0  0  0  0  0  0  0  0  0  0  0
   -2.6640    4.4462   -1.8852 H   0  0  0  0  0  0  0  0  0  0  0  0
   -1.0913    2.6818    0.7521 H   0  0  0  0  0  0  0  0  0  0  0  0
    1.1305    1.5470    0.7622 H   0  0  0  0  0  0  0  0  0  0  0  0
    1.5648    2.4050   -0.7459 H   0  0  0  0  0  0  0  0  0  0  0  0
   -0.7202    0.2312    1.1885 H   0  0  0  0  0  0  0  0  0  0  0  0
   -1.9664   -0.2927    0.0243 H   0  0  0  0  0  0  0  0  0  0  0  0
    0.3856    3.8066    2.1506 H   0  0  0  0  0  0  0  0  0  0  0  0
    1.7407    4.8653   -1.0329 H   0  0  0  0  0  0  0  0  0  0  0  0
    1.4451    7.0865   -2.1141 H   0  0  0  0  0  0  0  0  0  0  0  0
    0.7287    7.7466   -0.5885 H   0  0  0  0  0  0  0  0  0  0  0  0
   -0.1202    6.4558   -1.5007 H   0  0  0  0  0  0  0  0  0  0  0  0
    3.0188    7.2183    0.4117 H   0  0  0  0  0  0  0  0  0  0  0  0
    3.5526    3.7054    0.0133 H   0  0  0  0  0  0  0  0  0  0  0  0
    4.6037    2.6576   -2.1351 H   0  0  0  0  0  0  0  0  0  0  0  0
    3.1374    3.6702   -2.3351 H   0  0  0  0  0  0  0  0  0  0  0  0
    4.7438    4.3530   -2.7517 H   0  0  0  0  0  0  0  0  0  0  0  0
    5.6200    3.4396    0.9990 H   0  0  0  0  0  0  0  0  0  0  0  0
    8.9420    3.2002   -0.7519 H   0  0  0  0  0  0  0  0  0  0  0  0
    7.9960    4.6864    1.7834 H   0  0  0  0  0  0  0  0  0  0  0  0
    8.9143    5.4120    0.4072 H   0  0  0  0  0  0  0  0  0  0  0  0
    9.6796    4.1356    1.4219 H   0  0  0  0  0  0  0  0  0  0  0  0
    8.2452    2.0778    1.7748 H   0  0  0  0  0  0  0  0  0  0  0  0
    8.0422   -0.9746   -0.6778 H   0  0  0  0  0  0  0  0  0  0  0  0
    9.4192    0.7110   -1.8913 H   0  0  0  0  0  0  0  0  0  0  0  0
   10.4261   -0.5667   -1.1161 H   0  0  0  0  0  0  0  0  0  0  0  0
   10.3294    1.0731   -0.3624 H   0  0  0  0  0  0  0  0  0  0  0  0
    9.4906    0.0014    1.8415 H   0  0  0  0  0  0  0  0  0  0  0  0
    8.7369   -3.0062   -0.1809 H   0  0  0  0  0  0  0  0  0  0  0  0
    8.6568   -5.2809    0.5916 H   0  0  0  0  0  0  0  0  0  0  0  0
    9.9561   -4.4332    1.5038 H   0  0  0  0  0  0  0  0  0  0  0  0
    8.3701   -4.7733    2.3027 H   0  0  0  0  0  0  0  0  0  0  0  0
    6.3087   -2.4448    1.3007 H   0  0  0  0  0  0  0  0  0  0  0  0
  1  2  1  0
  2  3  2  0
  2  4  1  0
  4  5  1  0
  5  6  1  0
  6  7  1  0
  7  8  1  0
  8  9  1  0
  9 10  2  0
 10 11  1  0
 11 12  2  0
 12 13  1  0
 13 14  2  0
 13 15  1  0
 15 16  1  0
 16 17  1  0
 17 18  1  0
 18 19  1  0
 19 20  1  0
 19 21  2  0
 18 22  1  0
 22 23  1  0
 23 24  2  0
 23 25  1  0
 25 26  1  0
 25 27  1  0
 27 28  1  0
 28 29  2  0
 28 30  1  0
 30 31  1  0
 30 32  1  0
 32 33  1  0
 33 34  2  0
 33 35  1  0
 35 36  1  0
 35 37  1  0
 37 38  1  0
 38 39  2  0
 38 40  1  0
 40 41  1  0
 40 42  1  0
 42 43  1  0
 43 44  2  0
 43 45  1  0
 45 46  1  0
 45 47  1  0
 47 48  1  0
 48 49  2  0
 48 50  1  0
 50 51  1  0
 51 52  1  0
 52 53  1  0
 50 54  1  0
 54 55  1  0
 55 56  2  0
 55 57  1  0
 57 58  1  0
 57 59  1  0
 59 60  1  0
 60 61  2  0
 60 62  1  0
 62 63  1  0
 62 64  1  0
 64 65  1  0
 65 66  2  0
 65 67  1  0
 67 68  1  0
 67 69  1  0
 69 70  1  0
 70 71  2  0
 70 72  1  0
 72 73  1  0
 72 74  1  0
 74 75  1  0
 75 76  2  0
 75 77  1  0
 77 78  1  0
 77 79  1  0
 79 80  1  0
 80 81  2  0
 80  5  1  0
 14  9  1  0
 53 11  1  0
  1 82  1  0
  1 83  1  0
  1 84  1  0
  4 85  1  0
  5 86  1  1
  6 87  1  0
  6 88  1  0
  8 89  1  0
  8 90  1  0
 10 91  1  0
 12 92  1  0
 14 93  1  0
 15 94  1  0
 15 95  1  0
 17 96  1  0
 17 97  1  0
 18 98  1  6
 20 99  1  0
 20100  1  0
 22101  1  0
 25102  1  6
 26103  1  0
 26104  1  0
 26105  1  0
 27106  1  0
 30107  1  6
 31108  1  0
 31109  1  0
 31110  1  0
 32111  1  0
 35112  1  6
 36113  1  0
 36114  1  0
 36115  1  0
 37116  1  0
 40117  1  1
 41118  1  0
 41119  1  0
 41120  1  0
 42121  1  0
 45122  1  1
 46123  1  0
 46124  1  0
 46125  1  0
 47126  1  0
 50127  1  1
 51128  1  0
 51129  1  0
 53130  1  0
 53131  1  0
 54132  1  0
 57133  1  6
 58134  1  0
 58135  1  0
 58136  1  0
 59137  1  0
 62138  1  1
 63139  1  0
 63140  1  0
 63141  1  0
 64142  1  0
 67143  1  6
 68144  1  0
 68145  1  0
 68146  1  0
 69147  1  0
 72148  1  6
 73149  1  0
 73150  1  0
 73151  1  0
 74152  1  0
 77153  1  6
 78154  1  0
 78155  1  0
 78156  1  0
 79157  1  0
M  END
