
     RDKit          3D

177179  0  0  0  0  0  0  0  0999 V2000
   -7.6273    4.0047   -3.5063 C   0  0  0  0  0  0  0  0  0  0  0  0
   -6.6397    3.7642   -2.4055 C   0  0  0  0  0  0  0  0  0  0  0  0
   -5.5575    4.4018   -2.3739 O   0  0  0  0  0  0  0  0  0  0  0  0
   -6.9679    2.8328   -1.3602 N   0  0  0  0  0  0  0  0  0  0  0  0
   -6.1745    2.6609   -0.1390 C   0  0  1  0  0  0  0  0  0  0  0  0
   -6.1083    3.9626    0.6929 C   0  0  0  0  0  0  0  0  0  0  0  0
   -4.4991    4.8184    0.5109 S   0  0  0  0  0  0  0  0  0  0  0  0
   -3.5734    3.8688    1.7752 C   0  0  0  0  0  0  0  0  0  0  0  0
   -2.3648    3.2408    1.1407 C   0  0  0  0  0  0  0  0  0  0  0  0
   -2.2872    1.8444    0.9830 C   0  0  0  0  0  0  0  0  0  0  0  0
   -1.1891    1.2536    0.3244 C   0  0  0  0  0  0  0  0  0  0  0  0
   -0.1451    2.0822   -0.1228 C   0  0  0  0  0  0  0  0  0  0  0  0
   -0.2046    3.4754    0.0442 C   0  0  0  0  0  0  0  0  0  0  0  0
   -1.3156    4.0480    0.6729 C   0  0  0  0  0  0  0  0  0  0  0  0
    0.9180    4.3435   -0.4515 C   0  0  0  0  0  0  0  0  0  0  0  0
    2.1536    4.5884    0.8752 S   0  0  0  0  0  0  0  0  0  0  0  0
    3.0303    5.9851    0.0849 C   0  0  0  0  0  0  0  0  0  0  0  0
    3.9582    5.5233   -1.0655 C   0  0  1  0  0  0  0  0  0  0  0  0
    4.5219    6.6699   -1.8728 C   0  0  0  0  0  0  0  0  0  0  0  0
    5.3716    6.4087   -2.9873 N   0  0  0  0  0  0  0  0  0  0  0  0
    4.2436    7.8634   -1.5740 O   0  0  0  0  0  0  0  0  0  0  0  0
    5.0219    4.6489   -0.5526 N   0  0  0  0  0  0  0  0  0  0  0  0
    5.9594    4.9970    0.4799 C   0  0  0  0  0  0  0  0  0  0  0  0
    6.1447    4.1814    1.4244 O   0  0  0  0  0  0  0  0  0  0  0  0
    6.8499    6.2273    0.3707 C   0  0  1  0  0  0  0  0  0  0  0  0
    7.1450    6.8289    1.7530 C   0  0  0  0  0  0  0  0  0  0  0  0
    8.1165    5.9335   -0.3122 N   0  0  0  0  0  0  0  0  0  0  0  0
    8.5359    4.6227   -0.7272 C   0  0  0  0  0  0  0  0  0  0  0  0
    7.8785    4.0183   -1.6210 O   0  0  0  0  0  0  0  0  0  0  0  0
    9.7127    3.9421   -0.0725 C   0  0  1  0  0  0  0  0  0  0  0  0
   10.8721    4.9183    0.1698 C   0  0  0  0  0  0  0  0  0  0  0  0
    9.2759    3.3648    1.2035 N   0  0  0  0  0  0  0  0  0  0  0  0
    9.1105    1.9592    1.4442 C   0  0  0  0  0  0  0  0  0  0  0  0
    8.2012    1.5900    2.2432 O   0  0  0  0  0  0  0  0  0  0  0  0
    9.9845    0.9087    0.7851 C   0  0  1  0  0  0  0  0  0  0  0  0
   11.4694    1.2033    1.0158 C   0  0  0  0  0  0  0  0  0  0  0  0
    9.6907   -0.4282    1.3218 N   0  0  0  0  0  0  0  0  0  0  0  0
    9.8565   -1.6696    0.6146 C   0  0  0  0  0  0  0  0  0  0  0  0
   10.0142   -2.7217    1.2893 O   0  0  0  0  0  0  0  0  0  0  0  0
    9.7172   -1.7883   -0.8891 C   0  0  1  0  0  0  0  0  0  0  0  0
   10.7621   -2.7596   -1.4605 C   0  0  0  0  0  0  0  0  0  0  0  0
    8.3276   -2.1559   -1.2097 N   0  0  0  0  0  0  0  0  0  0  0  0
    7.8689   -3.5026   -1.4468 C   0  0  0  0  0  0  0  0  0  0  0  0
    8.4457   -4.2304   -2.3004 O   0  0  0  0  0  0  0  0  0  0  0  0
    6.6616   -4.0457   -0.7229 C   0  0  1  0  0  0  0  0  0  0  0  0
    6.7794   -3.8143    0.7852 C   0  0  0  0  0  0  0  0  0  0  0  0
    5.4390   -3.4193   -1.2321 N   0  0  0  0  0  0  0  0  0  0  0  0
    4.3795   -4.1631   -1.8589 C   0  0  0  0  0  0  0  0  0  0  0  0
    4.1123   -3.9341   -3.0660 O   0  0  0  0  0  0  0  0  0  0  0  0
    3.5485   -5.1796   -1.1034 C   0  0  1  0  0  0  0  0  0  0  0  0
    4.2777   -6.5249   -0.9886 C   0  0  0  0  0  0  0  0  0  0  0  0
    3.1797   -4.6676    0.2236 N   0  0  0  0  0  0  0  0  0  0  0  0
    2.1033   -5.1689    1.0383 C   0  0  0  0  0  0  0  0  0  0  0  0
    1.9001   -4.6234    2.1572 O   0  0  0  0  0  0  0  0  0  0  0  0
    1.1984   -6.3067    0.6175 C   0  0  1  0  0  0  0  0  0  0  0  0
    1.4057   -7.4995    1.5566 C   0  0  0  0  0  0  0  0  0  0  0  0
   -0.1922   -5.8608    0.6587 N   0  0  0  0  0  0  0  0  0  0  0  0
   -0.6557   -4.8217   -0.2091 C   0  0  0  0  0  0  0  0  0  0  0  0
   -0.5205   -4.9633   -1.4593 O   0  0  0  0  0  0  0  0  0  0  0  0
   -1.1215   -3.4965    0.3581 C   0  0  1  0  0  0  0  0  0  0  0  0
   -1.9970   -2.6984   -0.6349 C   0  0  0  0  0  0  0  0  0  0  0  0
   -2.6528   -1.1406    0.0757 S   0  0  0  0  0  0  0  0  0  0  0  0
   -1.0512   -0.2427    0.1484 C   0  0  0  0  0  0  0  0  0  0  0  0
   -1.7676   -3.6452    1.6684 N   0  0  0  0  0  0  0  0  0  0  0  0
   -2.7421   -4.6425    2.0074 C   0  0  0  0  0  0  0  0  0  0  0  0
   -2.4807   -5.4550    2.9368 O   0  0  0  0  0  0  0  0  0  0  0  0
   -4.0887   -4.7195    1.3176 C   0  0  1  0  0  0  0  0  0  0  0  0
   -4.1093   -5.9160    0.3585 C   0  0  0  0  0  0  0  0  0  0  0  0
   -5.1550   -4.8474    2.3191 N   0  0  0  0  0  0  0  0  0  0  0  0
   -6.4771   -4.3079    2.1739 C   0  0  0  0  0  0  0  0  0  0  0  0
   -7.1036   -3.9660    3.2134 O   0  0  0  0  0  0  0  0  0  0  0  0
   -7.1899   -4.3060    0.8391 C   0  0  1  0  0  0  0  0  0  0  0  0
   -7.8355   -5.6827    0.6326 C   0  0  0  0  0  0  0  0  0  0  0  0
   -8.1970   -3.2371    0.7704 N   0  0  0  0  0  0  0  0  0  0  0  0
   -8.9590   -2.9920   -0.4129 C   0  0  0  0  0  0  0  0  0  0  0  0
   -9.7228   -3.8914   -0.8631 O   0  0  0  0  0  0  0  0  0  0  0  0
   -8.8374   -1.6705   -1.1189 C   0  0  1  0  0  0  0  0  0  0  0  0
   -7.6419   -1.6966   -2.0700 C   0  0  0  0  0  0  0  0  0  0  0  0
  -10.0658   -1.3736   -1.8639 N   0  0  0  0  0  0  0  0  0  0  0  0
  -10.9621   -0.2978   -1.5480 C   0  0  0  0  0  0  0  0  0  0  0  0
  -12.1989   -0.4583   -1.7446 O   0  0  0  0  0  0  0  0  0  0  0  0
  -10.4698    1.0368   -1.0499 C   0  0  1  0  0  0  0  0  0  0  0  0
  -10.7965    2.1430   -2.0533 C   0  0  0  0  0  0  0  0  0  0  0  0
  -11.0682    1.3423    0.2515 N   0  0  0  0  0  0  0  0  0  0  0  0
  -10.2893    1.6247    1.4226 C   0  0  0  0  0  0  0  0  0  0  0  0
  -10.6771    1.1726    2.5389 O   0  0  0  0  0  0  0  0  0  0  0  0
   -9.0289    2.4701    1.3613 C   0  0  1  0  0  0  0  0  0  0  0  0
   -9.0904    3.5346    2.4704 C   0  0  0  0  0  0  0  0  0  0  0  0
   -7.8525    1.6041    1.5563 N   0  0  0  0  0  0  0  0  0  0  0  0
   -6.7110    1.5003    0.6851 C   0  0  0  0  0  0  0  0  0  0  0  0
   -6.0479    0.4264    0.6980 O   0  0  0  0  0  0  0  0  0  0  0  0
   -7.2125    4.7234   -4.2456 H   0  0  0  0  0  0  0  0  0  0  0  0
   -8.5674    4.4113   -3.0709 H   0  0  0  0  0  0  0  0  0  0  0  0
   -7.8483    3.0459   -4.0179 H   0  0  0  0  0  0  0  0  0  0  0  0
   -7.7971    2.2400   -1.5167 H   0  0  0  0  0  0  0  0  0  0  0  0
   -5.1422    2.3841   -0.4543 H   0  0  0  0  0  0  0  0  0  0  0  0
   -6.9042    4.6615    0.3720 H   0  0  0  0  0  0  0  0  0  0  0  0
   -6.2661    3.7715    1.7702 H   0  0  0  0  0  0  0  0  0  0  0  0
   -3.2458    4.5733    2.5707 H   0  0  0  0  0  0  0  0  0  0  0  0
   -4.2049    3.0924    2.2598 H   0  0  0  0  0  0  0  0  0  0  0  0
   -3.0968    1.2296    1.3593 H   0  0  0  0  0  0  0  0  0  0  0  0
    0.7214    1.6352   -0.6038 H   0  0  0  0  0  0  0  0  0  0  0  0
   -1.3770    5.1197    0.7843 H   0  0  0  0  0  0  0  0  0  0  0  0
    1.4119    3.8582   -1.3187 H   0  0  0  0  0  0  0  0  0  0  0  0
    0.5167    5.3209   -0.7994 H   0  0  0  0  0  0  0  0  0  0  0  0
    2.2894    6.7231   -0.2935 H   0  0  0  0  0  0  0  0  0  0  0  0
    3.6358    6.5020    0.8599 H   0  0  0  0  0  0  0  0  0  0  0  0
    3.3435    4.9360   -1.7865 H   0  0  0  0  0  0  0  0  0  0  0  0
    5.7856    7.2072   -3.5272 H   0  0  0  0  0  0  0  0  0  0  0  0
    5.6237    5.4260   -3.2448 H   0  0  0  0  0  0  0  0  0  0  0  0
    4.9368    3.6316   -0.7801 H   0  0  0  0  0  0  0  0  0  0  0  0
    6.3315    7.0166   -0.1957 H   0  0  0  0  0  0  0  0  0  0  0  0
    7.7417    6.1278    2.3721 H   0  0  0  0  0  0  0  0  0  0  0  0
    6.1906    7.0609    2.2728 H   0  0  0  0  0  0  0  0  0  0  0  0
    7.7180    7.7736    1.6380 H   0  0  0  0  0  0  0  0  0  0  0  0
    8.7223    6.7480   -0.5791 H   0  0  0  0  0  0  0  0  0  0  0  0
   10.0682    3.1515   -0.7594 H   0  0  0  0  0  0  0  0  0  0  0  0
   11.6698    4.4112    0.7459 H   0  0  0  0  0  0  0  0  0  0  0  0
   10.5375    5.7958    0.7528 H   0  0  0  0  0  0  0  0  0  0  0  0
   11.2853    5.2600   -0.8016 H   0  0  0  0  0  0  0  0  0  0  0  0
    8.9081    4.0247    1.9242 H   0  0  0  0  0  0  0  0  0  0  0  0
    9.7648    0.9519   -0.2886 H   0  0  0  0  0  0  0  0  0  0  0  0
   11.6688    1.3924    2.0944 H   0  0  0  0  0  0  0  0  0  0  0  0
   12.0943    0.3336    0.7012 H   0  0  0  0  0  0  0  0  0  0  0  0
   11.8082    2.0829    0.4305 H   0  0  0  0  0  0  0  0  0  0  0  0
    9.6272   -0.5103    2.3622 H   0  0  0  0  0  0  0  0  0  0  0  0
    9.9259   -0.8277   -1.3908 H   0  0  0  0  0  0  0  0  0  0  0  0
   10.6664   -2.8272   -2.5617 H   0  0  0  0  0  0  0  0  0  0  0  0
   10.6601   -3.7716   -1.0143 H   0  0  0  0  0  0  0  0  0  0  0  0
   11.7778   -2.3797   -1.2313 H   0  0  0  0  0  0  0  0  0  0  0  0
    7.5997   -1.4440   -0.9778 H   0  0  0  0  0  0  0  0  0  0  0  0
    6.6330   -5.1373   -0.8962 H   0  0  0  0  0  0  0  0  0  0  0  0
    5.9416   -4.3142    1.3159 H   0  0  0  0  0  0  0  0  0  0  0  0
    6.7561   -2.7298    1.0296 H   0  0  0  0  0  0  0  0  0  0  0  0
    7.7304   -4.2537    1.1607 H   0  0  0  0  0  0  0  0  0  0  0  0
    5.4194   -2.3799   -1.3422 H   0  0  0  0  0  0  0  0  0  0  0  0
    2.6249   -5.3280   -1.7036 H   0  0  0  0  0  0  0  0  0  0  0  0
    3.5656   -7.3467   -0.7820 H   0  0  0  0  0  0  0  0  0  0  0  0
    4.8001   -6.7734   -1.9380 H   0  0  0  0  0  0  0  0  0  0  0  0
    5.0109   -6.5104   -0.1577 H   0  0  0  0  0  0  0  0  0  0  0  0
    3.7137   -3.8586    0.6246 H   0  0  0  0  0  0  0  0  0  0  0  0
    1.4203   -6.6562   -0.4129 H   0  0  0  0  0  0  0  0  0  0  0  0
    0.7639   -8.3470    1.2403 H   0  0  0  0  0  0  0  0  0  0  0  0
    2.4700   -7.8220    1.5262 H   0  0  0  0  0  0  0  0  0  0  0  0
    1.1429   -7.2057    2.5970 H   0  0  0  0  0  0  0  0  0  0  0  0
   -0.9141   -6.4725    1.1091 H   0  0  0  0  0  0  0  0  0  0  0  0
   -0.1832   -2.9169    0.5075 H   0  0  0  0  0  0  0  0  0  0  0  0
   -2.8496   -3.3251   -0.9774 H   0  0  0  0  0  0  0  0  0  0  0  0
   -1.3978   -2.4574   -1.5427 H   0  0  0  0  0  0  0  0  0  0  0  0
   -0.4352   -0.6470    0.9732 H   0  0  0  0  0  0  0  0  0  0  0  0
   -0.5101   -0.4138   -0.8054 H   0  0  0  0  0  0  0  0  0  0  0  0
   -1.2679   -3.2075    2.4747 H   0  0  0  0  0  0  0  0  0  0  0  0
   -4.2415   -3.7801    0.7453 H   0  0  0  0  0  0  0  0  0  0  0  0
   -4.0730   -6.8731    0.9289 H   0  0  0  0  0  0  0  0  0  0  0  0
   -3.2309   -5.8831   -0.3247 H   0  0  0  0  0  0  0  0  0  0  0  0
   -5.0150   -5.8987   -0.2736 H   0  0  0  0  0  0  0  0  0  0  0  0
   -4.9226   -5.2514    3.2570 H   0  0  0  0  0  0  0  0  0  0  0  0
   -6.4604   -4.1214    0.0234 H   0  0  0  0  0  0  0  0  0  0  0  0
   -8.7298   -5.7910    1.2796 H   0  0  0  0  0  0  0  0  0  0  0  0
   -7.1213   -6.4935    0.8781 H   0  0  0  0  0  0  0  0  0  0  0  0
   -8.1321   -5.8146   -0.4249 H   0  0  0  0  0  0  0  0  0  0  0  0
   -8.2752   -2.5366    1.5502 H   0  0  0  0  0  0  0  0  0  0  0  0
   -8.6430   -0.9020   -0.3382 H   0  0  0  0  0  0  0  0  0  0  0  0
   -6.6983   -1.7760   -1.4952 H   0  0  0  0  0  0  0  0  0  0  0  0
   -7.6132   -0.7617   -2.6738 H   0  0  0  0  0  0  0  0  0  0  0  0
   -7.7161   -2.5698   -2.7578 H   0  0  0  0  0  0  0  0  0  0  0  0
  -10.3800   -2.0637   -2.5843 H   0  0  0  0  0  0  0  0  0  0  0  0
   -9.3812    0.9921   -0.9454 H   0  0  0  0  0  0  0  0  0  0  0  0
  -10.2691    1.9476   -3.0116 H   0  0  0  0  0  0  0  0  0  0  0  0
  -10.4510    3.1246   -1.6613 H   0  0  0  0  0  0  0  0  0  0  0  0
  -11.8898    2.1983   -2.2385 H   0  0  0  0  0  0  0  0  0  0  0  0
  -12.0950    1.2058    0.3746 H   0  0  0  0  0  0  0  0  0  0  0  0
   -8.9819    2.9958    0.3880 H   0  0  0  0  0  0  0  0  0  0  0  0
  -10.1142    3.9657    2.5623 H   0  0  0  0  0  0  0  0  0  0  0  0
   -8.8128    3.0946    3.4532 H   0  0  0  0  0  0  0  0  0  0  0  0
   -8.4075    4.3757    2.2514 H   0  0  0  0  0  0  0  0  0  0  0  0
   -7.8812    0.9487    2.3697 H   0  0  0  0  0  0  0  0  0  0  0  0
  1  2  1  0
  2  3  2  0
  2  4  1  0
  4  5  1  0
  5  6  1  0
  6  7  1  0
  7  8  1  0
  8  9  1  0
  9 10  1  0
 10 11  2  0
 11 12  1  0
 12 13  2  0
 13 14  1  0
 13 15  1  0
 15 16  1  0
 16 17  1  0
 17 18  1  0
 18 19  1  0
 19 20  1  0
 19 21  2  0
 18 22  1  0
 22 23  1  0
 23 24  2  0
 23 25  1  0
 25 26  1  0
 25 27  1  0
 27 28  1  0
 28 29  2  0
 28 30  1  0
 30 31  1  0
 30 32  1  0
 32 33  1  0
 33 34  2  0
 33 35  1  0
 35 36  1  0
 35 37  1  0
 37 38  1  0
 38 39  2  0
 38 40  1  0
 40 41  1  0
 40 42  1  0
 42 43  1  0
 43 44  2  0
 43 45  1  0
 45 46  1  0
 45 47  1  0
 47 48  1  0
 48 49  2  0
 48 50  1  0
 50 51  1  0
 50 52  1  0
 52 53  1  0
 53 54  2  0
 53 55  1  0
 55 56  1  0
 55 57  1  0
 57 58  1  0
 58 59  2  0
 58 60  1  0
 60 61  1  0
 61 62  1  0
 62 63  1  0
 60 64  1  0
 64 65  1  0
 65 66  2  0
 65 67  1  0
 67 68  1  0
 67 69  1  0
 69 70  1  0
 70 71  2  0
 70 72  1  0
 72 73  1  0
 72 74  1  0
 74 75  1  0
 75 76  2  0
 75 77  1  0
 77 78  1  0
 77 79  1  0
 79 80  1  0
 80 81  2  0
 80 82  1  0
 82 83  1  0
 82 84  1  0
 84 85  1  0
 85 86  2  0
 85 87  1  0
 87 88  1  0
 87 89  1  0
 89 90  1  0
 90 91  2  0
 90  5  1  0
 14  9  2  0
 63 11  1  0
  1 92  1  0
  1 93  1  0
  1 94  1  0
  4 95  1  0
  5 96  1  6
  6 97  1  0
  6 98  1  0
  8 99  1  0
  8100  1  0
 10101  1  0
 12102  1  0
 14103  1  0
 15104  1  0
 15105  1  0
 17106  1  0
 17107  1  0
 18108  1  6
 20109  1  0
 20110  1  0
 22111  1  0
 25112  1  6
 26113  1  0
 26114  1  0
 26115  1  0
 27116  1  0
 30117  1  6
 31118  1  0
 31119  1  0
 31120  1  0
 32121  1  0
 35122  1  6
 36123  1  0
 36124  1  0
 36125  1  0
 37126  1  0
 40127  1  6
 41128  1  0
 41129  1  0
 41130  1  0
 42131  1  0
 45132  1  1
 46133  1  0
 46134  1  0
 46135  1  0
 47136  1  0
 50137  1  6
 51138  1  0
 51139  1  0
 51140  1  0
 52141  1  0
 55142  1  6
 56143  1  0
 56144  1  0
 56145  1  0
 57146  1  0
 60147  1  1
 61148  1  0
 61149  1  0
 63150  1  0
 63151  1  0
 64152  1  0
 67153  1  6
 68154  1  0
 68155  1  0
 68156  1  0
 69157  1  0
 72158  1  6
 73159  1  0
 73160  1  0
 73161  1  0
 74162  1  0
 77163  1  1
 78164  1  0
 78165  1  0
 78166  1  0
 79167  1  0
 82168  1  1
 83169  1  0
 83170  1  0
 83171  1  0
 84172  1  0
 87173  1  6
 88174  1  0
 88175  1  0
 88176  1  0
 89177  1  0
M  END
