
     RDKit          3D

187189  0  0  0  0  0  0  0  0999 V2000
    6.5623    8.9572   -2.1708 C   0  0  0  0  0  0  0  0  0  0  0  0
    6.7624    7.7340   -1.3372 C   0  0  0  0  0  0  0  0  0  0  0  0
    6.7051    7.8366   -0.0803 O   0  0  0  0  0  0  0  0  0  0  0  0
    7.0291    6.4628   -1.9590 N   0  0  0  0  0  0  0  0  0  0  0  0
    7.1261    5.1920   -1.2195 C   0  0  2  0  0  0  0  0  0  0  0  0
    5.8018    4.8918   -0.4928 C   0  0  0  0  0  0  0  0  0  0  0  0
    5.6148    3.1082   -0.1392 S   0  0  0  0  0  0  0  0  0  0  0  0
    4.9346    2.6151   -1.7584 C   0  0  0  0  0  0  0  0  0  0  0  0
    3.4750    2.3296   -1.5932 C   0  0  0  0  0  0  0  0  0  0  0  0
    2.5277    3.3365   -1.8252 C   0  0  0  0  0  0  0  0  0  0  0  0
    1.1651    3.0995   -1.5994 C   0  0  0  0  0  0  0  0  0  0  0  0
    0.7482    1.8404   -1.1273 C   0  0  0  0  0  0  0  0  0  0  0  0
    1.6830    0.8145   -0.9057 C   0  0  0  0  0  0  0  0  0  0  0  0
    3.0471    1.0702   -1.1431 C   0  0  0  0  0  0  0  0  0  0  0  0
    1.2178   -0.5654   -0.5212 C   0  0  0  0  0  0  0  0  0  0  0  0
    2.2573   -1.2951    0.7998 S   0  0  0  0  0  0  0  0  0  0  0  0
    1.4240   -2.9306    0.8625 C   0  0  0  0  0  0  0  0  0  0  0  0
    2.2425   -4.0217    0.1458 C   0  0  1  0  0  0  0  0  0  0  0  0
    1.6923   -5.3492    0.4502 N   0  0  0  0  0  0  0  0  0  0  0  0
    2.2449   -6.5840   -0.0314 C   0  0  0  0  0  0  0  0  0  0  0  0
    1.4632   -7.4444   -0.5208 O   0  0  0  0  0  0  0  0  0  0  0  0
    3.7230   -6.8879    0.0955 C   0  0  1  0  0  0  0  0  0  0  0  0
    3.9981   -8.3918   -0.0710 C   0  0  0  0  0  0  0  0  0  0  0  0
    4.4824   -6.1465   -0.9143 N   0  0  0  0  0  0  0  0  0  0  0  0
    5.6713   -5.3657   -0.6788 C   0  0  0  0  0  0  0  0  0  0  0  0
    6.3045   -4.9302   -1.6819 O   0  0  0  0  0  0  0  0  0  0  0  0
    6.2405   -5.1165    0.7118 C   0  0  1  0  0  0  0  0  0  0  0  0
    7.1320   -6.3017    1.1011 C   0  0  0  0  0  0  0  0  0  0  0  0
    7.0172   -3.8723    0.7422 N   0  0  0  0  0  0  0  0  0  0  0  0
    7.7195   -3.4428    1.9177 C   0  0  0  0  0  0  0  0  0  0  0  0
    7.2324   -3.6782    3.0580 O   0  0  0  0  0  0  0  0  0  0  0  0
    9.0808   -2.8105    1.8106 C   0  0  1  0  0  0  0  0  0  0  0  0
   10.1480   -3.8936    1.6538 C   0  0  0  0  0  0  0  0  0  0  0  0
    9.1429   -1.8956    0.6699 N   0  0  0  0  0  0  0  0  0  0  0  0
    9.1753   -0.4582    0.7503 C   0  0  0  0  0  0  0  0  0  0  0  0
    9.3707    0.1978   -0.3131 O   0  0  0  0  0  0  0  0  0  0  0  0
    9.0030    0.2972    2.0502 C   0  0  1  0  0  0  0  0  0  0  0  0
   10.3821    0.5082    2.6925 C   0  0  0  0  0  0  0  0  0  0  0  0
    8.3188    1.5700    1.7844 N   0  0  0  0  0  0  0  0  0  0  0  0
    8.4613    2.7502    2.5855 C   0  0  0  0  0  0  0  0  0  0  0  0
    8.3442    2.6691    3.8379 O   0  0  0  0  0  0  0  0  0  0  0  0
    8.7762    4.0858    1.9515 C   0  0  1  0  0  0  0  0  0  0  0  0
   10.2012    4.5025    2.3168 C   0  0  0  0  0  0  0  0  0  0  0  0
    8.6215    4.0291    0.4917 N   0  0  0  0  0  0  0  0  0  0  0  0
    8.3072    5.1971   -0.2732 C   0  0  0  0  0  0  0  0  0  0  0  0
    9.0786    6.1974   -0.2213 O   0  0  0  0  0  0  0  0  0  0  0  0
    2.2926   -3.7615   -1.3517 C   0  0  0  0  0  0  0  0  0  0  0  0
    3.4118   -3.4978   -1.8670 O   0  0  0  0  0  0  0  0  0  0  0  0
    1.1164   -3.6431   -2.1723 N   0  0  0  0  0  0  0  0  0  0  0  0
   -0.0410   -4.5329   -2.0977 C   0  0  2  0  0  0  0  0  0  0  0  0
    0.1280   -5.6771   -3.0985 C   0  0  0  0  0  0  0  0  0  0  0  0
   -1.3066   -3.7546   -2.3691 C   0  0  0  0  0  0  0  0  0  0  0  0
   -1.4150   -3.1083   -3.4481 O   0  0  0  0  0  0  0  0  0  0  0  0
   -2.3477   -3.6482   -1.3834 N   0  0  0  0  0  0  0  0  0  0  0  0
   -3.2247   -4.7518   -0.9678 C   0  0  2  0  0  0  0  0  0  0  0  0
   -2.4656   -5.7797   -0.1209 C   0  0  0  0  0  0  0  0  0  0  0  0
   -3.8781   -5.3924   -2.1753 C   0  0  0  0  0  0  0  0  0  0  0  0
   -3.1674   -6.0219   -2.9977 O   0  0  0  0  0  0  0  0  0  0  0  0
   -5.2800   -5.2405   -2.4558 N   0  0  0  0  0  0  0  0  0  0  0  0
   -6.3460   -5.2947   -1.4417 C   0  0  2  0  0  0  0  0  0  0  0  0
   -6.2158   -6.5750   -0.6037 C   0  0  0  0  0  0  0  0  0  0  0  0
   -7.7237   -5.2876   -2.0830 C   0  0  0  0  0  0  0  0  0  0  0  0
   -7.8580   -5.7495   -3.2471 O   0  0  0  0  0  0  0  0  0  0  0  0
   -8.9175   -4.9069   -1.3670 N   0  0  0  0  0  0  0  0  0  0  0  0
   -8.9931   -3.9586   -0.2390 C   0  0  2  0  0  0  0  0  0  0  0  0
   -8.5505   -4.6248    1.0687 C   0  0  0  0  0  0  0  0  0  0  0  0
  -10.4196   -3.4719   -0.0722 C   0  0  0  0  0  0  0  0  0  0  0  0
  -11.3668   -4.3063   -0.1132 O   0  0  0  0  0  0  0  0  0  0  0  0
  -10.7412   -2.0858    0.1320 N   0  0  0  0  0  0  0  0  0  0  0  0
  -10.0320   -1.2635    1.1199 C   0  0  2  0  0  0  0  0  0  0  0  0
  -10.5405   -1.5831    2.5323 C   0  0  0  0  0  0  0  0  0  0  0  0
  -10.2561    0.1983    0.8389 C   0  0  0  0  0  0  0  0  0  0  0  0
  -11.4278    0.6686    0.8664 O   0  0  0  0  0  0  0  0  0  0  0  0
   -9.1366    1.0657    0.5900 N   0  0  0  0  0  0  0  0  0  0  0  0
   -8.9489    2.3446    1.2934 C   0  0  2  0  0  0  0  0  0  0  0  0
   -9.1077    2.1506    2.8075 C   0  0  0  0  0  0  0  0  0  0  0  0
   -9.8815    3.4240    0.7823 C   0  0  0  0  0  0  0  0  0  0  0  0
  -10.8054    3.1357   -0.0248 O   0  0  0  0  0  0  0  0  0  0  0  0
   -9.7607    4.7855    1.2306 N   0  0  0  0  0  0  0  0  0  0  0  0
   -8.4620    5.4269    1.4650 C   0  0  2  0  0  0  0  0  0  0  0  0
   -8.6397    6.7118    2.2783 C   0  0  0  0  0  0  0  0  0  0  0  0
   -7.7976    5.7349    0.1481 C   0  0  0  0  0  0  0  0  0  0  0  0
   -8.5018    6.0811   -0.8387 O   0  0  0  0  0  0  0  0  0  0  0  0
   -6.3668    5.6413    0.0161 N   0  0  0  0  0  0  0  0  0  0  0  0
   -5.6713    5.9305   -1.2358 C   0  0  2  0  0  0  0  0  0  0  0  0
   -5.2940    4.6126   -1.9217 C   0  0  0  0  0  0  0  0  0  0  0  0
   -4.4978    6.8417   -0.9531 C   0  0  0  0  0  0  0  0  0  0  0  0
   -4.7373    8.0392   -0.6352 O   0  0  0  0  0  0  0  0  0  0  0  0
   -3.1363    6.3816   -0.9943 N   0  0  0  0  0  0  0  0  0  0  0  0
   -2.0494    7.1474   -0.3689 C   0  0  1  0  0  0  0  0  0  0  0  0
   -2.1826    7.1387    1.1343 C   0  0  0  0  0  0  0  0  0  0  0  0
   -2.7227    6.0051    1.8225 N   0  0  0  0  0  0  0  0  0  0  0  0
   -1.7997    8.1364    1.7992 O   0  0  0  0  0  0  0  0  0  0  0  0
   -0.6749    6.6398   -0.8342 C   0  0  0  0  0  0  0  0  0  0  0  0
   -0.2839    4.9507   -0.2134 S   0  0  0  0  0  0  0  0  0  0  0  0
    0.1706    4.2030   -1.8200 C   0  0  0  0  0  0  0  0  0  0  0  0
    6.5824    8.7145   -3.2544 H   0  0  0  0  0  0  0  0  0  0  0  0
    5.5829    9.4192   -1.9243 H   0  0  0  0  0  0  0  0  0  0  0  0
    7.3727    9.6858   -1.9548 H   0  0  0  0  0  0  0  0  0  0  0  0
    7.1218    6.4202   -2.9956 H   0  0  0  0  0  0  0  0  0  0  0  0
    7.3102    4.3850   -1.9608 H   0  0  0  0  0  0  0  0  0  0  0  0
    4.9349    5.2421   -1.0950 H   0  0  0  0  0  0  0  0  0  0  0  0
    5.7641    5.4345    0.4753 H   0  0  0  0  0  0  0  0  0  0  0  0
    5.0960    3.3885   -2.5433 H   0  0  0  0  0  0  0  0  0  0  0  0
    5.4641    1.7021   -2.1012 H   0  0  0  0  0  0  0  0  0  0  0  0
    2.8538    4.3090   -2.1850 H   0  0  0  0  0  0  0  0  0  0  0  0
   -0.3057    1.6586   -0.9560 H   0  0  0  0  0  0  0  0  0  0  0  0
    3.7814    0.2869   -0.9826 H   0  0  0  0  0  0  0  0  0  0  0  0
    0.1669   -0.5491   -0.1669 H   0  0  0  0  0  0  0  0  0  0  0  0
    1.2625   -1.1945   -1.4268 H   0  0  0  0  0  0  0  0  0  0  0  0
    1.3391   -3.2021    1.9360 H   0  0  0  0  0  0  0  0  0  0  0  0
    0.3902   -2.8807    0.4632 H   0  0  0  0  0  0  0  0  0  0  0  0
    3.2768   -3.9788    0.5572 H   0  0  0  0  0  0  0  0  0  0  0  0
    0.7694   -5.4163    0.9439 H   0  0  0  0  0  0  0  0  0  0  0  0
    4.0317   -6.6150    1.1206 H   0  0  0  0  0  0  0  0  0  0  0  0
    3.4329   -8.9713    0.6867 H   0  0  0  0  0  0  0  0  0  0  0  0
    5.0740   -8.6089    0.0538 H   0  0  0  0  0  0  0  0  0  0  0  0
    3.6988   -8.7328   -1.0887 H   0  0  0  0  0  0  0  0  0  0  0  0
    4.1810   -6.2591   -1.9096 H   0  0  0  0  0  0  0  0  0  0  0  0
    5.4226   -5.0161    1.4478 H   0  0  0  0  0  0  0  0  0  0  0  0
    7.5623   -6.1549    2.1138 H   0  0  0  0  0  0  0  0  0  0  0  0
    7.9703   -6.4107    0.3742 H   0  0  0  0  0  0  0  0  0  0  0  0
    6.5497   -7.2440    1.1237 H   0  0  0  0  0  0  0  0  0  0  0  0
    6.8862   -3.1624   -0.0233 H   0  0  0  0  0  0  0  0  0  0  0  0
    9.3001   -2.2779    2.7555 H   0  0  0  0  0  0  0  0  0  0  0  0
    9.9513   -4.4944    0.7369 H   0  0  0  0  0  0  0  0  0  0  0  0
   10.1326   -4.5697    2.5353 H   0  0  0  0  0  0  0  0  0  0  0  0
   11.1491   -3.4257    1.5782 H   0  0  0  0  0  0  0  0  0  0  0  0
    9.1404   -2.3172   -0.2925 H   0  0  0  0  0  0  0  0  0  0  0  0
    8.3575   -0.2840    2.7403 H   0  0  0  0  0  0  0  0  0  0  0  0
   10.9976    1.2058    2.0861 H   0  0  0  0  0  0  0  0  0  0  0  0
   10.2718    0.9193    3.7170 H   0  0  0  0  0  0  0  0  0  0  0  0
   10.9275   -0.4594    2.7761 H   0  0  0  0  0  0  0  0  0  0  0  0
    7.5079    1.5465    1.1231 H   0  0  0  0  0  0  0  0  0  0  0  0
    8.0667    4.8348    2.3637 H   0  0  0  0  0  0  0  0  0  0  0  0
   10.9406    3.8028    1.8609 H   0  0  0  0  0  0  0  0  0  0  0  0
   10.4017    5.5311    1.9484 H   0  0  0  0  0  0  0  0  0  0  0  0
   10.3354    4.5040    3.4184 H   0  0  0  0  0  0  0  0  0  0  0  0
    8.9983    3.2109   -0.0397 H   0  0  0  0  0  0  0  0  0  0  0  0
    1.2482   -3.1450   -3.0864 H   0  0  0  0  0  0  0  0  0  0  0  0
   -0.1195   -4.9580   -1.0911 H   0  0  0  0  0  0  0  0  0  0  0  0
    1.1168   -6.1634   -2.9505 H   0  0  0  0  0  0  0  0  0  0  0  0
   -0.6552   -6.4463   -2.9542 H   0  0  0  0  0  0  0  0  0  0  0  0
    0.0818   -5.3023   -4.1439 H   0  0  0  0  0  0  0  0  0  0  0  0
   -2.6589   -2.6798   -1.1397 H   0  0  0  0  0  0  0  0  0  0  0  0
   -4.0098   -4.3255   -0.3153 H   0  0  0  0  0  0  0  0  0  0  0  0
   -3.1698   -6.4525    0.4008 H   0  0  0  0  0  0  0  0  0  0  0  0
   -1.8040   -6.4171   -0.7496 H   0  0  0  0  0  0  0  0  0  0  0  0
   -1.8530   -5.2643    0.6490 H   0  0  0  0  0  0  0  0  0  0  0  0
   -5.5324   -5.2614   -3.4677 H   0  0  0  0  0  0  0  0  0  0  0  0
   -6.2556   -4.3999   -0.7902 H   0  0  0  0  0  0  0  0  0  0  0  0
   -7.1621   -6.8270   -0.0768 H   0  0  0  0  0  0  0  0  0  0  0  0
   -5.9515   -7.4400   -1.2476 H   0  0  0  0  0  0  0  0  0  0  0  0
   -5.4311   -6.4500    0.1687 H   0  0  0  0  0  0  0  0  0  0  0  0
   -9.8119   -5.2170   -1.8152 H   0  0  0  0  0  0  0  0  0  0  0  0
   -8.3348   -3.0885   -0.4496 H   0  0  0  0  0  0  0  0  0  0  0  0
   -7.4615   -4.8086    1.0834 H   0  0  0  0  0  0  0  0  0  0  0  0
   -8.7567   -3.9640    1.9327 H   0  0  0  0  0  0  0  0  0  0  0  0
   -9.0949   -5.5868    1.2204 H   0  0  0  0  0  0  0  0  0  0  0  0
  -11.7268   -1.8120   -0.0746 H   0  0  0  0  0  0  0  0  0  0  0  0
   -8.9412   -1.4763    1.0844 H   0  0  0  0  0  0  0  0  0  0  0  0
   -9.9600   -1.0087    3.2856 H   0  0  0  0  0  0  0  0  0  0  0  0
  -10.4411   -2.6629    2.7518 H   0  0  0  0  0  0  0  0  0  0  0  0
  -11.6145   -1.3211    2.6335 H   0  0  0  0  0  0  0  0  0  0  0  0
   -8.3058    0.6582    0.1073 H   0  0  0  0  0  0  0  0  0  0  0  0
   -7.9114    2.6786    1.1000 H   0  0  0  0  0  0  0  0  0  0  0  0
   -8.8374    3.0777    3.3498 H   0  0  0  0  0  0  0  0  0  0  0  0
  -10.1551    1.8842    3.0628 H   0  0  0  0  0  0  0  0  0  0  0  0
   -8.4367    1.3346    3.1525 H   0  0  0  0  0  0  0  0  0  0  0  0
  -10.6013    5.4005    1.1209 H   0  0  0  0  0  0  0  0  0  0  0  0
   -7.8074    4.7571    2.0649 H   0  0  0  0  0  0  0  0  0  0  0  0
   -9.1596    6.4812    3.2326 H   0  0  0  0  0  0  0  0  0  0  0  0
   -7.6498    7.1565    2.5148 H   0  0  0  0  0  0  0  0  0  0  0  0
   -9.2421    7.4592    1.7152 H   0  0  0  0  0  0  0  0  0  0  0  0
   -5.8156    5.2638    0.8185 H   0  0  0  0  0  0  0  0  0  0  0  0
   -6.3402    6.4740   -1.9352 H   0  0  0  0  0  0  0  0  0  0  0  0
   -4.7219    4.8108   -2.8515 H   0  0  0  0  0  0  0  0  0  0  0  0
   -4.6918    3.9747   -1.2403 H   0  0  0  0  0  0  0  0  0  0  0  0
   -6.2145    4.0569   -2.1965 H   0  0  0  0  0  0  0  0  0  0  0  0
   -2.9110    5.4527   -1.4097 H   0  0  0  0  0  0  0  0  0  0  0  0
   -2.1223    8.2042   -0.7195 H   0  0  0  0  0  0  0  0  0  0  0  0
   -3.0353    6.0875    2.8193 H   0  0  0  0  0  0  0  0  0  0  0  0
   -2.9275    5.1161    1.3110 H   0  0  0  0  0  0  0  0  0  0  0  0
    0.1132    7.3304   -0.4700 H   0  0  0  0  0  0  0  0  0  0  0  0
   -0.6471    6.6930   -1.9434 H   0  0  0  0  0  0  0  0  0  0  0  0
    0.6112    4.9633   -2.5046 H   0  0  0  0  0  0  0  0  0  0  0  0
   -0.7457    3.7983   -2.3071 H   0  0  0  0  0  0  0  0  0  0  0  0
  1  2  1  0
  2  3  2  0
  2  4  1  0
  4  5  1  0
  5  6  1  0
  6  7  1  0
  7  8  1  0
  8  9  1  0
  9 10  1  0
 10 11  2  0
 11 12  1  0
 12 13  2  0
 13 14  1  0
 13 15  1  0
 15 16  1  0
 16 17  1  0
 17 18  1  0
 18 19  1  0
 19 20  1  0
 20 21  2  0
 20 22  1  0
 22 23  1  0
 22 24  1  0
 24 25  1  0
 25 26  2  0
 25 27  1  0
 27 28  1  0
 27 29  1  0
 29 30  1  0
 30 31  2  0
 30 32  1  0
 32 33  1  0
 32 34  1  0
 34 35  1  0
 35 36  2  0
 35 37  1  0
 37 38  1  0
 37 39  1  0
 39 40  1  0
 40 41  2  0
 40 42  1  0
 42 43  1  0
 42 44  1  0
 44 45  1  0
 45 46  2  0
 18 47  1  0
 47 48  2  0
 47 49  1  0
 49 50  1  0
 50 51  1  0
 50 52  1  0
 52 53  2  0
 52 54  1  0
 54 55  1  0
 55 56  1  0
 55 57  1  0
 57 58  2  0
 57 59  1  0
 59 60  1  0
 60 61  1  0
 60 62  1  0
 62 63  2  0
 62 64  1  0
 64 65  1  0
 65 66  1  0
 65 67  1  0
 67 68  2  0
 67 69  1  0
 69 70  1  0
 70 71  1  0
 70 72  1  0
 72 73  2  0
 72 74  1  0
 74 75  1  0
 75 76  1  0
 75 77  1  0
 77 78  2  0
 77 79  1  0
 79 80  1  0
 80 81  1  0
 80 82  1  0
 82 83  2  0
 82 84  1  0
 84 85  1  0
 85 86  1  0
 85 87  1  0
 87 88  2  0
 87 89  1  0
 89 90  1  0
 90 91  1  0
 91 92  1  0
 91 93  2  0
 90 94  1  0
 94 95  1  0
 95 96  1  0
 45  5  1  0
 14  9  2  0
 96 11  1  0
  1 97  1  0
  1 98  1  0
  1 99  1  0
  4100  1  0
  5101  1  6
  6102  1  0
  6103  1  0
  8104  1  0
  8105  1  0
 10106  1  0
 12107  1  0
 14108  1  0
 15109  1  0
 15110  1  0
 17111  1  0
 17112  1  0
 18113  1  1
 19114  1  0
 22115  1  1
 23116  1  0
 23117  1  0
 23118  1  0
 24119  1  0
 27120  1  1
 28121  1  0
 28122  1  0
 28123  1  0
 29124  1  0
 32125  1  1
 33126  1  0
 33127  1  0
 33128  1  0
 34129  1  0
 37130  1  1
 38131  1  0
 38132  1  0
 38133  1  0
 39134  1  0
 42135  1  1
 43136  1  0
 43137  1  0
 43138  1  0
 44139  1  0
 49140  1  0
 50141  1  1
 51142  1  0
 51143  1  0
 51144  1  0
 54145  1  0
 55146  1  1
 56147  1  0
 56148  1  0
 56149  1  0
 59150  1  0
 60151  1  1
 61152  1  0
 61153  1  0
 61154  1  0
 64155  1  0
 65156  1  6
 66157  1  0
 66158  1  0
 66159  1  0
 69160  1  0
 70161  1  1
 71162  1  0
 71163  1  0
 71164  1  0
 74165  1  0
 75166  1  1
 76167  1  0
 76168  1  0
 76169  1  0
 79170  1  0
 80171  1  1
 81172  1  0
 81173  1  0
 81174  1  0
 84175  1  0
 85176  1  6
 86177  1  0
 86178  1  0
 86179  1  0
 89180  1  0
 90181  1  6
 92182  1  0
 92183  1  0
 94184  1  0
 94185  1  0
 96186  1  0
 96187  1  0
M  END
