
     RDKit          3D

177179  0  0  0  0  0  0  0  0999 V2000
    9.0472   -7.7471   -0.6452 C   0  0  0  0  0  0  0  0  0  0  0  0
    8.5810   -6.8117    0.4234 C   0  0  0  0  0  0  0  0  0  0  0  0
    9.1542   -6.8121    1.5462 O   0  0  0  0  0  0  0  0  0  0  0  0
    7.5079   -5.8977    0.1541 N   0  0  0  0  0  0  0  0  0  0  0  0
    7.1477   -4.8175    1.0843 C   0  0  2  0  0  0  0  0  0  0  0  0
    5.8968   -4.0505    0.6125 C   0  0  0  0  0  0  0  0  0  0  0  0
    4.3815   -4.9011    1.1972 S   0  0  0  0  0  0  0  0  0  0  0  0
    3.5717   -3.4997    2.0802 C   0  0  0  0  0  0  0  0  0  0  0  0
    2.3012   -3.0283    1.4085 C   0  0  0  0  0  0  0  0  0  0  0  0
    1.8880   -1.6929    1.5683 C   0  0  0  0  0  0  0  0  0  0  0  0
    0.6678   -1.2530    1.0290 C   0  0  0  0  0  0  0  0  0  0  0  0
   -0.1252   -2.1422    0.2931 C   0  0  0  0  0  0  0  0  0  0  0  0
    0.2786   -3.4671    0.1106 C   0  0  0  0  0  0  0  0  0  0  0  0
    1.4709   -3.9158    0.6972 C   0  0  0  0  0  0  0  0  0  0  0  0
   -0.5902   -4.4162   -0.6651 C   0  0  0  0  0  0  0  0  0  0  0  0
   -1.9179   -5.0451    0.4191 S   0  0  0  0  0  0  0  0  0  0  0  0
   -2.9189   -5.7573   -0.9428 C   0  0  0  0  0  0  0  0  0  0  0  0
   -4.3368   -6.1524   -0.4968 C   0  0  1  0  0  0  0  0  0  0  0  0
   -4.3243   -7.3095    0.4678 C   0  0  0  0  0  0  0  0  0  0  0  0
   -4.6829   -8.6176    0.0224 N   0  0  0  0  0  0  0  0  0  0  0  0
   -3.9857   -7.1342    1.6690 O   0  0  0  0  0  0  0  0  0  0  0  0
   -5.0275   -5.0035    0.0928 N   0  0  0  0  0  0  0  0  0  0  0  0
   -6.0611   -4.2876   -0.5890 C   0  0  0  0  0  0  0  0  0  0  0  0
   -5.9507   -3.0391   -0.6943 O   0  0  0  0  0  0  0  0  0  0  0  0
   -7.3141   -5.0013   -1.0602 C   0  0  1  0  0  0  0  0  0  0  0  0
   -8.1724   -5.4369    0.1274 C   0  0  0  0  0  0  0  0  0  0  0  0
   -8.0909   -4.2296   -2.0462 N   0  0  0  0  0  0  0  0  0  0  0  0
   -8.4393   -2.8378   -1.9522 C   0  0  0  0  0  0  0  0  0  0  0  0
   -7.8388   -2.0145   -2.6944 O   0  0  0  0  0  0  0  0  0  0  0  0
   -9.5402   -2.3242   -1.0486 C   0  0  1  0  0  0  0  0  0  0  0  0
  -10.7113   -3.3103   -0.9353 C   0  0  0  0  0  0  0  0  0  0  0  0
   -8.9971   -1.9698    0.2709 N   0  0  0  0  0  0  0  0  0  0  0  0
   -9.6333   -1.1331    1.2557 C   0  0  0  0  0  0  0  0  0  0  0  0
   -9.0752   -0.9950    2.3749 O   0  0  0  0  0  0  0  0  0  0  0  0
  -10.9583   -0.4481    1.0276 C   0  0  1  0  0  0  0  0  0  0  0  0
  -12.0436   -1.1595    1.8440 C   0  0  0  0  0  0  0  0  0  0  0  0
  -10.8768    0.9656    1.4250 N   0  0  0  0  0  0  0  0  0  0  0  0
  -10.1692    1.9888    0.6966 C   0  0  0  0  0  0  0  0  0  0  0  0
  -10.2907    3.1847    1.0745 O   0  0  0  0  0  0  0  0  0  0  0  0
   -9.2854    1.6896   -0.4969 C   0  0  1  0  0  0  0  0  0  0  0  0
   -9.6344    2.5863   -1.6856 C   0  0  0  0  0  0  0  0  0  0  0  0
   -7.8689    1.8170   -0.1475 N   0  0  0  0  0  0  0  0  0  0  0  0
   -7.2766    3.0579    0.2496 C   0  0  0  0  0  0  0  0  0  0  0  0
   -7.4619    3.4887    1.4183 O   0  0  0  0  0  0  0  0  0  0  0  0
   -6.4034    3.8104   -0.7216 C   0  0  1  0  0  0  0  0  0  0  0  0
   -6.5031    5.3318   -0.5641 C   0  0  0  0  0  0  0  0  0  0  0  0
   -5.0159    3.3313   -0.6824 N   0  0  0  0  0  0  0  0  0  0  0  0
   -4.2095    3.1741    0.4985 C   0  0  0  0  0  0  0  0  0  0  0  0
   -3.5493    2.1059    0.6307 O   0  0  0  0  0  0  0  0  0  0  0  0
   -4.0865    4.2641    1.5451 C   0  0  1  0  0  0  0  0  0  0  0  0
   -3.2393    3.8534    2.7562 C   0  0  0  0  0  0  0  0  0  0  0  0
   -3.5955    5.5244    0.9705 N   0  0  0  0  0  0  0  0  0  0  0  0
   -2.2735    5.7891    0.4604 C   0  0  0  0  0  0  0  0  0  0  0  0
   -1.8645    6.9829    0.4454 O   0  0  0  0  0  0  0  0  0  0  0  0
   -1.4101    4.7238   -0.1686 C   0  0  1  0  0  0  0  0  0  0  0  0
   -1.7051    4.6315   -1.6675 C   0  0  0  0  0  0  0  0  0  0  0  0
    0.0092    5.0267    0.0329 N   0  0  0  0  0  0  0  0  0  0  0  0
    0.8681    4.1232    0.7375 C   0  0  0  0  0  0  0  0  0  0  0  0
    0.6373    3.8732    1.9547 O   0  0  0  0  0  0  0  0  0  0  0  0
    2.0685    3.5003    0.0583 C   0  0  1  0  0  0  0  0  0  0  0  0
    2.1231    1.9825    0.3136 C   0  0  0  0  0  0  0  0  0  0  0  0
    0.5874    1.1515   -0.2781 S   0  0  0  0  0  0  0  0  0  0  0  0
    0.2160    0.1686    1.2209 C   0  0  0  0  0  0  0  0  0  0  0  0
    2.0269    3.7581   -1.3876 N   0  0  0  0  0  0  0  0  0  0  0  0
    2.8103    4.7663   -2.0419 C   0  0  0  0  0  0  0  0  0  0  0  0
    2.2731    5.4357   -2.9670 O   0  0  0  0  0  0  0  0  0  0  0  0
    4.2480    5.0348   -1.6548 C   0  0  1  0  0  0  0  0  0  0  0  0
    5.0288    5.6011   -2.8498 C   0  0  0  0  0  0  0  0  0  0  0  0
    4.3021    5.9664   -0.5229 N   0  0  0  0  0  0  0  0  0  0  0  0
    5.3381    5.9720    0.4756 C   0  0  0  0  0  0  0  0  0  0  0  0
    5.0771    6.4774    1.6028 O   0  0  0  0  0  0  0  0  0  0  0  0
    6.7604    5.5303    0.1775 C   0  0  1  0  0  0  0  0  0  0  0  0
    7.5952    6.7646   -0.2002 C   0  0  0  0  0  0  0  0  0  0  0  0
    7.3664    4.8646    1.3427 N   0  0  0  0  0  0  0  0  0  0  0  0
    8.5354    4.0215    1.2854 C   0  0  0  0  0  0  0  0  0  0  0  0
    9.0028    3.5724    2.3679 O   0  0  0  0  0  0  0  0  0  0  0  0
    9.1885    3.6013   -0.0166 C   0  0  1  0  0  0  0  0  0  0  0  0
   10.7108    3.7841    0.0611 C   0  0  0  0  0  0  0  0  0  0  0  0
    8.7556    2.2348   -0.3474 N   0  0  0  0  0  0  0  0  0  0  0  0
    9.5215    1.0232   -0.1738 C   0  0  0  0  0  0  0  0  0  0  0  0
   10.7704    1.0201   -0.3290 O   0  0  0  0  0  0  0  0  0  0  0  0
    8.8312   -0.2758    0.1619 C   0  0  1  0  0  0  0  0  0  0  0  0
    7.9711   -0.1309    1.4194 C   0  0  0  0  0  0  0  0  0  0  0  0
    8.0035   -0.7151   -0.9641 N   0  0  0  0  0  0  0  0  0  0  0  0
    7.7784   -2.0856   -1.3594 C   0  0  0  0  0  0  0  0  0  0  0  0
    6.7469   -2.3385   -2.0414 O   0  0  0  0  0  0  0  0  0  0  0  0
    8.7800   -3.2095   -1.1549 C   0  0  1  0  0  0  0  0  0  0  0  0
   10.0254   -2.9523   -2.0119 C   0  0  0  0  0  0  0  0  0  0  0  0
    9.1599   -3.3913    0.2570 N   0  0  0  0  0  0  0  0  0  0  0  0
    8.3172   -3.8834    1.3125 C   0  0  0  0  0  0  0  0  0  0  0  0
    8.6188   -3.5931    2.5009 O   0  0  0  0  0  0  0  0  0  0  0  0
    9.3664   -7.1650   -1.5337 H   0  0  0  0  0  0  0  0  0  0  0  0
    9.9042   -8.3550   -0.2860 H   0  0  0  0  0  0  0  0  0  0  0  0
    8.2149   -8.4236   -0.9352 H   0  0  0  0  0  0  0  0  0  0  0  0
    6.9806   -6.0132   -0.7411 H   0  0  0  0  0  0  0  0  0  0  0  0
    6.9094   -5.2865    2.0698 H   0  0  0  0  0  0  0  0  0  0  0  0
    5.8460   -4.0361   -0.4950 H   0  0  0  0  0  0  0  0  0  0  0  0
    5.9424   -2.9961    0.9486 H   0  0  0  0  0  0  0  0  0  0  0  0
    3.3097   -3.8489    3.1012 H   0  0  0  0  0  0  0  0  0  0  0  0
    4.2602   -2.6426    2.2189 H   0  0  0  0  0  0  0  0  0  0  0  0
    2.5021   -1.0007    2.1318 H   0  0  0  0  0  0  0  0  0  0  0  0
   -1.0634   -1.8015   -0.1328 H   0  0  0  0  0  0  0  0  0  0  0  0
    1.7401   -4.9579    0.6004 H   0  0  0  0  0  0  0  0  0  0  0  0
    0.0032   -5.2738   -1.0504 H   0  0  0  0  0  0  0  0  0  0  0  0
   -1.0182   -3.8809   -1.5395 H   0  0  0  0  0  0  0  0  0  0  0  0
   -2.3931   -6.6413   -1.3605 H   0  0  0  0  0  0  0  0  0  0  0  0
   -3.0207   -5.0031   -1.7540 H   0  0  0  0  0  0  0  0  0  0  0  0
   -4.8645   -6.4770   -1.4166 H   0  0  0  0  0  0  0  0  0  0  0  0
   -4.9073   -8.7949   -0.9791 H   0  0  0  0  0  0  0  0  0  0  0  0
   -4.6861   -9.4224    0.6861 H   0  0  0  0  0  0  0  0  0  0  0  0
   -4.6145   -4.5468    0.9377 H   0  0  0  0  0  0  0  0  0  0  0  0
   -7.0004   -5.9389   -1.5623 H   0  0  0  0  0  0  0  0  0  0  0  0
   -8.4429   -4.5752    0.7684 H   0  0  0  0  0  0  0  0  0  0  0  0
   -9.0922   -5.9415   -0.2349 H   0  0  0  0  0  0  0  0  0  0  0  0
   -7.6100   -6.1626    0.7520 H   0  0  0  0  0  0  0  0  0  0  0  0
   -8.1335   -4.6361   -3.0098 H   0  0  0  0  0  0  0  0  0  0  0  0
   -9.9279   -1.4147   -1.5447 H   0  0  0  0  0  0  0  0  0  0  0  0
  -11.6480   -2.7640   -0.7091 H   0  0  0  0  0  0  0  0  0  0  0  0
  -10.8695   -3.8492   -1.8943 H   0  0  0  0  0  0  0  0  0  0  0  0
  -10.5440   -4.0458   -0.1283 H   0  0  0  0  0  0  0  0  0  0  0  0
   -8.0463   -2.3156    0.5241 H   0  0  0  0  0  0  0  0  0  0  0  0
  -11.2753   -0.4922   -0.0329 H   0  0  0  0  0  0  0  0  0  0  0  0
  -13.0319   -0.6893    1.6540 H   0  0  0  0  0  0  0  0  0  0  0  0
  -12.1091   -2.2305    1.5635 H   0  0  0  0  0  0  0  0  0  0  0  0
  -11.8226   -1.0952    2.9326 H   0  0  0  0  0  0  0  0  0  0  0  0
  -11.3694    1.2698    2.2957 H   0  0  0  0  0  0  0  0  0  0  0  0
   -9.4542    0.6564   -0.8389 H   0  0  0  0  0  0  0  0  0  0  0  0
   -9.4852    3.6596   -1.4373 H   0  0  0  0  0  0  0  0  0  0  0  0
  -10.6931    2.4308   -1.9833 H   0  0  0  0  0  0  0  0  0  0  0  0
   -8.9906    2.3306   -2.5541 H   0  0  0  0  0  0  0  0  0  0  0  0
   -7.2286    1.0101   -0.3400 H   0  0  0  0  0  0  0  0  0  0  0  0
   -6.7965    3.5905   -1.7399 H   0  0  0  0  0  0  0  0  0  0  0  0
   -5.7443    5.8325   -1.2017 H   0  0  0  0  0  0  0  0  0  0  0  0
   -6.3686    5.6542    0.4871 H   0  0  0  0  0  0  0  0  0  0  0  0
   -7.5118    5.6694   -0.8854 H   0  0  0  0  0  0  0  0  0  0  0  0
   -4.6837    2.8173   -1.5296 H   0  0  0  0  0  0  0  0  0  0  0  0
   -5.1060    4.4400    1.9498 H   0  0  0  0  0  0  0  0  0  0  0  0
   -3.7201    3.0017    3.2837 H   0  0  0  0  0  0  0  0  0  0  0  0
   -2.2154    3.5444    2.4599 H   0  0  0  0  0  0  0  0  0  0  0  0
   -3.1591    4.7007    3.4673 H   0  0  0  0  0  0  0  0  0  0  0  0
   -4.2051    6.3611    1.1130 H   0  0  0  0  0  0  0  0  0  0  0  0
   -1.6313    3.7368    0.2788 H   0  0  0  0  0  0  0  0  0  0  0  0
   -2.7822    4.4467   -1.8446 H   0  0  0  0  0  0  0  0  0  0  0  0
   -1.4184    5.5749   -2.1799 H   0  0  0  0  0  0  0  0  0  0  0  0
   -1.1295    3.7963   -2.1136 H   0  0  0  0  0  0  0  0  0  0  0  0
    0.4404    5.8257   -0.4839 H   0  0  0  0  0  0  0  0  0  0  0  0
    2.9797    3.9482    0.5030 H   0  0  0  0  0  0  0  0  0  0  0  0
    2.9880    1.5452   -0.2314 H   0  0  0  0  0  0  0  0  0  0  0  0
    2.3124    1.8058    1.3918 H   0  0  0  0  0  0  0  0  0  0  0  0
    0.6468    0.6035    2.1473 H   0  0  0  0  0  0  0  0  0  0  0  0
   -0.8883    0.1842    1.3615 H   0  0  0  0  0  0  0  0  0  0  0  0
    1.2235    3.3663   -1.9298 H   0  0  0  0  0  0  0  0  0  0  0  0
    4.6973    4.0608   -1.3631 H   0  0  0  0  0  0  0  0  0  0  0  0
    4.6462    6.6070   -3.1252 H   0  0  0  0  0  0  0  0  0  0  0  0
    4.9323    4.9234   -3.7252 H   0  0  0  0  0  0  0  0  0  0  0  0
    6.1065    5.6973   -2.6214 H   0  0  0  0  0  0  0  0  0  0  0  0
    3.4703    6.5764   -0.3453 H   0  0  0  0  0  0  0  0  0  0  0  0
    6.7444    4.8154   -0.6623 H   0  0  0  0  0  0  0  0  0  0  0  0
    7.2342    7.1937   -1.1578 H   0  0  0  0  0  0  0  0  0  0  0  0
    8.6670    6.5026   -0.3108 H   0  0  0  0  0  0  0  0  0  0  0  0
    7.5103    7.5413    0.5869 H   0  0  0  0  0  0  0  0  0  0  0  0
    7.0093    5.0935    2.2956 H   0  0  0  0  0  0  0  0  0  0  0  0
    8.8722    4.2608   -0.8438 H   0  0  0  0  0  0  0  0  0  0  0  0
   10.9556    4.8530    0.2465 H   0  0  0  0  0  0  0  0  0  0  0  0
   11.1875    3.4904   -0.9020 H   0  0  0  0  0  0  0  0  0  0  0  0
   11.1459    3.1871    0.8923 H   0  0  0  0  0  0  0  0  0  0  0  0
    7.7367    2.1362   -0.5674 H   0  0  0  0  0  0  0  0  0  0  0  0
    9.6197   -1.0114    0.3761 H   0  0  0  0  0  0  0  0  0  0  0  0
    7.4580   -1.0873    1.6381 H   0  0  0  0  0  0  0  0  0  0  0  0
    8.6075    0.1279    2.2898 H   0  0  0  0  0  0  0  0  0  0  0  0
    7.1986    0.6558    1.2899 H   0  0  0  0  0  0  0  0  0  0  0  0
    7.3475   -0.0137   -1.3820 H   0  0  0  0  0  0  0  0  0  0  0  0
    8.3375   -4.1571   -1.5291 H   0  0  0  0  0  0  0  0  0  0  0  0
   10.5257   -2.0083   -1.7123 H   0  0  0  0  0  0  0  0  0  0  0  0
   10.7415   -3.7916   -1.8912 H   0  0  0  0  0  0  0  0  0  0  0  0
    9.7422   -2.8825   -3.0837 H   0  0  0  0  0  0  0  0  0  0  0  0
   10.1460   -3.1761    0.5322 H   0  0  0  0  0  0  0  0  0  0  0  0
  1  2  1  0
  2  3  2  0
  2  4  1  0
  4  5  1  0
  5  6  1  0
  6  7  1  0
  7  8  1  0
  8  9  1  0
  9 10  1  0
 10 11  2  0
 11 12  1  0
 12 13  2  0
 13 14  1  0
 13 15  1  0
 15 16  1  0
 16 17  1  0
 17 18  1  0
 18 19  1  0
 19 20  1  0
 19 21  2  0
 18 22  1  0
 22 23  1  0
 23 24  2  0
 23 25  1  0
 25 26  1  0
 25 27  1  0
 27 28  1  0
 28 29  2  0
 28 30  1  0
 30 31  1  0
 30 32  1  0
 32 33  1  0
 33 34  2  0
 33 35  1  0
 35 36  1  0
 35 37  1  0
 37 38  1  0
 38 39  2  0
 38 40  1  0
 40 41  1  0
 40 42  1  0
 42 43  1  0
 43 44  2  0
 43 45  1  0
 45 46  1  0
 45 47  1  0
 47 48  1  0
 48 49  2  0
 48 50  1  0
 50 51  1  0
 50 52  1  0
 52 53  1  0
 53 54  2  0
 53 55  1  0
 55 56  1  0
 55 57  1  0
 57 58  1  0
 58 59  2  0
 58 60  1  0
 60 61  1  0
 61 62  1  0
 62 63  1  0
 60 64  1  0
 64 65  1  0
 65 66  2  0
 65 67  1  0
 67 68  1  0
 67 69  1  0
 69 70  1  0
 70 71  2  0
 70 72  1  0
 72 73  1  0
 72 74  1  0
 74 75  1  0
 75 76  2  0
 75 77  1  0
 77 78  1  0
 77 79  1  0
 79 80  1  0
 80 81  2  0
 80 82  1  0
 82 83  1  0
 82 84  1  0
 84 85  1  0
 85 86  2  0
 85 87  1  0
 87 88  1  0
 87 89  1  0
 89 90  1  0
 90 91  2  0
 90  5  1  0
 14  9  2  0
 63 11  1  0
  1 92  1  0
  1 93  1  0
  1 94  1  0
  4 95  1  0
  5 96  1  1
  6 97  1  0
  6 98  1  0
  8 99  1  0
  8100  1  0
 10101  1  0
 12102  1  0
 14103  1  0
 15104  1  0
 15105  1  0
 17106  1  0
 17107  1  0
 18108  1  6
 20109  1  0
 20110  1  0
 22111  1  0
 25112  1  6
 26113  1  0
 26114  1  0
 26115  1  0
 27116  1  0
 30117  1  6
 31118  1  0
 31119  1  0
 31120  1  0
 32121  1  0
 35122  1  6
 36123  1  0
 36124  1  0
 36125  1  0
 37126  1  0
 40127  1  6
 41128  1  0
 41129  1  0
 41130  1  0
 42131  1  0
 45132  1  6
 46133  1  0
 46134  1  0
 46135  1  0
 47136  1  0
 50137  1  1
 51138  1  0
 51139  1  0
 51140  1  0
 52141  1  0
 55142  1  1
 56143  1  0
 56144  1  0
 56145  1  0
 57146  1  0
 60147  1  1
 61148  1  0
 61149  1  0
 63150  1  0
 63151  1  0
 64152  1  0
 67153  1  1
 68154  1  0
 68155  1  0
 68156  1  0
 69157  1  0
 72158  1  6
 73159  1  0
 73160  1  0
 73161  1  0
 74162  1  0
 77163  1  6
 78164  1  0
 78165  1  0
 78166  1  0
 79167  1  0
 82168  1  1
 83169  1  0
 83170  1  0
 83171  1  0
 84172  1  0
 87173  1  6
 88174  1  0
 88175  1  0
 88176  1  0
 89177  1  0
M  END
