
     RDKit          3D

177179  0  0  0  0  0  0  0  0999 V2000
    6.7801    7.1342    0.0483 C   0  0  0  0  0  0  0  0  0  0  0  0
    6.5771    6.8770    1.5080 C   0  0  0  0  0  0  0  0  0  0  0  0
    6.4012    7.8680    2.2697 O   0  0  0  0  0  0  0  0  0  0  0  0
    6.5398    5.5518    2.0668 N   0  0  0  0  0  0  0  0  0  0  0  0
    7.1796    4.3422    1.5143 C   0  0  1  0  0  0  0  0  0  0  0  0
    6.4676    3.8175    0.2561 C   0  0  0  0  0  0  0  0  0  0  0  0
    4.6898    3.5730    0.5788 S   0  0  0  0  0  0  0  0  0  0  0  0
    4.2601    3.1492   -1.1412 C   0  0  0  0  0  0  0  0  0  0  0  0
    2.7762    2.9335   -1.2216 C   0  0  0  0  0  0  0  0  0  0  0  0
    1.9212    4.0068   -1.5150 C   0  0  0  0  0  0  0  0  0  0  0  0
    0.5257    3.8357   -1.4818 C   0  0  0  0  0  0  0  0  0  0  0  0
   -0.0064    2.5674   -1.1889 C   0  0  0  0  0  0  0  0  0  0  0  0
    0.8432    1.4826   -0.9210 C   0  0  0  0  0  0  0  0  0  0  0  0
    2.2352    1.6723   -0.9398 C   0  0  0  0  0  0  0  0  0  0  0  0
    0.2742    0.1158   -0.6491 C   0  0  0  0  0  0  0  0  0  0  0  0
   -0.0393   -0.7366   -2.2320 S   0  0  0  0  0  0  0  0  0  0  0  0
   -0.8082   -2.2473   -1.5311 C   0  0  0  0  0  0  0  0  0  0  0  0
    0.2524   -3.2679   -1.0726 C   0  0  1  0  0  0  0  0  0  0  0  0
    0.7062   -2.9830    0.2980 N   0  0  0  0  0  0  0  0  0  0  0  0
    1.9999   -3.3356    0.8146 C   0  0  0  0  0  0  0  0  0  0  0  0
    2.4093   -2.7688    1.8655 O   0  0  0  0  0  0  0  0  0  0  0  0
    2.8986   -4.3391    0.1356 C   0  0  1  0  0  0  0  0  0  0  0  0
    3.9381   -3.6213   -0.7329 C   0  0  0  0  0  0  0  0  0  0  0  0
    3.4782   -5.2313    1.1520 N   0  0  0  0  0  0  0  0  0  0  0  0
    4.8546   -5.6227    1.2410 C   0  0  0  0  0  0  0  0  0  0  0  0
    5.1507   -6.8470    1.1422 O   0  0  0  0  0  0  0  0  0  0  0  0
    5.9398   -4.6359    1.6091 C   0  0  1  0  0  0  0  0  0  0  0  0
    6.5067   -4.9987    2.9886 C   0  0  0  0  0  0  0  0  0  0  0  0
    6.9839   -4.6271    0.5712 N   0  0  0  0  0  0  0  0  0  0  0  0
    8.1580   -3.8083    0.6610 C   0  0  0  0  0  0  0  0  0  0  0  0
    8.9491   -3.9598    1.6369 O   0  0  0  0  0  0  0  0  0  0  0  0
    8.5271   -2.7990   -0.4035 C   0  0  1  0  0  0  0  0  0  0  0  0
    7.6227   -2.8347   -1.6398 C   0  0  0  0  0  0  0  0  0  0  0  0
    8.4932   -1.4565    0.1799 N   0  0  0  0  0  0  0  0  0  0  0  0
    9.6919   -0.7838    0.5742 C   0  0  0  0  0  0  0  0  0  0  0  0
   10.0855   -0.8727    1.7700 O   0  0  0  0  0  0  0  0  0  0  0  0
   10.4838    0.0330   -0.4061 C   0  0  1  0  0  0  0  0  0  0  0  0
   11.3276   -0.8526   -1.3251 C   0  0  0  0  0  0  0  0  0  0  0  0
    9.5781    0.8603   -1.2183 N   0  0  0  0  0  0  0  0  0  0  0  0
    9.6042    2.2939   -1.2648 C   0  0  0  0  0  0  0  0  0  0  0  0
    9.1596    2.8765   -2.2940 O   0  0  0  0  0  0  0  0  0  0  0  0
   10.1459    3.1243   -0.1232 C   0  0  1  0  0  0  0  0  0  0  0  0
   11.5847    3.5648   -0.4111 C   0  0  0  0  0  0  0  0  0  0  0  0
    9.3027    4.3021    0.0760 N   0  0  0  0  0  0  0  0  0  0  0  0
    8.6612    4.5542    1.3270 C   0  0  0  0  0  0  0  0  0  0  0  0
    9.3569    4.9331    2.3086 O   0  0  0  0  0  0  0  0  0  0  0  0
   -0.2804   -4.6763   -1.1735 C   0  0  0  0  0  0  0  0  0  0  0  0
   -0.2685   -5.2513   -2.2967 O   0  0  0  0  0  0  0  0  0  0  0  0
   -0.7089   -5.4175   -0.0267 N   0  0  0  0  0  0  0  0  0  0  0  0
   -1.7830   -4.9337    0.8488 C   0  0  2  0  0  0  0  0  0  0  0  0
   -1.5971   -5.4972    2.2585 C   0  0  0  0  0  0  0  0  0  0  0  0
   -3.1362   -5.3305    0.3024 C   0  0  0  0  0  0  0  0  0  0  0  0
   -4.0462   -4.4576    0.2079 O   0  0  0  0  0  0  0  0  0  0  0  0
   -3.3933   -6.6827   -0.1095 N   0  0  0  0  0  0  0  0  0  0  0  0
   -4.7450   -7.2564   -0.0832 C   0  0  2  0  0  0  0  0  0  0  0  0
   -4.6676   -8.7897   -0.0596 C   0  0  0  0  0  0  0  0  0  0  0  0
   -5.5134   -6.8004   -1.3044 C   0  0  0  0  0  0  0  0  0  0  0  0
   -5.0676   -7.0968   -2.4493 O   0  0  0  0  0  0  0  0  0  0  0  0
   -6.7506   -6.0646   -1.2285 N   0  0  0  0  0  0  0  0  0  0  0  0
   -7.3799   -5.5880    0.0065 C   0  0  2  0  0  0  0  0  0  0  0  0
   -8.1746   -6.7142    0.6783 C   0  0  0  0  0  0  0  0  0  0  0  0
   -8.2805   -4.4162   -0.2931 C   0  0  0  0  0  0  0  0  0  0  0  0
   -9.4477   -4.6120   -0.7262 O   0  0  0  0  0  0  0  0  0  0  0  0
   -7.8012   -3.0797   -0.1007 N   0  0  0  0  0  0  0  0  0  0  0  0
   -8.6672   -1.9127    0.1058 C   0  0  2  0  0  0  0  0  0  0  0  0
   -9.6150   -2.1705    1.2883 C   0  0  0  0  0  0  0  0  0  0  0  0
   -9.4315   -1.5417   -1.1554 C   0  0  0  0  0  0  0  0  0  0  0  0
   -9.2731   -2.2319   -2.2024 O   0  0  0  0  0  0  0  0  0  0  0  0
  -10.3560   -0.4407   -1.1990 N   0  0  0  0  0  0  0  0  0  0  0  0
  -10.2418    0.7830   -0.3967 C   0  0  2  0  0  0  0  0  0  0  0  0
  -11.5921    1.0941    0.2399 C   0  0  0  0  0  0  0  0  0  0  0  0
   -9.8024    1.9277   -1.2817 C   0  0  0  0  0  0  0  0  0  0  0  0
  -10.4110    2.1297   -2.3656 O   0  0  0  0  0  0  0  0  0  0  0  0
   -8.6926    2.7760   -0.9499 N   0  0  0  0  0  0  0  0  0  0  0  0
   -8.3885    3.2266    0.4148 C   0  0  2  0  0  0  0  0  0  0  0  0
   -9.2705    4.4341    0.7708 C   0  0  0  0  0  0  0  0  0  0  0  0
   -6.9170    3.5316    0.5365 C   0  0  0  0  0  0  0  0  0  0  0  0
   -6.2179    2.8715    1.3514 O   0  0  0  0  0  0  0  0  0  0  0  0
   -6.2774    4.4986   -0.3070 N   0  0  0  0  0  0  0  0  0  0  0  0
   -6.2807    5.9194    0.0422 C   0  0  2  0  0  0  0  0  0  0  0  0
   -5.9538    6.7764   -1.1842 C   0  0  0  0  0  0  0  0  0  0  0  0
   -5.3569    6.1764    1.2054 C   0  0  0  0  0  0  0  0  0  0  0  0
   -5.8128    6.7659    2.2216 O   0  0  0  0  0  0  0  0  0  0  0  0
   -4.0121    5.6723    1.2460 N   0  0  0  0  0  0  0  0  0  0  0  0
   -2.9605    6.0983    0.3110 C   0  0  1  0  0  0  0  0  0  0  0  0
   -2.9097    7.6110    0.2371 C   0  0  0  0  0  0  0  0  0  0  0  0
   -2.8834    8.4023    1.4257 N   0  0  0  0  0  0  0  0  0  0  0  0
   -2.8823    8.1737   -0.8868 O   0  0  0  0  0  0  0  0  0  0  0  0
   -1.5936    5.5355    0.7562 C   0  0  0  0  0  0  0  0  0  0  0  0
   -0.2031    6.1679   -0.2522 S   0  0  0  0  0  0  0  0  0  0  0  0
   -0.3762    5.0189   -1.6613 C   0  0  0  0  0  0  0  0  0  0  0  0
    5.9587    6.6562   -0.5288 H   0  0  0  0  0  0  0  0  0  0  0  0
    7.7620    6.7398   -0.2784 H   0  0  0  0  0  0  0  0  0  0  0  0
    6.7574    8.2255   -0.1672 H   0  0  0  0  0  0  0  0  0  0  0  0
    6.1516    5.4666    3.0314 H   0  0  0  0  0  0  0  0  0  0  0  0
    7.0820    3.5331    2.2735 H   0  0  0  0  0  0  0  0  0  0  0  0
    6.6062    4.5002   -0.6067 H   0  0  0  0  0  0  0  0  0  0  0  0
    6.9037    2.8352   -0.0250 H   0  0  0  0  0  0  0  0  0  0  0  0
    4.5694    3.9690   -1.8248 H   0  0  0  0  0  0  0  0  0  0  0  0
    4.7990    2.2227   -1.4453 H   0  0  0  0  0  0  0  0  0  0  0  0
    2.3321    4.9848   -1.7017 H   0  0  0  0  0  0  0  0  0  0  0  0
   -1.0780    2.4220   -1.1675 H   0  0  0  0  0  0  0  0  0  0  0  0
    2.9001    0.8437   -0.7104 H   0  0  0  0  0  0  0  0  0  0  0  0
    0.9988   -0.4695   -0.0504 H   0  0  0  0  0  0  0  0  0  0  0  0
   -0.6665    0.2063   -0.0737 H   0  0  0  0  0  0  0  0  0  0  0  0
   -1.5116   -1.9902   -0.7135 H   0  0  0  0  0  0  0  0  0  0  0  0
   -1.4187   -2.6870   -2.3512 H   0  0  0  0  0  0  0  0  0  0  0  0
    1.1160   -3.1870   -1.7646 H   0  0  0  0  0  0  0  0  0  0  0  0
    0.1010   -2.4060    0.9183 H   0  0  0  0  0  0  0  0  0  0  0  0
    2.2984   -4.9723   -0.5445 H   0  0  0  0  0  0  0  0  0  0  0  0
    4.5053   -2.8608   -0.1510 H   0  0  0  0  0  0  0  0  0  0  0  0
    4.6333   -4.3527   -1.1943 H   0  0  0  0  0  0  0  0  0  0  0  0
    3.4332   -3.0788   -1.5594 H   0  0  0  0  0  0  0  0  0  0  0  0
    2.7928   -5.8456    1.6480 H   0  0  0  0  0  0  0  0  0  0  0  0
    5.5058   -3.6182    1.6969 H   0  0  0  0  0  0  0  0  0  0  0  0
    7.0936   -5.9447    2.9403 H   0  0  0  0  0  0  0  0  0  0  0  0
    7.1595   -4.1795    3.3641 H   0  0  0  0  0  0  0  0  0  0  0  0
    5.6785   -5.1213    3.7245 H   0  0  0  0  0  0  0  0  0  0  0  0
    6.7627   -5.0454   -0.3553 H   0  0  0  0  0  0  0  0  0  0  0  0
    9.5556   -3.0397   -0.7336 H   0  0  0  0  0  0  0  0  0  0  0  0
    6.5758   -2.5930   -1.3638 H   0  0  0  0  0  0  0  0  0  0  0  0
    7.6599   -3.8315   -2.1274 H   0  0  0  0  0  0  0  0  0  0  0  0
    7.9725   -2.0802   -2.3761 H   0  0  0  0  0  0  0  0  0  0  0  0
    7.5878   -1.1058    0.5741 H   0  0  0  0  0  0  0  0  0  0  0  0
   11.1931    0.6668    0.1589 H   0  0  0  0  0  0  0  0  0  0  0  0
   12.0011   -0.2142   -1.9352 H   0  0  0  0  0  0  0  0  0  0  0  0
   11.9498   -1.5511   -0.7251 H   0  0  0  0  0  0  0  0  0  0  0  0
   10.6815   -1.4368   -2.0149 H   0  0  0  0  0  0  0  0  0  0  0  0
    8.9374    0.3704   -1.8870 H   0  0  0  0  0  0  0  0  0  0  0  0
   10.1417    2.5195    0.8111 H   0  0  0  0  0  0  0  0  0  0  0  0
   12.2208    2.6890   -0.6569 H   0  0  0  0  0  0  0  0  0  0  0  0
   11.6127    4.2682   -1.2724 H   0  0  0  0  0  0  0  0  0  0  0  0
   12.0094    4.0718    0.4815 H   0  0  0  0  0  0  0  0  0  0  0  0
    9.1473    4.9592   -0.7230 H   0  0  0  0  0  0  0  0  0  0  0  0
   -0.4760   -6.4325    0.0027 H   0  0  0  0  0  0  0  0  0  0  0  0
   -1.7477   -3.8252    0.9222 H   0  0  0  0  0  0  0  0  0  0  0  0
   -0.5966   -5.2145    2.6462 H   0  0  0  0  0  0  0  0  0  0  0  0
   -1.6810   -6.6035    2.2559 H   0  0  0  0  0  0  0  0  0  0  0  0
   -2.3701   -5.0818    2.9419 H   0  0  0  0  0  0  0  0  0  0  0  0
   -2.5858   -7.3009   -0.3583 H   0  0  0  0  0  0  0  0  0  0  0  0
   -5.2386   -6.9529    0.8525 H   0  0  0  0  0  0  0  0  0  0  0  0
   -4.1590   -9.1324    0.8600 H   0  0  0  0  0  0  0  0  0  0  0  0
   -5.6865   -9.2307   -0.0827 H   0  0  0  0  0  0  0  0  0  0  0  0
   -4.0988   -9.1662   -0.9409 H   0  0  0  0  0  0  0  0  0  0  0  0
   -7.2735   -5.9371   -2.1270 H   0  0  0  0  0  0  0  0  0  0  0  0
   -6.6018   -5.2266    0.7123 H   0  0  0  0  0  0  0  0  0  0  0  0
   -8.9350   -7.1335   -0.0210 H   0  0  0  0  0  0  0  0  0  0  0  0
   -8.6956   -6.3204    1.5821 H   0  0  0  0  0  0  0  0  0  0  0  0
   -7.5049   -7.5423    0.9968 H   0  0  0  0  0  0  0  0  0  0  0  0
   -6.7633   -2.9279   -0.0563 H   0  0  0  0  0  0  0  0  0  0  0  0
   -8.0148   -1.0515    0.3683 H   0  0  0  0  0  0  0  0  0  0  0  0
  -10.3862   -2.9228    1.0241 H   0  0  0  0  0  0  0  0  0  0  0  0
   -9.0331   -2.5408    2.1590 H   0  0  0  0  0  0  0  0  0  0  0  0
  -10.1272   -1.2421    1.6023 H   0  0  0  0  0  0  0  0  0  0  0  0
  -11.0705   -0.4541   -1.9655 H   0  0  0  0  0  0  0  0  0  0  0  0
   -9.5063    0.6302    0.4071 H   0  0  0  0  0  0  0  0  0  0  0  0
  -12.3576    1.3298   -0.5320 H   0  0  0  0  0  0  0  0  0  0  0  0
  -11.5019    1.9637    0.9233 H   0  0  0  0  0  0  0  0  0  0  0  0
  -11.9485    0.2263    0.8255 H   0  0  0  0  0  0  0  0  0  0  0  0
   -8.3043    3.3514   -1.7343 H   0  0  0  0  0  0  0  0  0  0  0  0
   -8.6252    2.4341    1.1495 H   0  0  0  0  0  0  0  0  0  0  0  0
  -10.3212    4.1005    0.9038 H   0  0  0  0  0  0  0  0  0  0  0  0
   -8.9286    4.8963    1.7212 H   0  0  0  0  0  0  0  0  0  0  0  0
   -9.2574    5.1859   -0.0464 H   0  0  0  0  0  0  0  0  0  0  0  0
   -5.4598    4.1490   -0.8534 H   0  0  0  0  0  0  0  0  0  0  0  0
   -7.3013    6.2186    0.3548 H   0  0  0  0  0  0  0  0  0  0  0  0
   -6.7618    6.6652   -1.9392 H   0  0  0  0  0  0  0  0  0  0  0  0
   -5.8858    7.8495   -0.8983 H   0  0  0  0  0  0  0  0  0  0  0  0
   -5.0082    6.4645   -1.6649 H   0  0  0  0  0  0  0  0  0  0  0  0
   -3.7444    5.1413    2.1027 H   0  0  0  0  0  0  0  0  0  0  0  0
   -3.1836    5.6813   -0.6871 H   0  0  0  0  0  0  0  0  0  0  0  0
   -2.8853    9.4447    1.3595 H   0  0  0  0  0  0  0  0  0  0  0  0
   -2.9709    7.9642    2.3688 H   0  0  0  0  0  0  0  0  0  0  0  0
   -1.4033    5.8382    1.8071 H   0  0  0  0  0  0  0  0  0  0  0  0
   -1.6104    4.4306    0.7251 H   0  0  0  0  0  0  0  0  0  0  0  0
   -1.4327    4.7027   -1.8032 H   0  0  0  0  0  0  0  0  0  0  0  0
   -0.0759    5.5648   -2.5786 H   0  0  0  0  0  0  0  0  0  0  0  0
  1  2  1  0
  2  3  2  0
  2  4  1  0
  4  5  1  0
  5  6  1  0
  6  7  1  0
  7  8  1  0
  8  9  1  0
  9 10  1  0
 10 11  2  0
 11 12  1  0
 12 13  2  0
 13 14  1  0
 13 15  1  0
 15 16  1  0
 16 17  1  0
 17 18  1  0
 18 19  1  0
 19 20  1  0
 20 21  2  0
 20 22  1  0
 22 23  1  0
 22 24  1  0
 24 25  1  0
 25 26  2  0
 25 27  1  0
 27 28  1  0
 27 29  1  0
 29 30  1  0
 30 31  2  0
 30 32  1  0
 32 33  1  0
 32 34  1  0
 34 35  1  0
 35 36  2  0
 35 37  1  0
 37 38  1  0
 37 39  1  0
 39 40  1  0
 40 41  2  0
 40 42  1  0
 42 43  1  0
 42 44  1  0
 44 45  1  0
 45 46  2  0
 18 47  1  0
 47 48  2  0
 47 49  1  0
 49 50  1  0
 50 51  1  0
 50 52  1  0
 52 53  2  0
 52 54  1  0
 54 55  1  0
 55 56  1  0
 55 57  1  0
 57 58  2  0
 57 59  1  0
 59 60  1  0
 60 61  1  0
 60 62  1  0
 62 63  2  0
 62 64  1  0
 64 65  1  0
 65 66  1  0
 65 67  1  0
 67 68  2  0
 67 69  1  0
 69 70  1  0
 70 71  1  0
 70 72  1  0
 72 73  2  0
 72 74  1  0
 74 75  1  0
 75 76  1  0
 75 77  1  0
 77 78  2  0
 77 79  1  0
 79 80  1  0
 80 81  1  0
 80 82  1  0
 82 83  2  0
 82 84  1  0
 84 85  1  0
 85 86  1  0
 86 87  1  0
 86 88  2  0
 85 89  1  0
 89 90  1  0
 90 91  1  0
 45  5  1  0
 14  9  2  0
 91 11  1  0
  1 92  1  0
  1 93  1  0
  1 94  1  0
  4 95  1  0
  5 96  1  1
  6 97  1  0
  6 98  1  0
  8 99  1  0
  8100  1  0
 10101  1  0
 12102  1  0
 14103  1  0
 15104  1  0
 15105  1  0
 17106  1  0
 17107  1  0
 18108  1  6
 19109  1  0
 22110  1  6
 23111  1  0
 23112  1  0
 23113  1  0
 24114  1  0
 27115  1  1
 28116  1  0
 28117  1  0
 28118  1  0
 29119  1  0
 32120  1  6
 33121  1  0
 33122  1  0
 33123  1  0
 34124  1  0
 37125  1  1
 38126  1  0
 38127  1  0
 38128  1  0
 39129  1  0
 42130  1  1
 43131  1  0
 43132  1  0
 43133  1  0
 44134  1  0
 49135  1  0
 50136  1  1
 51137  1  0
 51138  1  0
 51139  1  0
 54140  1  0
 55141  1  1
 56142  1  0
 56143  1  0
 56144  1  0
 59145  1  0
 60146  1  1
 61147  1  0
 61148  1  0
 61149  1  0
 64150  1  0
 65151  1  1
 66152  1  0
 66153  1  0
 66154  1  0
 69155  1  0
 70156  1  1
 71157  1  0
 71158  1  0
 71159  1  0
 74160  1  0
 75161  1  1
 76162  1  0
 76163  1  0
 76164  1  0
 79165  1  0
 80166  1  1
 81167  1  0
 81168  1  0
 81169  1  0
 84170  1  0
 85171  1  6
 87172  1  0
 87173  1  0
 89174  1  0
 89175  1  0
 91176  1  0
 91177  1  0
M  END
