
     RDKit          3D

167169  0  0  0  0  0  0  0  0999 V2000
   -6.3897    6.8416    0.2421 C   0  0  0  0  0  0  0  0  0  0  0  0
   -5.5033    6.0932    1.1992 C   0  0  0  0  0  0  0  0  0  0  0  0
   -4.9897    6.7171    2.1634 O   0  0  0  0  0  0  0  0  0  0  0  0
   -5.2255    4.6874    1.0473 N   0  0  0  0  0  0  0  0  0  0  0  0
   -5.5862    3.8928   -0.1354 C   0  0  1  0  0  0  0  0  0  0  0  0
   -4.3241    3.5072   -0.9224 C   0  0  0  0  0  0  0  0  0  0  0  0
   -3.3041    4.9717   -1.3345 S   0  0  0  0  0  0  0  0  0  0  0  0
   -1.9147    4.0137   -2.0519 C   0  0  0  0  0  0  0  0  0  0  0  0
   -1.1312    3.3110   -0.9761 C   0  0  0  0  0  0  0  0  0  0  0  0
   -1.0227    1.9128   -0.9682 C   0  0  0  0  0  0  0  0  0  0  0  0
   -0.2951    1.2529    0.0386 C   0  0  0  0  0  0  0  0  0  0  0  0
    0.3820    2.0195    1.0013 C   0  0  0  0  0  0  0  0  0  0  0  0
    0.2939    3.4235    0.9882 C   0  0  0  0  0  0  0  0  0  0  0  0
   -0.4749    4.0653    0.0058 C   0  0  0  0  0  0  0  0  0  0  0  0
    1.1130    4.2427    1.9424 C   0  0  0  0  0  0  0  0  0  0  0  0
    2.8630    4.2864    1.4214 S   0  0  0  0  0  0  0  0  0  0  0  0
    2.6115    5.3058   -0.0982 C   0  0  0  0  0  0  0  0  0  0  0  0
    3.9401    5.7308   -0.7622 C   0  0  1  0  0  0  0  0  0  0  0  0
    4.5452    6.9792   -0.1446 C   0  0  0  0  0  0  0  0  0  0  0  0
    4.5645    7.2061    1.2662 N   0  0  0  0  0  0  0  0  0  0  0  0
    5.1018    7.8242   -0.8995 O   0  0  0  0  0  0  0  0  0  0  0  0
    4.9226    4.6418   -0.8094 N   0  0  0  0  0  0  0  0  0  0  0  0
    6.2083    4.8011   -1.4163 C   0  0  0  0  0  0  0  0  0  0  0  0
    6.3326    5.5351   -2.4344 O   0  0  0  0  0  0  0  0  0  0  0  0
    7.3918    4.0540   -0.8532 C   0  0  1  0  0  0  0  0  0  0  0  0
    8.7175    4.6559   -1.3544 C   0  0  0  0  0  0  0  0  0  0  0  0
    7.3519    4.0988    0.6126 N   0  0  0  0  0  0  0  0  0  0  0  0
    7.7874    3.0243    1.4619 C   0  0  0  0  0  0  0  0  0  0  0  0
    7.3062    2.9425    2.6237 O   0  0  0  0  0  0  0  0  0  0  0  0
    8.9092    2.0954    1.0579 C   0  0  1  0  0  0  0  0  0  0  0  0
   10.2326    2.6113    1.6374 C   0  0  0  0  0  0  0  0  0  0  0  0
    8.6672    0.7305    1.5396 N   0  0  0  0  0  0  0  0  0  0  0  0
    9.4288   -0.4243    1.1364 C   0  0  0  0  0  0  0  0  0  0  0  0
    9.4226   -1.4413    1.8872 O   0  0  0  0  0  0  0  0  0  0  0  0
   10.1403   -0.4981   -0.1943 C   0  0  1  0  0  0  0  0  0  0  0  0
   11.4632   -1.2747   -0.0971 C   0  0  0  0  0  0  0  0  0  0  0  0
    9.2396   -1.0776   -1.1961 N   0  0  0  0  0  0  0  0  0  0  0  0
    8.8294   -2.4533   -1.1862 C   0  0  0  0  0  0  0  0  0  0  0  0
    9.6965   -3.3648   -1.3057 O   0  0  0  0  0  0  0  0  0  0  0  0
    7.3651   -2.8208   -1.0788 C   0  0  1  0  0  0  0  0  0  0  0  0
    6.8769   -3.4020   -2.4056 C   0  0  0  0  0  0  0  0  0  0  0  0
    7.1925   -3.8094   -0.0084 N   0  0  0  0  0  0  0  0  0  0  0  0
    6.0409   -3.9440    0.8573 C   0  0  0  0  0  0  0  0  0  0  0  0
    5.8212   -5.0754    1.3746 O   0  0  0  0  0  0  0  0  0  0  0  0
    5.1222   -2.8046    1.2357 C   0  0  1  0  0  0  0  0  0  0  0  0
    5.9034   -1.6577    1.8887 C   0  0  0  0  0  0  0  0  0  0  0  0
    4.3445   -2.3316    0.0912 N   0  0  0  0  0  0  0  0  0  0  0  0
    3.1487   -2.9628   -0.4129 C   0  0  0  0  0  0  0  0  0  0  0  0
    2.4415   -2.3229   -1.2431 O   0  0  0  0  0  0  0  0  0  0  0  0
    2.7521   -4.3829   -0.0399 C   0  0  1  0  0  0  0  0  0  0  0  0
    2.2184   -4.5282    1.4009 C   0  0  0  0  0  0  0  0  0  0  0  0
    1.8162   -4.9694   -1.0199 N   0  0  0  0  0  0  0  0  0  0  0  0
    0.4845   -4.5193   -1.3595 C   0  0  0  0  0  0  0  0  0  0  0  0
   -0.0399   -4.9732   -2.4069 O   0  0  0  0  0  0  0  0  0  0  0  0
   -0.3485   -3.6033   -0.4900 C   0  0  1  0  0  0  0  0  0  0  0  0
   -0.9684   -2.4915   -1.3634 C   0  0  0  0  0  0  0  0  0  0  0  0
   -1.6854   -1.1031   -0.4058 S   0  0  0  0  0  0  0  0  0  0  0  0
   -0.1248   -0.2529    0.0237 C   0  0  0  0  0  0  0  0  0  0  0  0
   -1.3381   -4.4191    0.2433 N   0  0  0  0  0  0  0  0  0  0  0  0
   -2.7596   -4.4318   -0.0069 C   0  0  0  0  0  0  0  0  0  0  0  0
   -3.4337   -3.3995    0.2348 O   0  0  0  0  0  0  0  0  0  0  0  0
   -3.4801   -5.6809   -0.4635 C   0  0  1  0  0  0  0  0  0  0  0  0
   -2.5491   -6.8541   -0.7687 C   0  0  0  0  0  0  0  0  0  0  0  0
   -4.4281   -6.0977    0.5760 N   0  0  0  0  0  0  0  0  0  0  0  0
   -5.8409   -6.3127    0.3974 C   0  0  0  0  0  0  0  0  0  0  0  0
   -6.5164   -6.6818    1.3962 O   0  0  0  0  0  0  0  0  0  0  0  0
   -6.5459   -6.0723   -0.9246 C   0  0  1  0  0  0  0  0  0  0  0  0
   -7.8475   -6.8717   -1.0541 C   0  0  0  0  0  0  0  0  0  0  0  0
   -6.7859   -4.6411   -1.1444 N   0  0  0  0  0  0  0  0  0  0  0  0
   -7.2506   -3.7474   -0.1268 C   0  0  0  0  0  0  0  0  0  0  0  0
   -6.4242   -2.9626    0.4156 O   0  0  0  0  0  0  0  0  0  0  0  0
   -8.7073   -3.7051    0.2724 C   0  0  1  0  0  0  0  0  0  0  0  0
   -8.8774   -3.7327    1.7923 C   0  0  0  0  0  0  0  0  0  0  0  0
   -9.3962   -2.5450   -0.3088 N   0  0  0  0  0  0  0  0  0  0  0  0
   -9.1797   -1.1790    0.0885 C   0  0  0  0  0  0  0  0  0  0  0  0
   -8.0411   -0.8055    0.4808 O   0  0  0  0  0  0  0  0  0  0  0  0
  -10.3013   -0.1732    0.0221 C   0  0  1  0  0  0  0  0  0  0  0  0
  -10.6183    0.3218    1.4467 C   0  0  0  0  0  0  0  0  0  0  0  0
   -9.9298    0.9106   -0.8965 N   0  0  0  0  0  0  0  0  0  0  0  0
  -10.0003    2.3069   -0.5761 C   0  0  0  0  0  0  0  0  0  0  0  0
  -11.1256    2.8793   -0.5643 O   0  0  0  0  0  0  0  0  0  0  0  0
   -8.7498    3.1146   -0.2872 C   0  0  1  0  0  0  0  0  0  0  0  0
   -8.9023    3.8278    1.0658 C   0  0  0  0  0  0  0  0  0  0  0  0
   -7.5541    2.2611   -0.3084 N   0  0  0  0  0  0  0  0  0  0  0  0
   -6.3040    2.6345    0.2844 C   0  0  0  0  0  0  0  0  0  0  0  0
   -5.7468    1.8320    1.0824 O   0  0  0  0  0  0  0  0  0  0  0  0
   -7.4071    6.4061    0.2526 H   0  0  0  0  0  0  0  0  0  0  0  0
   -6.4635    7.9152    0.5338 H   0  0  0  0  0  0  0  0  0  0  0  0
   -5.9675    6.7940   -0.7834 H   0  0  0  0  0  0  0  0  0  0  0  0
   -4.6171    4.2438    1.7748 H   0  0  0  0  0  0  0  0  0  0  0  0
   -6.2457    4.4565   -0.8157 H   0  0  0  0  0  0  0  0  0  0  0  0
   -4.6188    3.0274   -1.8775 H   0  0  0  0  0  0  0  0  0  0  0  0
   -3.7248    2.7711   -0.3420 H   0  0  0  0  0  0  0  0  0  0  0  0
   -2.3201    3.3063   -2.8005 H   0  0  0  0  0  0  0  0  0  0  0  0
   -1.2378    4.7134   -2.5848 H   0  0  0  0  0  0  0  0  0  0  0  0
   -1.5077    1.3370   -1.7483 H   0  0  0  0  0  0  0  0  0  0  0  0
    0.9936    1.5303    1.7547 H   0  0  0  0  0  0  0  0  0  0  0  0
   -0.5429    5.1551   -0.0149 H   0  0  0  0  0  0  0  0  0  0  0  0
    1.0618    3.7904    2.9547 H   0  0  0  0  0  0  0  0  0  0  0  0
    0.7240    5.2823    2.0176 H   0  0  0  0  0  0  0  0  0  0  0  0
    1.9951    6.2033    0.1321 H   0  0  0  0  0  0  0  0  0  0  0  0
    2.0546    4.6929   -0.8333 H   0  0  0  0  0  0  0  0  0  0  0  0
    3.6841    5.9887   -1.8197 H   0  0  0  0  0  0  0  0  0  0  0  0
    4.0015    6.6570    1.9483 H   0  0  0  0  0  0  0  0  0  0  0  0
    5.1466    7.9889    1.6572 H   0  0  0  0  0  0  0  0  0  0  0  0
    4.6485    3.6731   -0.5048 H   0  0  0  0  0  0  0  0  0  0  0  0
    7.3071    3.0018   -1.2022 H   0  0  0  0  0  0  0  0  0  0  0  0
    8.8093    4.4958   -2.4458 H   0  0  0  0  0  0  0  0  0  0  0  0
    9.5887    4.1749   -0.8741 H   0  0  0  0  0  0  0  0  0  0  0  0
    8.7692    5.7418   -1.1451 H   0  0  0  0  0  0  0  0  0  0  0  0
    6.8998    4.9190    1.0754 H   0  0  0  0  0  0  0  0  0  0  0  0
    8.9841    2.0741   -0.0428 H   0  0  0  0  0  0  0  0  0  0  0  0
   11.0883    2.0285    1.2335 H   0  0  0  0  0  0  0  0  0  0  0  0
   10.3867    3.6760    1.3726 H   0  0  0  0  0  0  0  0  0  0  0  0
   10.2241    2.5164    2.7443 H   0  0  0  0  0  0  0  0  0  0  0  0
    7.9944    0.5794    2.3262 H   0  0  0  0  0  0  0  0  0  0  0  0
   10.4232    0.5166   -0.5244 H   0  0  0  0  0  0  0  0  0  0  0  0
   12.1642   -0.7388    0.5704 H   0  0  0  0  0  0  0  0  0  0  0  0
   11.3236   -2.2929    0.2911 H   0  0  0  0  0  0  0  0  0  0  0  0
   11.9380   -1.3308   -1.1028 H   0  0  0  0  0  0  0  0  0  0  0  0
    8.7680   -0.4293   -1.8620 H   0  0  0  0  0  0  0  0  0  0  0  0
    6.7869   -1.9064   -0.8840 H   0  0  0  0  0  0  0  0  0  0  0  0
    7.4349   -4.3296   -2.6613 H   0  0  0  0  0  0  0  0  0  0  0  0
    7.0163   -2.6631   -3.2215 H   0  0  0  0  0  0  0  0  0  0  0  0
    5.7906   -3.6429   -2.3283 H   0  0  0  0  0  0  0  0  0  0  0  0
    7.8569   -4.6199   -0.0013 H   0  0  0  0  0  0  0  0  0  0  0  0
    4.4201   -3.1460    2.0214 H   0  0  0  0  0  0  0  0  0  0  0  0
    6.6573   -1.2275    1.1995 H   0  0  0  0  0  0  0  0  0  0  0  0
    6.4269   -2.0196    2.7920 H   0  0  0  0  0  0  0  0  0  0  0  0
    5.2087   -0.8434    2.1789 H   0  0  0  0  0  0  0  0  0  0  0  0
    4.5759   -1.3920   -0.3118 H   0  0  0  0  0  0  0  0  0  0  0  0
    3.6775   -4.9897   -0.1000 H   0  0  0  0  0  0  0  0  0  0  0  0
    1.3933   -5.2695    1.4418 H   0  0  0  0  0  0  0  0  0  0  0  0
    3.0115   -4.9158    2.0676 H   0  0  0  0  0  0  0  0  0  0  0  0
    1.8691   -3.5595    1.8133 H   0  0  0  0  0  0  0  0  0  0  0  0
    2.2051   -5.7466   -1.6041 H   0  0  0  0  0  0  0  0  0  0  0  0
    0.2965   -3.0945    0.2611 H   0  0  0  0  0  0  0  0  0  0  0  0
   -1.7565   -2.9288   -2.0122 H   0  0  0  0  0  0  0  0  0  0  0  0
   -0.2056   -2.0928   -2.0611 H   0  0  0  0  0  0  0  0  0  0  0  0
    0.6916   -0.5059   -0.6804 H   0  0  0  0  0  0  0  0  0  0  0  0
    0.1554   -0.6210    1.0257 H   0  0  0  0  0  0  0  0  0  0  0  0
   -0.9584   -5.1524    0.8836 H   0  0  0  0  0  0  0  0  0  0  0  0
   -4.0048   -5.4172   -1.4009 H   0  0  0  0  0  0  0  0  0  0  0  0
   -3.1463   -7.7196   -1.1153 H   0  0  0  0  0  0  0  0  0  0  0  0
   -1.8363   -6.5858   -1.5767 H   0  0  0  0  0  0  0  0  0  0  0  0
   -1.9858   -7.1631    0.1381 H   0  0  0  0  0  0  0  0  0  0  0  0
   -4.0295   -6.3382    1.5149 H   0  0  0  0  0  0  0  0  0  0  0  0
   -5.8963   -6.4510   -1.7452 H   0  0  0  0  0  0  0  0  0  0  0  0
   -8.3952   -6.5714   -1.9724 H   0  0  0  0  0  0  0  0  0  0  0  0
   -8.5143   -6.7293   -0.1784 H   0  0  0  0  0  0  0  0  0  0  0  0
   -7.6169   -7.9526   -1.1219 H   0  0  0  0  0  0  0  0  0  0  0  0
   -6.2927   -4.1919   -1.9518 H   0  0  0  0  0  0  0  0  0  0  0  0
   -9.2088   -4.6084   -0.1236 H   0  0  0  0  0  0  0  0  0  0  0  0
   -8.3709   -4.6286    2.2147 H   0  0  0  0  0  0  0  0  0  0  0  0
   -9.9573   -3.7952    2.0524 H   0  0  0  0  0  0  0  0  0  0  0  0
   -8.4527   -2.8286    2.2673 H   0  0  0  0  0  0  0  0  0  0  0  0
  -10.1735   -2.7321   -0.9785 H   0  0  0  0  0  0  0  0  0  0  0  0
  -11.2057   -0.6575   -0.3885 H   0  0  0  0  0  0  0  0  0  0  0  0
  -10.9325   -0.5370    2.0745 H   0  0  0  0  0  0  0  0  0  0  0  0
  -11.4516    1.0525    1.4354 H   0  0  0  0  0  0  0  0  0  0  0  0
   -9.7196    0.7968    1.9032 H   0  0  0  0  0  0  0  0  0  0  0  0
   -9.7648    0.6651   -1.9043 H   0  0  0  0  0  0  0  0  0  0  0  0
   -8.6417    3.8810   -1.0856 H   0  0  0  0  0  0  0  0  0  0  0  0
   -8.0024    4.4324    1.3065 H   0  0  0  0  0  0  0  0  0  0  0  0
   -9.0556    3.0976    1.8830 H   0  0  0  0  0  0  0  0  0  0  0  0
   -9.7568    4.5331    1.0399 H   0  0  0  0  0  0  0  0  0  0  0  0
   -7.4959    1.4883   -1.0191 H   0  0  0  0  0  0  0  0  0  0  0  0
  1  2  1  0
  2  3  2  0
  2  4  1  0
  4  5  1  0
  5  6  1  0
  6  7  1  0
  7  8  1  0
  8  9  1  0
  9 10  1  0
 10 11  2  0
 11 12  1  0
 12 13  2  0
 13 14  1  0
 13 15  1  0
 15 16  1  0
 16 17  1  0
 17 18  1  0
 18 19  1  0
 19 20  1  0
 19 21  2  0
 18 22  1  0
 22 23  1  0
 23 24  2  0
 23 25  1  0
 25 26  1  0
 25 27  1  0
 27 28  1  0
 28 29  2  0
 28 30  1  0
 30 31  1  0
 30 32  1  0
 32 33  1  0
 33 34  2  0
 33 35  1  0
 35 36  1  0
 35 37  1  0
 37 38  1  0
 38 39  2  0
 38 40  1  0
 40 41  1  0
 40 42  1  0
 42 43  1  0
 43 44  2  0
 43 45  1  0
 45 46  1  0
 45 47  1  0
 47 48  1  0
 48 49  2  0
 48 50  1  0
 50 51  1  0
 50 52  1  0
 52 53  1  0
 53 54  2  0
 53 55  1  0
 55 56  1  0
 56 57  1  0
 57 58  1  0
 55 59  1  0
 59 60  1  0
 60 61  2  0
 60 62  1  0
 62 63  1  0
 62 64  1  0
 64 65  1  0
 65 66  2  0
 65 67  1  0
 67 68  1  0
 67 69  1  0
 69 70  1  0
 70 71  2  0
 70 72  1  0
 72 73  1  0
 72 74  1  0
 74 75  1  0
 75 76  2  0
 75 77  1  0
 77 78  1  0
 77 79  1  0
 79 80  1  0
 80 81  2  0
 80 82  1  0
 82 83  1  0
 82 84  1  0
 84 85  1  0
 85 86  2  0
 85  5  1  0
 14  9  2  0
 58 11  1  0
  1 87  1  0
  1 88  1  0
  1 89  1  0
  4 90  1  0
  5 91  1  6
  6 92  1  0
  6 93  1  0
  8 94  1  0
  8 95  1  0
 10 96  1  0
 12 97  1  0
 14 98  1  0
 15 99  1  0
 15100  1  0
 17101  1  0
 17102  1  0
 18103  1  6
 20104  1  0
 20105  1  0
 22106  1  0
 25107  1  1
 26108  1  0
 26109  1  0
 26110  1  0
 27111  1  0
 30112  1  6
 31113  1  0
 31114  1  0
 31115  1  0
 32116  1  0
 35117  1  6
 36118  1  0
 36119  1  0
 36120  1  0
 37121  1  0
 40122  1  1
 41123  1  0
 41124  1  0
 41125  1  0
 42126  1  0
 45127  1  1
 46128  1  0
 46129  1  0
 46130  1  0
 47131  1  0
 50132  1  1
 51133  1  0
 51134  1  0
 51135  1  0
 52136  1  0
 55137  1  1
 56138  1  0
 56139  1  0
 58140  1  0
 58141  1  0
 59142  1  0
 62143  1  6
 63144  1  0
 63145  1  0
 63146  1  0
 64147  1  0
 67148  1  6
 68149  1  0
 68150  1  0
 68151  1  0
 69152  1  0
 72153  1  6
 73154  1  0
 73155  1  0
 73156  1  0
 74157  1  0
 77158  1  6
 78159  1  0
 78160  1  0
 78161  1  0
 79162  1  0
 82163  1  6
 83164  1  0
 83165  1  0
 83166  1  0
 84167  1  0
M  END
