
     RDKit          3D

167169  0  0  0  0  0  0  0  0999 V2000
  -11.5836   -2.0700   -3.9205 C   0  0  0  0  0  0  0  0  0  0  0  0
  -10.3310   -1.6567   -3.2126 C   0  0  0  0  0  0  0  0  0  0  0  0
   -9.2317   -1.7120   -3.8321 O   0  0  0  0  0  0  0  0  0  0  0  0
  -10.3772   -1.2012   -1.8505 N   0  0  0  0  0  0  0  0  0  0  0  0
   -9.1699   -0.9027   -1.0673 C   0  0  2  0  0  0  0  0  0  0  0  0
   -8.8549   -2.0711   -0.1136 C   0  0  0  0  0  0  0  0  0  0  0  0
   -8.5538   -3.6600   -1.0050 S   0  0  0  0  0  0  0  0  0  0  0  0
   -6.8629   -3.3016   -1.6205 C   0  0  0  0  0  0  0  0  0  0  0  0
   -5.8595   -3.3122   -0.5031 C   0  0  0  0  0  0  0  0  0  0  0  0
   -5.4241   -4.5210    0.0512 C   0  0  0  0  0  0  0  0  0  0  0  0
   -4.5518   -4.5315    1.1528 C   0  0  0  0  0  0  0  0  0  0  0  0
   -4.1458   -3.3078    1.7126 C   0  0  0  0  0  0  0  0  0  0  0  0
   -4.5888   -2.0917    1.1731 C   0  0  0  0  0  0  0  0  0  0  0  0
   -5.4008   -2.1022    0.0340 C   0  0  0  0  0  0  0  0  0  0  0  0
   -4.3582   -0.7979    1.9017 C   0  0  0  0  0  0  0  0  0  0  0  0
   -3.1808    0.2958    1.0266 S   0  0  0  0  0  0  0  0  0  0  0  0
   -4.3501    1.5585    0.3586 C   0  0  0  0  0  0  0  0  0  0  0  0
   -4.9115    2.6045    1.3572 C   0  0  1  0  0  0  0  0  0  0  0  0
   -6.0218    2.0517    2.1454 N   0  0  0  0  0  0  0  0  0  0  0  0
   -7.3702    2.5526    2.0771 C   0  0  0  0  0  0  0  0  0  0  0  0
   -7.8610    3.0802    3.1160 O   0  0  0  0  0  0  0  0  0  0  0  0
   -8.2622    2.3783    0.8657 C   0  0  1  0  0  0  0  0  0  0  0  0
   -7.9263    3.3569   -0.2614 C   0  0  0  0  0  0  0  0  0  0  0  0
   -8.2156    1.0020    0.3543 N   0  0  0  0  0  0  0  0  0  0  0  0
   -9.3483    0.3873   -0.2869 C   0  0  0  0  0  0  0  0  0  0  0  0
  -10.4930    0.9002   -0.1683 O   0  0  0  0  0  0  0  0  0  0  0  0
   -3.8569    3.1857    2.2770 C   0  0  0  0  0  0  0  0  0  0  0  0
   -3.3180    2.4232    3.1232 O   0  0  0  0  0  0  0  0  0  0  0  0
   -3.4349    4.5690    2.2497 N   0  0  0  0  0  0  0  0  0  0  0  0
   -4.1859    5.7484    1.8002 C   0  0  2  0  0  0  0  0  0  0  0  0
   -5.6432    5.7568    2.3020 C   0  0  0  0  0  0  0  0  0  0  0  0
   -4.0500    5.9558    0.3074 C   0  0  0  0  0  0  0  0  0  0  0  0
   -4.8947    5.4391   -0.4711 O   0  0  0  0  0  0  0  0  0  0  0  0
   -2.9675    6.7187   -0.2645 N   0  0  0  0  0  0  0  0  0  0  0  0
   -1.9639    7.4552    0.5158 C   0  0  2  0  0  0  0  0  0  0  0  0
   -2.5218    8.8220    0.9295 C   0  0  0  0  0  0  0  0  0  0  0  0
   -0.6984    7.6470   -0.2729 C   0  0  0  0  0  0  0  0  0  0  0  0
   -0.7608    7.9338   -1.4994 O   0  0  0  0  0  0  0  0  0  0  0  0
    0.5754    7.5796    0.3936 N   0  0  0  0  0  0  0  0  0  0  0  0
    1.8867    7.7566   -0.2505 C   0  0  2  0  0  0  0  0  0  0  0  0
    2.0128    9.1552   -0.8717 C   0  0  0  0  0  0  0  0  0  0  0  0
    2.1670    6.6688   -1.2693 C   0  0  0  0  0  0  0  0  0  0  0  0
    1.4183    6.5786   -2.2778 O   0  0  0  0  0  0  0  0  0  0  0  0
    3.2549    5.7309   -1.1497 N   0  0  0  0  0  0  0  0  0  0  0  0
    4.3182    5.7619   -0.1373 C   0  0  2  0  0  0  0  0  0  0  0  0
    5.2727    6.9402   -0.4081 C   0  0  0  0  0  0  0  0  0  0  0  0
    5.0250    4.4200   -0.0965 C   0  0  0  0  0  0  0  0  0  0  0  0
    4.3396    3.3969    0.1605 O   0  0  0  0  0  0  0  0  0  0  0  0
    6.4372    4.2723   -0.2900 N   0  0  0  0  0  0  0  0  0  0  0  0
    7.1242    4.4620   -1.5723 C   0  0  2  0  0  0  0  0  0  0  0  0
    6.3065    3.8993   -2.7442 C   0  0  0  0  0  0  0  0  0  0  0  0
    8.4780    3.8106   -1.5241 C   0  0  0  0  0  0  0  0  0  0  0  0
    9.5221    4.5188   -1.5362 O   0  0  0  0  0  0  0  0  0  0  0  0
    8.5866    2.3870   -1.4872 N   0  0  0  0  0  0  0  0  0  0  0  0
    8.9625    1.6782   -0.2560 C   0  0  2  0  0  0  0  0  0  0  0  0
   10.4899    1.5231   -0.1979 C   0  0  0  0  0  0  0  0  0  0  0  0
    8.2998    0.3230   -0.2026 C   0  0  0  0  0  0  0  0  0  0  0  0
    7.5879   -0.0706   -1.1594 O   0  0  0  0  0  0  0  0  0  0  0  0
    8.5706   -0.5487    0.9104 N   0  0  0  0  0  0  0  0  0  0  0  0
    8.2786   -1.9951    0.9400 C   0  0  2  0  0  0  0  0  0  0  0  0
    9.2427   -2.6932    1.9060 C   0  0  0  0  0  0  0  0  0  0  0  0
    8.4164   -2.6168   -0.4372 C   0  0  0  0  0  0  0  0  0  0  0  0
    9.5312   -2.5054   -1.0215 O   0  0  0  0  0  0  0  0  0  0  0  0
    7.3444   -3.2775   -1.1454 N   0  0  0  0  0  0  0  0  0  0  0  0
    5.9926   -3.6461   -0.6895 C   0  0  2  0  0  0  0  0  0  0  0  0
    5.0991   -2.4244   -0.4119 C   0  0  0  0  0  0  0  0  0  0  0  0
    6.0291   -4.6454    0.4487 C   0  0  0  0  0  0  0  0  0  0  0  0
    6.1893   -4.2239    1.6245 O   0  0  0  0  0  0  0  0  0  0  0  0
    5.9210   -6.0717    0.2571 N   0  0  0  0  0  0  0  0  0  0  0  0
    5.5471   -6.8056   -0.9669 C   0  0  2  0  0  0  0  0  0  0  0  0
    6.6867   -6.7536   -1.9985 C   0  0  0  0  0  0  0  0  0  0  0  0
    4.2018   -6.3683   -1.5178 C   0  0  0  0  0  0  0  0  0  0  0  0
    4.1298   -5.9289   -2.6998 O   0  0  0  0  0  0  0  0  0  0  0  0
    2.9928   -6.4398   -0.7387 N   0  0  0  0  0  0  0  0  0  0  0  0
    2.8505   -7.2101    0.5003 C   0  0  2  0  0  0  0  0  0  0  0  0
    2.5044   -8.6643    0.1895 C   0  0  0  0  0  0  0  0  0  0  0  0
    1.8529   -6.5352    1.4282 C   0  0  0  0  0  0  0  0  0  0  0  0
    2.2579   -6.1467    2.5560 O   0  0  0  0  0  0  0  0  0  0  0  0
    0.5063   -6.2210    1.0359 N   0  0  0  0  0  0  0  0  0  0  0  0
   -0.4887   -7.2281    0.6176 C   0  0  1  0  0  0  0  0  0  0  0  0
   -0.4675   -8.4348    1.5230 C   0  0  0  0  0  0  0  0  0  0  0  0
   -0.7258   -9.7322    0.9907 N   0  0  0  0  0  0  0  0  0  0  0  0
   -0.2580   -8.3023    2.7599 O   0  0  0  0  0  0  0  0  0  0  0  0
   -1.9050   -6.6259    0.5604 C   0  0  0  0  0  0  0  0  0  0  0  0
   -2.4328   -5.9813    2.2009 S   0  0  0  0  0  0  0  0  0  0  0  0
   -4.2171   -5.8353    1.8252 C   0  0  0  0  0  0  0  0  0  0  0  0
  -11.5112   -3.1379   -4.2143 H   0  0  0  0  0  0  0  0  0  0  0  0
  -12.4736   -1.9352   -3.2701 H   0  0  0  0  0  0  0  0  0  0  0  0
  -11.7042   -1.4498   -4.8299 H   0  0  0  0  0  0  0  0  0  0  0  0
  -11.2935   -1.2396   -1.3477 H   0  0  0  0  0  0  0  0  0  0  0  0
   -8.3101   -0.7311   -1.7474 H   0  0  0  0  0  0  0  0  0  0  0  0
   -9.7222   -2.2248    0.5646 H   0  0  0  0  0  0  0  0  0  0  0  0
   -7.9923   -1.8285    0.5365 H   0  0  0  0  0  0  0  0  0  0  0  0
   -6.5822   -4.0710   -2.3653 H   0  0  0  0  0  0  0  0  0  0  0  0
   -6.8455   -2.3365   -2.1647 H   0  0  0  0  0  0  0  0  0  0  0  0
   -5.8169   -5.4589   -0.3338 H   0  0  0  0  0  0  0  0  0  0  0  0
   -3.5362   -3.3020    2.6164 H   0  0  0  0  0  0  0  0  0  0  0  0
   -5.7422   -1.1695   -0.3897 H   0  0  0  0  0  0  0  0  0  0  0  0
   -3.9331   -0.9890    2.9100 H   0  0  0  0  0  0  0  0  0  0  0  0
   -5.3331   -0.3237    2.0552 H   0  0  0  0  0  0  0  0  0  0  0  0
   -5.1771    1.0622   -0.1811 H   0  0  0  0  0  0  0  0  0  0  0  0
   -3.7756    2.1136   -0.4135 H   0  0  0  0  0  0  0  0  0  0  0  0
   -5.2985    3.4134    0.7274 H   0  0  0  0  0  0  0  0  0  0  0  0
   -5.7771    1.5723    3.0420 H   0  0  0  0  0  0  0  0  0  0  0  0
   -9.3006    2.6104    1.1919 H   0  0  0  0  0  0  0  0  0  0  0  0
   -8.7055    3.2858   -1.0534 H   0  0  0  0  0  0  0  0  0  0  0  0
   -6.9502    3.1079   -0.7346 H   0  0  0  0  0  0  0  0  0  0  0  0
   -7.9097    4.4031    0.1237 H   0  0  0  0  0  0  0  0  0  0  0  0
   -7.3030    0.4996    0.3311 H   0  0  0  0  0  0  0  0  0  0  0  0
   -2.5575    4.7755    2.7828 H   0  0  0  0  0  0  0  0  0  0  0  0
   -3.7441    6.6234    2.3123 H   0  0  0  0  0  0  0  0  0  0  0  0
   -5.6808    5.4626    3.3721 H   0  0  0  0  0  0  0  0  0  0  0  0
   -6.2972    5.0860    1.7197 H   0  0  0  0  0  0  0  0  0  0  0  0
   -6.0592    6.7836    2.2108 H   0  0  0  0  0  0  0  0  0  0  0  0
   -3.0123    6.8800   -1.2976 H   0  0  0  0  0  0  0  0  0  0  0  0
   -1.7073    6.8742    1.4281 H   0  0  0  0  0  0  0  0  0  0  0  0
   -2.6041    9.4948    0.0541 H   0  0  0  0  0  0  0  0  0  0  0  0
   -3.5296    8.7202    1.3803 H   0  0  0  0  0  0  0  0  0  0  0  0
   -1.8503    9.2880    1.6813 H   0  0  0  0  0  0  0  0  0  0  0  0
    0.5709    7.5414    1.4362 H   0  0  0  0  0  0  0  0  0  0  0  0
    2.6433    7.7193    0.5556 H   0  0  0  0  0  0  0  0  0  0  0  0
    3.0643    9.3419   -1.1794 H   0  0  0  0  0  0  0  0  0  0  0  0
    1.3668    9.2748   -1.7659 H   0  0  0  0  0  0  0  0  0  0  0  0
    1.7268    9.9294   -0.1252 H   0  0  0  0  0  0  0  0  0  0  0  0
    3.2631    4.9543   -1.8543 H   0  0  0  0  0  0  0  0  0  0  0  0
    3.8698    5.8965    0.8711 H   0  0  0  0  0  0  0  0  0  0  0  0
    5.5497    6.9775   -1.4812 H   0  0  0  0  0  0  0  0  0  0  0  0
    4.7864    7.9016   -0.1524 H   0  0  0  0  0  0  0  0  0  0  0  0
    6.1871    6.8659    0.2205 H   0  0  0  0  0  0  0  0  0  0  0  0
    6.9747    3.9022    0.5323 H   0  0  0  0  0  0  0  0  0  0  0  0
    7.2747    5.5465   -1.7424 H   0  0  0  0  0  0  0  0  0  0  0  0
    5.3707    4.4772   -2.8673 H   0  0  0  0  0  0  0  0  0  0  0  0
    6.0492    2.8331   -2.5690 H   0  0  0  0  0  0  0  0  0  0  0  0
    6.8835    3.9816   -3.6883 H   0  0  0  0  0  0  0  0  0  0  0  0
    8.6890    1.8957   -2.4066 H   0  0  0  0  0  0  0  0  0  0  0  0
    8.6357    2.2621    0.6278 H   0  0  0  0  0  0  0  0  0  0  0  0
   10.9824    2.5126   -0.3087 H   0  0  0  0  0  0  0  0  0  0  0  0
   10.7958    1.0919    0.7827 H   0  0  0  0  0  0  0  0  0  0  0  0
   10.8435    0.8510   -1.0107 H   0  0  0  0  0  0  0  0  0  0  0  0
    8.8435   -0.0965    1.8188 H   0  0  0  0  0  0  0  0  0  0  0  0
    7.2710   -2.1226    1.3479 H   0  0  0  0  0  0  0  0  0  0  0  0
    9.0956   -2.3045    2.9364 H   0  0  0  0  0  0  0  0  0  0  0  0
    9.0445   -3.7908    1.9221 H   0  0  0  0  0  0  0  0  0  0  0  0
   10.2984   -2.5184    1.6000 H   0  0  0  0  0  0  0  0  0  0  0  0
    7.5746   -3.5606   -2.1269 H   0  0  0  0  0  0  0  0  0  0  0  0
    5.4929   -4.1283   -1.5478 H   0  0  0  0  0  0  0  0  0  0  0  0
    4.0393   -2.7536   -0.3326 H   0  0  0  0  0  0  0  0  0  0  0  0
    5.1710   -1.7040   -1.2556 H   0  0  0  0  0  0  0  0  0  0  0  0
    5.3477   -1.8936    0.5263 H   0  0  0  0  0  0  0  0  0  0  0  0
    6.1090   -6.6610    1.1012 H   0  0  0  0  0  0  0  0  0  0  0  0
    5.4467   -7.8774   -0.6956 H   0  0  0  0  0  0  0  0  0  0  0  0
    7.6513   -7.0253   -1.5151 H   0  0  0  0  0  0  0  0  0  0  0  0
    6.4877   -7.4827   -2.8173 H   0  0  0  0  0  0  0  0  0  0  0  0
    6.7923   -5.7502   -2.4527 H   0  0  0  0  0  0  0  0  0  0  0  0
    2.1177   -6.0782   -1.1863 H   0  0  0  0  0  0  0  0  0  0  0  0
    3.8137   -7.2314    1.0454 H   0  0  0  0  0  0  0  0  0  0  0  0
    1.6612   -8.7443   -0.5224 H   0  0  0  0  0  0  0  0  0  0  0  0
    3.3762   -9.1628   -0.2855 H   0  0  0  0  0  0  0  0  0  0  0  0
    2.2663   -9.2175    1.1211 H   0  0  0  0  0  0  0  0  0  0  0  0
    0.1769   -5.2528    1.2641 H   0  0  0  0  0  0  0  0  0  0  0  0
   -0.2400   -7.5502   -0.4174 H   0  0  0  0  0  0  0  0  0  0  0  0
   -0.9398   -9.8670   -0.0225 H   0  0  0  0  0  0  0  0  0  0  0  0
   -0.7023  -10.5705    1.6195 H   0  0  0  0  0  0  0  0  0  0  0  0
   -1.9373   -5.7932   -0.1731 H   0  0  0  0  0  0  0  0  0  0  0  0
   -2.6122   -7.4101    0.2181 H   0  0  0  0  0  0  0  0  0  0  0  0
   -4.7731   -5.8793    2.7864 H   0  0  0  0  0  0  0  0  0  0  0  0
   -4.5488   -6.7035    1.2197 H   0  0  0  0  0  0  0  0  0  0  0  0
  1  2  1  0
  2  3  2  0
  2  4  1  0
  4  5  1  0
  5  6  1  0
  6  7  1  0
  7  8  1  0
  8  9  1  0
  9 10  1  0
 10 11  2  0
 11 12  1  0
 12 13  2  0
 13 14  1  0
 13 15  1  0
 15 16  1  0
 16 17  1  0
 17 18  1  0
 18 19  1  0
 19 20  1  0
 20 21  2  0
 20 22  1  0
 22 23  1  0
 22 24  1  0
 24 25  1  0
 25 26  2  0
 18 27  1  0
 27 28  2  0
 27 29  1  0
 29 30  1  0
 30 31  1  0
 30 32  1  0
 32 33  2  0
 32 34  1  0
 34 35  1  0
 35 36  1  0
 35 37  1  0
 37 38  2  0
 37 39  1  0
 39 40  1  0
 40 41  1  0
 40 42  1  0
 42 43  2  0
 42 44  1  0
 44 45  1  0
 45 46  1  0
 45 47  1  0
 47 48  2  0
 47 49  1  0
 49 50  1  0
 50 51  1  0
 50 52  1  0
 52 53  2  0
 52 54  1  0
 54 55  1  0
 55 56  1  0
 55 57  1  0
 57 58  2  0
 57 59  1  0
 59 60  1  0
 60 61  1  0
 60 62  1  0
 62 63  2  0
 62 64  1  0
 64 65  1  0
 65 66  1  0
 65 67  1  0
 67 68  2  0
 67 69  1  0
 69 70  1  0
 70 71  1  0
 70 72  1  0
 72 73  2  0
 72 74  1  0
 74 75  1  0
 75 76  1  0
 75 77  1  0
 77 78  2  0
 77 79  1  0
 79 80  1  0
 80 81  1  0
 81 82  1  0
 81 83  2  0
 80 84  1  0
 84 85  1  0
 85 86  1  0
 25  5  1  0
 14  9  2  0
 86 11  1  0
  1 87  1  0
  1 88  1  0
  1 89  1  0
  4 90  1  0
  5 91  1  6
  6 92  1  0
  6 93  1  0
  8 94  1  0
  8 95  1  0
 10 96  1  0
 12 97  1  0
 14 98  1  0
 15 99  1  0
 15100  1  0
 17101  1  0
 17102  1  0
 18103  1  6
 19104  1  0
 22105  1  1
 23106  1  0
 23107  1  0
 23108  1  0
 24109  1  0
 29110  1  0
 30111  1  1
 31112  1  0
 31113  1  0
 31114  1  0
 34115  1  0
 35116  1  1
 36117  1  0
 36118  1  0
 36119  1  0
 39120  1  0
 40121  1  1
 41122  1  0
 41123  1  0
 41124  1  0
 44125  1  0
 45126  1  1
 46127  1  0
 46128  1  0
 46129  1  0
 49130  1  0
 50131  1  6
 51132  1  0
 51133  1  0
 51134  1  0
 54135  1  0
 55136  1  1
 56137  1  0
 56138  1  0
 56139  1  0
 59140  1  0
 60141  1  1
 61142  1  0
 61143  1  0
 61144  1  0
 64145  1  0
 65146  1  6
 66147  1  0
 66148  1  0
 66149  1  0
 69150  1  0
 70151  1  1
 71152  1  0
 71153  1  0
 71154  1  0
 74155  1  0
 75156  1  1
 76157  1  0
 76158  1  0
 76159  1  0
 79160  1  0
 80161  1  6
 82162  1  0
 82163  1  0
 84164  1  0
 84165  1  0
 86166  1  0
 86167  1  0
M  END
