
     RDKit          3D

207209  0  0  0  0  0  0  0  0999 V2000
   -8.2192    7.6994   -0.3543 C   0  0  0  0  0  0  0  0  0  0  0  0
   -7.8015    7.6617    1.0885 C   0  0  0  0  0  0  0  0  0  0  0  0
   -7.6930    8.7510    1.7138 O   0  0  0  0  0  0  0  0  0  0  0  0
   -7.4779    6.4351    1.7729 N   0  0  0  0  0  0  0  0  0  0  0  0
   -7.7433    5.0738    1.2809 C   0  0  2  0  0  0  0  0  0  0  0  0
   -6.9537    4.7963   -0.0175 C   0  0  0  0  0  0  0  0  0  0  0  0
   -6.2038    3.1219   -0.0476 S   0  0  0  0  0  0  0  0  0  0  0  0
   -4.9260    3.4201    1.2330 C   0  0  0  0  0  0  0  0  0  0  0  0
   -3.6112    2.8332    0.7981 C   0  0  0  0  0  0  0  0  0  0  0  0
   -2.8689    3.4540   -0.2194 C   0  0  0  0  0  0  0  0  0  0  0  0
   -1.6283    2.9388   -0.6217 C   0  0  0  0  0  0  0  0  0  0  0  0
   -1.1515    1.7625   -0.0211 C   0  0  0  0  0  0  0  0  0  0  0  0
   -1.8787    1.1374    1.0070 C   0  0  0  0  0  0  0  0  0  0  0  0
   -3.0922    1.7017    1.4377 C   0  0  0  0  0  0  0  0  0  0  0  0
   -1.2679   -0.0293    1.7434 C   0  0  0  0  0  0  0  0  0  0  0  0
   -2.4988   -1.3180    2.1591 S   0  0  0  0  0  0  0  0  0  0  0  0
   -2.5621   -2.0979    0.5019 C   0  0  0  0  0  0  0  0  0  0  0  0
   -3.4388   -3.3668    0.5438 C   0  0  1  0  0  0  0  0  0  0  0  0
   -3.6919   -3.8824   -0.8072 N   0  0  0  0  0  0  0  0  0  0  0  0
   -4.6288   -4.9369   -1.1150 C   0  0  0  0  0  0  0  0  0  0  0  0
   -4.3387   -5.7443   -2.0395 O   0  0  0  0  0  0  0  0  0  0  0  0
   -5.9999   -5.0537   -0.4773 C   0  0  1  0  0  0  0  0  0  0  0  0
   -5.9706   -5.4826    0.9908 C   0  0  0  0  0  0  0  0  0  0  0  0
   -6.7417   -3.8027   -0.6527 N   0  0  0  0  0  0  0  0  0  0  0  0
   -7.6948   -3.6088   -1.7110 C   0  0  0  0  0  0  0  0  0  0  0  0
   -7.5931   -2.5885   -2.4494 O   0  0  0  0  0  0  0  0  0  0  0  0
   -8.8450   -4.5603   -1.9502 C   0  0  1  0  0  0  0  0  0  0  0  0
   -8.5335   -5.5381   -3.0870 C   0  0  0  0  0  0  0  0  0  0  0  0
   -9.2101   -5.2718   -0.7191 N   0  0  0  0  0  0  0  0  0  0  0  0
   -9.8174   -4.6234    0.4138 C   0  0  0  0  0  0  0  0  0  0  0  0
   -9.6503   -5.1219    1.5646 O   0  0  0  0  0  0  0  0  0  0  0  0
  -10.5692   -3.3180    0.2765 C   0  0  1  0  0  0  0  0  0  0  0  0
  -11.6025   -3.1316    1.3919 C   0  0  0  0  0  0  0  0  0  0  0  0
   -9.6317   -2.1919    0.2907 N   0  0  0  0  0  0  0  0  0  0  0  0
   -9.9702   -0.9234   -0.2974 C   0  0  0  0  0  0  0  0  0  0  0  0
  -10.8130   -0.8820   -1.2341 O   0  0  0  0  0  0  0  0  0  0  0  0
   -9.4033    0.3838    0.2150 C   0  0  1  0  0  0  0  0  0  0  0  0
   -8.3127    0.2295    1.2777 C   0  0  0  0  0  0  0  0  0  0  0  0
   -8.8785    1.1649   -0.9082 N   0  0  0  0  0  0  0  0  0  0  0  0
   -9.4564    2.3705   -1.4487 C   0  0  0  0  0  0  0  0  0  0  0  0
   -9.2461    2.6372   -2.6628 O   0  0  0  0  0  0  0  0  0  0  0  0
  -10.2617    3.3680   -0.6428 C   0  0  1  0  0  0  0  0  0  0  0  0
  -11.7497    2.9977   -0.5975 C   0  0  0  0  0  0  0  0  0  0  0  0
   -9.7076    3.5473    0.7039 N   0  0  0  0  0  0  0  0  0  0  0  0
   -9.2276    4.8244    1.1326 C   0  0  0  0  0  0  0  0  0  0  0  0
  -10.0637    5.6958    1.4998 O   0  0  0  0  0  0  0  0  0  0  0  0
   -2.8305   -4.4397    1.4292 C   0  0  0  0  0  0  0  0  0  0  0  0
   -3.1361   -4.4633    2.6500 O   0  0  0  0  0  0  0  0  0  0  0  0
   -2.0314   -5.5135    0.8968 N   0  0  0  0  0  0  0  0  0  0  0  0
   -0.9006   -5.3106   -0.0161 C   0  0  2  0  0  0  0  0  0  0  0  0
   -0.9136   -6.3795   -1.1109 C   0  0  0  0  0  0  0  0  0  0  0  0
    0.3881   -5.3013    0.7754 C   0  0  0  0  0  0  0  0  0  0  0  0
    1.0443   -4.2299    0.8726 O   0  0  0  0  0  0  0  0  0  0  0  0
    0.8078   -6.4402    1.5386 N   0  0  0  0  0  0  0  0  0  0  0  0
    1.4200   -7.6199    0.9200 C   0  0  2  0  0  0  0  0  0  0  0  0
    0.7380   -8.8834    1.4556 C   0  0  0  0  0  0  0  0  0  0  0  0
    2.9121   -7.6203    1.1763 C   0  0  0  0  0  0  0  0  0  0  0  0
    3.4686   -8.6347    1.6924 O   0  0  0  0  0  0  0  0  0  0  0  0
    3.6953   -6.4467    0.9346 N   0  0  0  0  0  0  0  0  0  0  0  0
    4.2597   -6.0928   -0.3748 C   0  0  2  0  0  0  0  0  0  0  0  0
    3.2069   -6.0958   -1.4878 C   0  0  0  0  0  0  0  0  0  0  0  0
    5.4039   -7.0150   -0.7266 C   0  0  0  0  0  0  0  0  0  0  0  0
    5.1554   -8.2277   -0.9685 O   0  0  0  0  0  0  0  0  0  0  0  0
    6.7650   -6.5607   -0.8236 N   0  0  0  0  0  0  0  0  0  0  0  0
    7.2751   -5.3126   -0.2487 C   0  0  2  0  0  0  0  0  0  0  0  0
    7.2222   -4.2069   -1.3046 C   0  0  0  0  0  0  0  0  0  0  0  0
    8.6438   -5.5612    0.3613 C   0  0  0  0  0  0  0  0  0  0  0  0
    8.7775   -6.5607    1.1091 O   0  0  0  0  0  0  0  0  0  0  0  0
    9.7275   -4.6169    0.2995 N   0  0  0  0  0  0  0  0  0  0  0  0
   10.4277   -4.2174   -0.9291 C   0  0  2  0  0  0  0  0  0  0  0  0
   10.9957   -5.4393   -1.6575 C   0  0  0  0  0  0  0  0  0  0  0  0
   11.5101   -3.2241   -0.6026 C   0  0  0  0  0  0  0  0  0  0  0  0
   12.5717   -3.5914   -0.0297 O   0  0  0  0  0  0  0  0  0  0  0  0
   11.3037   -1.8369   -0.8901 N   0  0  0  0  0  0  0  0  0  0  0  0
   11.1148   -0.8514    0.1796 C   0  0  2  0  0  0  0  0  0  0  0  0
   10.1411   -1.3591    1.2515 C   0  0  0  0  0  0  0  0  0  0  0  0
   10.6023    0.4439   -0.3927 C   0  0  0  0  0  0  0  0  0  0  0  0
    9.4407    0.4960   -0.8826 O   0  0  0  0  0  0  0  0  0  0  0  0
   11.4409    1.6085   -0.3978 N   0  0  0  0  0  0  0  0  0  0  0  0
   10.9071    2.9748   -0.3914 C   0  0  2  0  0  0  0  0  0  0  0  0
   11.4824    3.7536   -1.5746 C   0  0  0  0  0  0  0  0  0  0  0  0
   11.2774    3.6665    0.9007 C   0  0  0  0  0  0  0  0  0  0  0  0
   12.3234    3.3102    1.5148 O   0  0  0  0  0  0  0  0  0  0  0  0
   10.5180    4.7631    1.4308 N   0  0  0  0  0  0  0  0  0  0  0  0
    9.1324    5.0900    1.0625 C   0  0  2  0  0  0  0  0  0  0  0  0
    8.8055    6.5077    1.5479 C   0  0  0  0  0  0  0  0  0  0  0  0
    8.1873    4.0820    1.6831 C   0  0  0  0  0  0  0  0  0  0  0  0
    8.4965    3.5636    2.7919 O   0  0  0  0  0  0  0  0  0  0  0  0
    6.9831    3.6316    1.0286 N   0  0  0  0  0  0  0  0  0  0  0  0
    5.9313    4.5031    0.4830 C   0  0  2  0  0  0  0  0  0  0  0  0
    6.3595    5.0804   -0.8736 C   0  0  0  0  0  0  0  0  0  0  0  0
    5.5089    5.5574    1.4942 C   0  0  0  0  0  0  0  0  0  0  0  0
    5.7283    5.3590    2.7221 O   0  0  0  0  0  0  0  0  0  0  0  0
    4.9000    6.7948    1.1042 N   0  0  0  0  0  0  0  0  0  0  0  0
    3.7318    6.8841    0.2258 C   0  0  2  0  0  0  0  0  0  0  0  0
    3.9767    7.9940   -0.8025 C   0  0  0  0  0  0  0  0  0  0  0  0
    2.4983    7.1829    1.0437 C   0  0  0  0  0  0  0  0  0  0  0  0
    2.5888    7.9550    2.0368 O   0  0  0  0  0  0  0  0  0  0  0  0
    1.2276    6.5600    0.7800 N   0  0  0  0  0  0  0  0  0  0  0  0
    0.4421    6.6873   -0.4651 C   0  0  1  0  0  0  0  0  0  0  0  0
    0.3050    8.1219   -0.9313 C   0  0  0  0  0  0  0  0  0  0  0  0
   -0.5767    8.4441   -2.0065 N   0  0  0  0  0  0  0  0  0  0  0  0
    0.9206    9.0579   -0.3516 O   0  0  0  0  0  0  0  0  0  0  0  0
    0.9658    5.7661   -1.5785 C   0  0  0  0  0  0  0  0  0  0  0  0
    0.8819    4.0115   -1.0619 S   0  0  0  0  0  0  0  0  0  0  0  0
   -0.8167    3.6481   -1.6747 C   0  0  0  0  0  0  0  0  0  0  0  0
   -9.1011    7.0506   -0.5236 H   0  0  0  0  0  0  0  0  0  0  0  0
   -7.3828    7.3752   -1.0062 H   0  0  0  0  0  0  0  0  0  0  0  0
   -8.4935    8.7340   -0.6467 H   0  0  0  0  0  0  0  0  0  0  0  0
   -7.0515    6.5197    2.7230 H   0  0  0  0  0  0  0  0  0  0  0  0
   -7.3911    4.3641    2.0608 H   0  0  0  0  0  0  0  0  0  0  0  0
   -7.6145    4.8954   -0.9035 H   0  0  0  0  0  0  0  0  0  0  0  0
   -6.1313    5.5348   -0.1505 H   0  0  0  0  0  0  0  0  0  0  0  0
   -4.7822    4.5069    1.4360 H   0  0  0  0  0  0  0  0  0  0  0  0
   -5.2770    2.9485    2.1798 H   0  0  0  0  0  0  0  0  0  0  0  0
   -3.2554    4.3589   -0.6773 H   0  0  0  0  0  0  0  0  0  0  0  0
   -0.1995    1.3482   -0.3271 H   0  0  0  0  0  0  0  0  0  0  0  0
   -3.6264    1.2533    2.2634 H   0  0  0  0  0  0  0  0  0  0  0  0
   -0.4318   -0.4849    1.1648 H   0  0  0  0  0  0  0  0  0  0  0  0
   -0.8345    0.3518    2.6917 H   0  0  0  0  0  0  0  0  0  0  0  0
   -1.5362   -2.3326    0.1591 H   0  0  0  0  0  0  0  0  0  0  0  0
   -3.0144   -1.3679   -0.2030 H   0  0  0  0  0  0  0  0  0  0  0  0
   -4.4034   -3.0413    0.9834 H   0  0  0  0  0  0  0  0  0  0  0  0
   -3.0229   -3.6196   -1.5671 H   0  0  0  0  0  0  0  0  0  0  0  0
   -6.5239   -5.8746   -1.0033 H   0  0  0  0  0  0  0  0  0  0  0  0
   -6.9851   -5.8195    1.2934 H   0  0  0  0  0  0  0  0  0  0  0  0
   -5.6871   -4.6611    1.6690 H   0  0  0  0  0  0  0  0  0  0  0  0
   -5.2747   -6.3343    1.1255 H   0  0  0  0  0  0  0  0  0  0  0  0
   -6.3725   -2.9428   -0.1895 H   0  0  0  0  0  0  0  0  0  0  0  0
   -9.7206   -3.9712   -2.2964 H   0  0  0  0  0  0  0  0  0  0  0  0
   -7.6385   -6.1559   -2.8788 H   0  0  0  0  0  0  0  0  0  0  0  0
   -8.3643   -4.9766   -4.0304 H   0  0  0  0  0  0  0  0  0  0  0  0
   -9.3957   -6.2190   -3.2405 H   0  0  0  0  0  0  0  0  0  0  0  0
   -8.8744   -6.2539   -0.5838 H   0  0  0  0  0  0  0  0  0  0  0  0
  -11.1269   -3.3393   -0.6869 H   0  0  0  0  0  0  0  0  0  0  0  0
  -11.1027   -3.0586    2.3814 H   0  0  0  0  0  0  0  0  0  0  0  0
  -12.3104   -3.9881    1.4055 H   0  0  0  0  0  0  0  0  0  0  0  0
  -12.1817   -2.2002    1.2244 H   0  0  0  0  0  0  0  0  0  0  0  0
   -8.7532   -2.2933    0.8482 H   0  0  0  0  0  0  0  0  0  0  0  0
  -10.2526    0.8914    0.6880 H   0  0  0  0  0  0  0  0  0  0  0  0
   -7.4302   -0.2962    0.8554 H   0  0  0  0  0  0  0  0  0  0  0  0
   -8.7037   -0.3289    2.1555 H   0  0  0  0  0  0  0  0  0  0  0  0
   -7.9936    1.2335    1.6299 H   0  0  0  0  0  0  0  0  0  0  0  0
   -8.0794    0.7474   -1.4402 H   0  0  0  0  0  0  0  0  0  0  0  0
  -10.2051    4.3433   -1.1782 H   0  0  0  0  0  0  0  0  0  0  0  0
  -11.9347    2.0513   -0.0598 H   0  0  0  0  0  0  0  0  0  0  0  0
  -12.1404    2.8923   -1.6326 H   0  0  0  0  0  0  0  0  0  0  0  0
  -12.3181    3.8043   -0.0916 H   0  0  0  0  0  0  0  0  0  0  0  0
   -9.9589    2.8779    1.4657 H   0  0  0  0  0  0  0  0  0  0  0  0
   -2.0687   -6.4249    1.4067 H   0  0  0  0  0  0  0  0  0  0  0  0
   -0.9905   -4.3401   -0.5321 H   0  0  0  0  0  0  0  0  0  0  0  0
   -0.9862   -7.3966   -0.6778 H   0  0  0  0  0  0  0  0  0  0  0  0
   -1.7925   -6.2259   -1.7673 H   0  0  0  0  0  0  0  0  0  0  0  0
   -0.0054   -6.2997   -1.7410 H   0  0  0  0  0  0  0  0  0  0  0  0
    0.9588   -6.3014    2.5659 H   0  0  0  0  0  0  0  0  0  0  0  0
    1.2710   -7.6040   -0.1729 H   0  0  0  0  0  0  0  0  0  0  0  0
    1.1674   -9.7874    0.9766 H   0  0  0  0  0  0  0  0  0  0  0  0
    0.8740   -8.9621    2.5527 H   0  0  0  0  0  0  0  0  0  0  0  0
   -0.3508   -8.8541    1.2313 H   0  0  0  0  0  0  0  0  0  0  0  0
    4.1956   -6.0577    1.7663 H   0  0  0  0  0  0  0  0  0  0  0  0
    4.6083   -5.0457   -0.3045 H   0  0  0  0  0  0  0  0  0  0  0  0
    3.6485   -5.6768   -2.4174 H   0  0  0  0  0  0  0  0  0  0  0  0
    2.8562   -7.1262   -1.7102 H   0  0  0  0  0  0  0  0  0  0  0  0
    2.3418   -5.4594   -1.2028 H   0  0  0  0  0  0  0  0  0  0  0  0
    7.4423   -7.1794   -1.3285 H   0  0  0  0  0  0  0  0  0  0  0  0
    6.6313   -5.0064    0.6028 H   0  0  0  0  0  0  0  0  0  0  0  0
    7.7767   -4.5171   -2.2146 H   0  0  0  0  0  0  0  0  0  0  0  0
    7.6175   -3.2542   -0.8938 H   0  0  0  0  0  0  0  0  0  0  0  0
    6.1717   -4.0208   -1.6115 H   0  0  0  0  0  0  0  0  0  0  0  0
   10.2276   -4.4651    1.2056 H   0  0  0  0  0  0  0  0  0  0  0  0
    9.7354   -3.6987   -1.6177 H   0  0  0  0  0  0  0  0  0  0  0  0
   10.1687   -6.1146   -1.9596 H   0  0  0  0  0  0  0  0  0  0  0  0
   11.5329   -5.1230   -2.5759 H   0  0  0  0  0  0  0  0  0  0  0  0
   11.6962   -5.9975   -1.0007 H   0  0  0  0  0  0  0  0  0  0  0  0
   11.7360   -1.4978   -1.7861 H   0  0  0  0  0  0  0  0  0  0  0  0
   12.1000   -0.6684    0.6690 H   0  0  0  0  0  0  0  0  0  0  0  0
    9.9010   -0.5490    1.9719 H   0  0  0  0  0  0  0  0  0  0  0  0
   10.6028   -2.1920    1.8238 H   0  0  0  0  0  0  0  0  0  0  0  0
    9.2013   -1.7175    0.7804 H   0  0  0  0  0  0  0  0  0  0  0  0
   12.4750    1.4750   -0.3102 H   0  0  0  0  0  0  0  0  0  0  0  0
    9.8039    2.9447   -0.4937 H   0  0  0  0  0  0  0  0  0  0  0  0
   11.1402    4.8109   -1.5518 H   0  0  0  0  0  0  0  0  0  0  0  0
   11.1511    3.2901   -2.5314 H   0  0  0  0  0  0  0  0  0  0  0  0
   12.5957    3.7375   -1.5444 H   0  0  0  0  0  0  0  0  0  0  0  0
   10.9683    5.3125    2.2001 H   0  0  0  0  0  0  0  0  0  0  0  0
    9.0379    5.0742   -0.0438 H   0  0  0  0  0  0  0  0  0  0  0  0
    8.8257    6.5545    2.6573 H   0  0  0  0  0  0  0  0  0  0  0  0
    9.5554    7.2187    1.1452 H   0  0  0  0  0  0  0  0  0  0  0  0
    7.8122    6.8394    1.1973 H   0  0  0  0  0  0  0  0  0  0  0  0
    6.7147    2.6343    1.1921 H   0  0  0  0  0  0  0  0  0  0  0  0
    5.0326    3.8751    0.2950 H   0  0  0  0  0  0  0  0  0  0  0  0
    6.9285    4.3157   -1.4463 H   0  0  0  0  0  0  0  0  0  0  0  0
    5.4710    5.3448   -1.4806 H   0  0  0  0  0  0  0  0  0  0  0  0
    6.9861    5.9846   -0.7621 H   0  0  0  0  0  0  0  0  0  0  0  0
    5.1498    7.6423    1.6648 H   0  0  0  0  0  0  0  0  0  0  0  0
    3.5848    5.9209   -0.3000 H   0  0  0  0  0  0  0  0  0  0  0  0
    4.9093    7.7841   -1.3638 H   0  0  0  0  0  0  0  0  0  0  0  0
    4.0846    8.9769   -0.2912 H   0  0  0  0  0  0  0  0  0  0  0  0
    3.1418    8.0580   -1.5295 H   0  0  0  0  0  0  0  0  0  0  0  0
    0.6962    6.2416    1.6186 H   0  0  0  0  0  0  0  0  0  0  0  0
   -0.5972    6.3539   -0.2355 H   0  0  0  0  0  0  0  0  0  0  0  0
   -1.2074    7.7171   -2.4201 H   0  0  0  0  0  0  0  0  0  0  0  0
   -0.6857    9.4353   -2.3178 H   0  0  0  0  0  0  0  0  0  0  0  0
    0.3876    5.9121   -2.5190 H   0  0  0  0  0  0  0  0  0  0  0  0
    2.0074    6.0167   -1.8410 H   0  0  0  0  0  0  0  0  0  0  0  0
   -0.7341    3.0096   -2.5840 H   0  0  0  0  0  0  0  0  0  0  0  0
   -1.3342    4.5826   -1.9853 H   0  0  0  0  0  0  0  0  0  0  0  0
  1  2  1  0
  2  3  2  0
  2  4  1  0
  4  5  1  0
  5  6  1  0
  6  7  1  0
  7  8  1  0
  8  9  1  0
  9 10  1  0
 10 11  2  0
 11 12  1  0
 12 13  2  0
 13 14  1  0
 13 15  1  0
 15 16  1  0
 16 17  1  0
 17 18  1  0
 18 19  1  0
 19 20  1  0
 20 21  2  0
 20 22  1  0
 22 23  1  0
 22 24  1  0
 24 25  1  0
 25 26  2  0
 25 27  1  0
 27 28  1  0
 27 29  1  0
 29 30  1  0
 30 31  2  0
 30 32  1  0
 32 33  1  0
 32 34  1  0
 34 35  1  0
 35 36  2  0
 35 37  1  0
 37 38  1  0
 37 39  1  0
 39 40  1  0
 40 41  2  0
 40 42  1  0
 42 43  1  0
 42 44  1  0
 44 45  1  0
 45 46  2  0
 18 47  1  0
 47 48  2  0
 47 49  1  0
 49 50  1  0
 50 51  1  0
 50 52  1  0
 52 53  2  0
 52 54  1  0
 54 55  1  0
 55 56  1  0
 55 57  1  0
 57 58  2  0
 57 59  1  0
 59 60  1  0
 60 61  1  0
 60 62  1  0
 62 63  2  0
 62 64  1  0
 64 65  1  0
 65 66  1  0
 65 67  1  0
 67 68  2  0
 67 69  1  0
 69 70  1  0
 70 71  1  0
 70 72  1  0
 72 73  2  0
 72 74  1  0
 74 75  1  0
 75 76  1  0
 75 77  1  0
 77 78  2  0
 77 79  1  0
 79 80  1  0
 80 81  1  0
 80 82  1  0
 82 83  2  0
 82 84  1  0
 84 85  1  0
 85 86  1  0
 85 87  1  0
 87 88  2  0
 87 89  1  0
 89 90  1  0
 90 91  1  0
 90 92  1  0
 92 93  2  0
 92 94  1  0
 94 95  1  0
 95 96  1  0
 95 97  1  0
 97 98  2  0
 97 99  1  0
 99100  1  0
100101  1  0
101102  1  0
101103  2  0
100104  1  0
104105  1  0
105106  1  0
 45  5  1  0
 14  9  2  0
106 11  1  0
  1107  1  0
  1108  1  0
  1109  1  0
  4110  1  0
  5111  1  1
  6112  1  0
  6113  1  0
  8114  1  0
  8115  1  0
 10116  1  0
 12117  1  0
 14118  1  0
 15119  1  0
 15120  1  0
 17121  1  0
 17122  1  0
 18123  1  1
 19124  1  0
 22125  1  6
 23126  1  0
 23127  1  0
 23128  1  0
 24129  1  0
 27130  1  6
 28131  1  0
 28132  1  0
 28133  1  0
 29134  1  0
 32135  1  6
 33136  1  0
 33137  1  0
 33138  1  0
 34139  1  0
 37140  1  1
 38141  1  0
 38142  1  0
 38143  1  0
 39144  1  0
 42145  1  6
 43146  1  0
 43147  1  0
 43148  1  0
 44149  1  0
 49150  1  0
 50151  1  6
 51152  1  0
 51153  1  0
 51154  1  0
 54155  1  0
 55156  1  6
 56157  1  0
 56158  1  0
 56159  1  0
 59160  1  0
 60161  1  1
 61162  1  0
 61163  1  0
 61164  1  0
 64165  1  0
 65166  1  1
 66167  1  0
 66168  1  0
 66169  1  0
 69170  1  0
 70171  1  6
 71172  1  0
 71173  1  0
 71174  1  0
 74175  1  0
 75176  1  1
 76177  1  0
 76178  1  0
 76179  1  0
 79180  1  0
 80181  1  6
 81182  1  0
 81183  1  0
 81184  1  0
 84185  1  0
 85186  1  6
 86187  1  0
 86188  1  0
 86189  1  0
 89190  1  0
 90191  1  6
 91192  1  0
 91193  1  0
 91194  1  0
 94195  1  0
 95196  1  6
 96197  1  0
 96198  1  0
 96199  1  0
 99200  1  0
100201  1  1
102202  1  0
102203  1  0
104204  1  0
104205  1  0
106206  1  0
106207  1  0
M  END
