
     RDKit          3D

207209  0  0  0  0  0  0  0  0999 V2000
  -10.9314   -7.6706    0.4268 C   0  0  0  0  0  0  0  0  0  0  0  0
  -10.2658   -6.6318   -0.4118 C   0  0  0  0  0  0  0  0  0  0  0  0
  -10.0109   -6.9021   -1.6190 O   0  0  0  0  0  0  0  0  0  0  0  0
   -9.8996   -5.3620    0.1537 N   0  0  0  0  0  0  0  0  0  0  0  0
   -9.2394   -4.3078   -0.6282 C   0  0  2  0  0  0  0  0  0  0  0  0
   -8.0818   -3.6734    0.1689 C   0  0  0  0  0  0  0  0  0  0  0  0
   -6.6871   -4.8574    0.2926 S   0  0  0  0  0  0  0  0  0  0  0  0
   -5.6244   -4.1456   -1.0124 C   0  0  0  0  0  0  0  0  0  0  0  0
   -4.4218   -3.4912   -0.3824 C   0  0  0  0  0  0  0  0  0  0  0  0
   -4.4014   -2.1069   -0.1456 C   0  0  0  0  0  0  0  0  0  0  0  0
   -3.2803   -1.4995    0.4334 C   0  0  0  0  0  0  0  0  0  0  0  0
   -2.1491   -2.2704    0.7259 C   0  0  0  0  0  0  0  0  0  0  0  0
   -2.1541   -3.6557    0.5073 C   0  0  0  0  0  0  0  0  0  0  0  0
   -3.2972   -4.2626   -0.0412 C   0  0  0  0  0  0  0  0  0  0  0  0
   -0.9054   -4.4527    0.7508 C   0  0  0  0  0  0  0  0  0  0  0  0
    0.1921   -4.3302   -0.7109 S   0  0  0  0  0  0  0  0  0  0  0  0
   -0.0818   -6.0304   -1.3116 C   0  0  0  0  0  0  0  0  0  0  0  0
    0.7899   -7.0432   -0.5470 C   0  0  1  0  0  0  0  0  0  0  0  0
   -0.0139   -8.2260   -0.0910 C   0  0  0  0  0  0  0  0  0  0  0  0
   -0.6766   -9.0720   -1.0343 N   0  0  0  0  0  0  0  0  0  0  0  0
   -0.1202   -8.4762    1.1400 O   0  0  0  0  0  0  0  0  0  0  0  0
    1.9081   -7.4959   -1.3804 N   0  0  0  0  0  0  0  0  0  0  0  0
    3.1380   -7.9622   -0.8096 C   0  0  0  0  0  0  0  0  0  0  0  0
    3.5258   -9.1302   -1.0782 O   0  0  0  0  0  0  0  0  0  0  0  0
    3.9436   -7.0929    0.1360 C   0  0  1  0  0  0  0  0  0  0  0  0
    4.0524   -7.7460    1.5160 C   0  0  0  0  0  0  0  0  0  0  0  0
    5.2767   -6.7698   -0.3924 N   0  0  0  0  0  0  0  0  0  0  0  0
    6.3135   -7.7467   -0.6086 C   0  0  0  0  0  0  0  0  0  0  0  0
    6.0996   -8.7394   -1.3534 O   0  0  0  0  0  0  0  0  0  0  0  0
    7.6738   -7.5652    0.0097 C   0  0  1  0  0  0  0  0  0  0  0  0
    8.0446   -8.8068    0.8372 C   0  0  0  0  0  0  0  0  0  0  0  0
    8.6735   -7.3457   -1.0419 N   0  0  0  0  0  0  0  0  0  0  0  0
    9.3744   -6.1090   -1.2488 C   0  0  0  0  0  0  0  0  0  0  0  0
    9.5692   -5.7242   -2.4379 O   0  0  0  0  0  0  0  0  0  0  0  0
    9.8437   -5.2367   -0.0974 C   0  0  1  0  0  0  0  0  0  0  0  0
   10.6548   -6.0362    0.9204 C   0  0  0  0  0  0  0  0  0  0  0  0
   10.6645   -4.1309   -0.5975 N   0  0  0  0  0  0  0  0  0  0  0  0
   10.1405   -2.8046   -0.7197 C   0  0  0  0  0  0  0  0  0  0  0  0
    9.5624   -2.4682   -1.7881 O   0  0  0  0  0  0  0  0  0  0  0  0
   10.3285   -1.8014    0.3789 C   0  0  1  0  0  0  0  0  0  0  0  0
    9.6679   -2.2734    1.6762 C   0  0  0  0  0  0  0  0  0  0  0  0
   11.7644   -1.5711    0.6125 N   0  0  0  0  0  0  0  0  0  0  0  0
   12.4362   -0.2931    0.6077 C   0  0  0  0  0  0  0  0  0  0  0  0
   13.5622   -0.2113    1.1632 O   0  0  0  0  0  0  0  0  0  0  0  0
   11.8881    0.9417   -0.0817 C   0  0  1  0  0  0  0  0  0  0  0  0
   11.6347    0.6739   -1.5706 C   0  0  0  0  0  0  0  0  0  0  0  0
   10.6904    1.4315    0.6049 N   0  0  0  0  0  0  0  0  0  0  0  0
    9.9852    2.6005    0.1776 C   0  0  0  0  0  0  0  0  0  0  0  0
    8.8182    2.4801   -0.2786 O   0  0  0  0  0  0  0  0  0  0  0  0
   10.5996    3.9712    0.3071 C   0  0  1  0  0  0  0  0  0  0  0  0
   10.9795    4.4965   -1.0825 C   0  0  0  0  0  0  0  0  0  0  0  0
    9.6515    4.8689    0.9820 N   0  0  0  0  0  0  0  0  0  0  0  0
    9.7147    6.2946    0.8691 C   0  0  0  0  0  0  0  0  0  0  0  0
   10.7653    6.8993    1.2177 O   0  0  0  0  0  0  0  0  0  0  0  0
    8.5203    7.0858    0.3658 C   0  0  1  0  0  0  0  0  0  0  0  0
    8.9679    8.0143   -0.7734 C   0  0  0  0  0  0  0  0  0  0  0  0
    7.4564    6.1936   -0.1276 N   0  0  0  0  0  0  0  0  0  0  0  0
    6.0554    6.5113   -0.2329 C   0  0  0  0  0  0  0  0  0  0  0  0
    5.2824    5.6169   -0.6660 O   0  0  0  0  0  0  0  0  0  0  0  0
    5.4773    7.8769    0.0909 C   0  0  1  0  0  0  0  0  0  0  0  0
    5.1178    8.6336   -1.1900 C   0  0  0  0  0  0  0  0  0  0  0  0
    4.3264    7.7766    0.9982 N   0  0  0  0  0  0  0  0  0  0  0  0
    3.1579    6.9772    0.7445 C   0  0  0  0  0  0  0  0  0  0  0  0
    2.9773    5.9221    1.4182 O   0  0  0  0  0  0  0  0  0  0  0  0
    2.1296    7.3976   -0.2799 C   0  0  1  0  0  0  0  0  0  0  0  0
    2.0243    6.3777   -1.4232 C   0  0  0  0  0  0  0  0  0  0  0  0
    0.8175    7.6327    0.3369 N   0  0  0  0  0  0  0  0  0  0  0  0
   -0.0891    6.5908    0.7261 C   0  0  0  0  0  0  0  0  0  0  0  0
    0.2666    5.7391    1.5752 O   0  0  0  0  0  0  0  0  0  0  0  0
   -1.4326    6.4362    0.0604 C   0  0  1  0  0  0  0  0  0  0  0  0
   -1.9618    7.7444   -0.5429 C   0  0  0  0  0  0  0  0  0  0  0  0
   -1.3264    5.4176   -0.9869 N   0  0  0  0  0  0  0  0  0  0  0  0
   -1.5022    4.0266   -0.6865 C   0  0  0  0  0  0  0  0  0  0  0  0
   -0.5508    3.2262   -0.9164 O   0  0  0  0  0  0  0  0  0  0  0  0
   -2.7867    3.5291   -0.0709 C   0  0  1  0  0  0  0  0  0  0  0  0
   -3.3650    2.3213   -0.8305 C   0  0  0  0  0  0  0  0  0  0  0  0
   -2.3576    0.7951   -0.7140 S   0  0  0  0  0  0  0  0  0  0  0  0
   -3.2546   -0.0129    0.6627 C   0  0  0  0  0  0  0  0  0  0  0  0
   -2.5796    3.2378    1.3510 N   0  0  0  0  0  0  0  0  0  0  0  0
   -3.2246    3.9925    2.3901 C   0  0  0  0  0  0  0  0  0  0  0  0
   -2.5148    4.4858    3.3175 O   0  0  0  0  0  0  0  0  0  0  0  0
   -4.7143    4.2460    2.3962 C   0  0  1  0  0  0  0  0  0  0  0  0
   -5.0240    5.6923    1.9676 C   0  0  0  0  0  0  0  0  0  0  0  0
   -5.4156    3.2255    1.6031 N   0  0  0  0  0  0  0  0  0  0  0  0
   -6.7703    3.3489    1.1466 C   0  0  0  0  0  0  0  0  0  0  0  0
   -7.6638    2.6447    1.6944 O   0  0  0  0  0  0  0  0  0  0  0  0
   -7.1229    4.1665   -0.0718 C   0  0  1  0  0  0  0  0  0  0  0  0
   -7.2189    3.2773   -1.3177 C   0  0  0  0  0  0  0  0  0  0  0  0
   -8.3533    4.9297    0.1798 N   0  0  0  0  0  0  0  0  0  0  0  0
   -9.5904    4.7406   -0.5270 C   0  0  0  0  0  0  0  0  0  0  0  0
   -9.9545    5.6029   -1.3759 O   0  0  0  0  0  0  0  0  0  0  0  0
  -10.4836    3.5601   -0.2250 C   0  0  1  0  0  0  0  0  0  0  0  0
  -11.8712    4.0494    0.1992 C   0  0  0  0  0  0  0  0  0  0  0  0
  -10.5916    2.6838   -1.3997 N   0  0  0  0  0  0  0  0  0  0  0  0
  -11.3943    1.4931   -1.4068 C   0  0  0  0  0  0  0  0  0  0  0  0
  -12.4903    1.5082   -2.0298 O   0  0  0  0  0  0  0  0  0  0  0  0
  -10.9483    0.2065   -0.7436 C   0  0  1  0  0  0  0  0  0  0  0  0
   -9.4419    0.1775   -0.4388 C   0  0  0  0  0  0  0  0  0  0  0  0
  -11.7392   -0.0521    0.4751 N   0  0  0  0  0  0  0  0  0  0  0  0
  -11.4514   -1.0922    1.4268 C   0  0  0  0  0  0  0  0  0  0  0  0
  -11.3311   -0.7692    2.6397 O   0  0  0  0  0  0  0  0  0  0  0  0
  -11.3722   -2.5686    1.0801 C   0  0  1  0  0  0  0  0  0  0  0  0
  -12.5494   -3.3195    1.7023 C   0  0  0  0  0  0  0  0  0  0  0  0
  -11.3644   -2.8020   -0.3658 N   0  0  0  0  0  0  0  0  0  0  0  0
  -10.2528   -3.3006   -1.1380 C   0  0  0  0  0  0  0  0  0  0  0  0
  -10.1661   -2.9434   -2.3406 O   0  0  0  0  0  0  0  0  0  0  0  0
  -10.2948   -8.5822    0.4963 H   0  0  0  0  0  0  0  0  0  0  0  0
  -11.9058   -7.9500   -0.0328 H   0  0  0  0  0  0  0  0  0  0  0  0
  -11.1335   -7.2914    1.4572 H   0  0  0  0  0  0  0  0  0  0  0  0
  -10.1494   -5.1820    1.1486 H   0  0  0  0  0  0  0  0  0  0  0  0
   -8.7743   -4.7587   -1.5245 H   0  0  0  0  0  0  0  0  0  0  0  0
   -8.3806   -3.4220    1.2018 H   0  0  0  0  0  0  0  0  0  0  0  0
   -7.7544   -2.7257   -0.3135 H   0  0  0  0  0  0  0  0  0  0  0  0
   -5.2932   -4.9777   -1.6742 H   0  0  0  0  0  0  0  0  0  0  0  0
   -6.1680   -3.4301   -1.6663 H   0  0  0  0  0  0  0  0  0  0  0  0
   -5.2589   -1.5056   -0.4238 H   0  0  0  0  0  0  0  0  0  0  0  0
   -1.2519   -1.7964    1.1144 H   0  0  0  0  0  0  0  0  0  0  0  0
   -3.3010   -5.3362   -0.2292 H   0  0  0  0  0  0  0  0  0  0  0  0
   -1.1559   -5.5028    1.0077 H   0  0  0  0  0  0  0  0  0  0  0  0
   -0.3590   -4.0442    1.6237 H   0  0  0  0  0  0  0  0  0  0  0  0
   -1.1629   -6.2786   -1.2369 H   0  0  0  0  0  0  0  0  0  0  0  0
    0.1596   -6.0405   -2.3959 H   0  0  0  0  0  0  0  0  0  0  0  0
    1.1998   -6.5467    0.3729 H   0  0  0  0  0  0  0  0  0  0  0  0
   -1.2203   -9.9007   -0.6993 H   0  0  0  0  0  0  0  0  0  0  0  0
   -0.6293   -8.8792   -2.0596 H   0  0  0  0  0  0  0  0  0  0  0  0
    1.6659   -7.8708   -2.3269 H   0  0  0  0  0  0  0  0  0  0  0  0
    3.4026   -6.1334    0.2732 H   0  0  0  0  0  0  0  0  0  0  0  0
    4.5817   -8.7184    1.4543 H   0  0  0  0  0  0  0  0  0  0  0  0
    4.6201   -7.0749    2.1973 H   0  0  0  0  0  0  0  0  0  0  0  0
    3.0413   -7.9065    1.9482 H   0  0  0  0  0  0  0  0  0  0  0  0
    5.5780   -5.7690   -0.3393 H   0  0  0  0  0  0  0  0  0  0  0  0
    7.6371   -6.6994    0.6988 H   0  0  0  0  0  0  0  0  0  0  0  0
    7.3278   -8.9215    1.6800 H   0  0  0  0  0  0  0  0  0  0  0  0
    9.0641   -8.7145    1.2549 H   0  0  0  0  0  0  0  0  0  0  0  0
    8.0099   -9.7235    0.2086 H   0  0  0  0  0  0  0  0  0  0  0  0
    8.7347   -8.0629   -1.8043 H   0  0  0  0  0  0  0  0  0  0  0  0
    8.9441   -4.8239    0.4099 H   0  0  0  0  0  0  0  0  0  0  0  0
   11.4052   -6.6775    0.4137 H   0  0  0  0  0  0  0  0  0  0  0  0
    9.9907   -6.6673    1.5422 H   0  0  0  0  0  0  0  0  0  0  0  0
   11.1898   -5.3500    1.6125 H   0  0  0  0  0  0  0  0  0  0  0  0
   11.5779   -4.3457   -1.0584 H   0  0  0  0  0  0  0  0  0  0  0  0
    9.8148   -0.8688    0.0823 H   0  0  0  0  0  0  0  0  0  0  0  0
    8.5895   -2.4767    1.5017 H   0  0  0  0  0  0  0  0  0  0  0  0
   10.1558   -3.1938    2.0563 H   0  0  0  0  0  0  0  0  0  0  0  0
    9.7564   -1.4861    2.4526 H   0  0  0  0  0  0  0  0  0  0  0  0
   12.3280   -2.3929    0.9248 H   0  0  0  0  0  0  0  0  0  0  0  0
   12.6655    1.7387   -0.0247 H   0  0  0  0  0  0  0  0  0  0  0  0
   10.7554    0.0224   -1.7353 H   0  0  0  0  0  0  0  0  0  0  0  0
   11.4492    1.6209   -2.1150 H   0  0  0  0  0  0  0  0  0  0  0  0
   12.5251    0.1914   -2.0348 H   0  0  0  0  0  0  0  0  0  0  0  0
   10.2940    0.9008    1.4137 H   0  0  0  0  0  0  0  0  0  0  0  0
   11.5222    3.9004    0.9244 H   0  0  0  0  0  0  0  0  0  0  0  0
   11.6785    3.7986   -1.5848 H   0  0  0  0  0  0  0  0  0  0  0  0
   10.0732    4.6186   -1.7148 H   0  0  0  0  0  0  0  0  0  0  0  0
   11.4977    5.4750   -1.0008 H   0  0  0  0  0  0  0  0  0  0  0  0
    8.9908    4.4715    1.6937 H   0  0  0  0  0  0  0  0  0  0  0  0
    8.1521    7.6847    1.2224 H   0  0  0  0  0  0  0  0  0  0  0  0
    9.8728    8.5924   -0.4859 H   0  0  0  0  0  0  0  0  0  0  0  0
    9.1940    7.4173   -1.6833 H   0  0  0  0  0  0  0  0  0  0  0  0
    8.1718    8.7434   -1.0109 H   0  0  0  0  0  0  0  0  0  0  0  0
    7.7398    5.2857   -0.5598 H   0  0  0  0  0  0  0  0  0  0  0  0
    6.2365    8.4948    0.6040 H   0  0  0  0  0  0  0  0  0  0  0  0
    6.0307    8.8763   -1.7679 H   0  0  0  0  0  0  0  0  0  0  0  0
    4.4646    8.0240   -1.8499 H   0  0  0  0  0  0  0  0  0  0  0  0
    4.6039    9.5861   -0.9399 H   0  0  0  0  0  0  0  0  0  0  0  0
    4.4887    8.0484    1.9963 H   0  0  0  0  0  0  0  0  0  0  0  0
    2.4627    8.3559   -0.7222 H   0  0  0  0  0  0  0  0  0  0  0  0
    3.0114    6.2258   -1.9078 H   0  0  0  0  0  0  0  0  0  0  0  0
    1.3225    6.7584   -2.1906 H   0  0  0  0  0  0  0  0  0  0  0  0
    1.6634    5.3937   -1.0508 H   0  0  0  0  0  0  0  0  0  0  0  0
    0.5452    8.6248    0.5579 H   0  0  0  0  0  0  0  0  0  0  0  0
   -2.1567    6.1130    0.8347 H   0  0  0  0  0  0  0  0  0  0  0  0
   -1.9984    8.5428    0.2331 H   0  0  0  0  0  0  0  0  0  0  0  0
   -2.9913    7.5855   -0.9231 H   0  0  0  0  0  0  0  0  0  0  0  0
   -1.3117    8.0754   -1.3864 H   0  0  0  0  0  0  0  0  0  0  0  0
   -0.7579    5.6478   -1.8231 H   0  0  0  0  0  0  0  0  0  0  0  0
   -3.5370    4.3360   -0.1832 H   0  0  0  0  0  0  0  0  0  0  0  0
   -4.3940    2.1169   -0.4840 H   0  0  0  0  0  0  0  0  0  0  0  0
   -3.4486    2.5906   -1.9039 H   0  0  0  0  0  0  0  0  0  0  0  0
   -2.7276    0.2140    1.6124 H   0  0  0  0  0  0  0  0  0  0  0  0
   -4.2919    0.3564    0.7644 H   0  0  0  0  0  0  0  0  0  0  0  0
   -1.7353    2.6758    1.6161 H   0  0  0  0  0  0  0  0  0  0  0  0
   -5.0675    4.1483    3.4469 H   0  0  0  0  0  0  0  0  0  0  0  0
   -4.5137    6.4069    2.6483 H   0  0  0  0  0  0  0  0  0  0  0  0
   -4.6949    5.9136    0.9306 H   0  0  0  0  0  0  0  0  0  0  0  0
   -6.1092    5.8945    2.0460 H   0  0  0  0  0  0  0  0  0  0  0  0
   -5.1495    2.2540    1.8576 H   0  0  0  0  0  0  0  0  0  0  0  0
   -6.3141    4.8910   -0.2833 H   0  0  0  0  0  0  0  0  0  0  0  0
   -7.9246    2.4440   -1.1443 H   0  0  0  0  0  0  0  0  0  0  0  0
   -6.2282    2.8623   -1.5823 H   0  0  0  0  0  0  0  0  0  0  0  0
   -7.5765    3.8664   -2.1870 H   0  0  0  0  0  0  0  0  0  0  0  0
   -8.2903    5.7625    0.8099 H   0  0  0  0  0  0  0  0  0  0  0  0
  -10.0507    2.9976    0.6213 H   0  0  0  0  0  0  0  0  0  0  0  0
  -12.4026    4.5158   -0.6652 H   0  0  0  0  0  0  0  0  0  0  0  0
  -12.4781    3.2033    0.5727 H   0  0  0  0  0  0  0  0  0  0  0  0
  -11.7865    4.8037    1.0153 H   0  0  0  0  0  0  0  0  0  0  0  0
  -10.2126    3.0025   -2.3179 H   0  0  0  0  0  0  0  0  0  0  0  0
  -11.1465   -0.5926   -1.4855 H   0  0  0  0  0  0  0  0  0  0  0  0
   -8.8525    0.3447   -1.3677 H   0  0  0  0  0  0  0  0  0  0  0  0
   -9.1570   -0.8146   -0.0393 H   0  0  0  0  0  0  0  0  0  0  0  0
   -9.1797    0.9275    0.3216 H   0  0  0  0  0  0  0  0  0  0  0  0
  -12.3456    0.7255    0.8269 H   0  0  0  0  0  0  0  0  0  0  0  0
  -10.4485   -2.9536    1.5364 H   0  0  0  0  0  0  0  0  0  0  0  0
  -12.5321   -4.3846    1.3923 H   0  0  0  0  0  0  0  0  0  0  0  0
  -13.5118   -2.8750    1.3736 H   0  0  0  0  0  0  0  0  0  0  0  0
  -12.4910   -3.2844    2.8119 H   0  0  0  0  0  0  0  0  0  0  0  0
  -12.2208   -2.5164   -0.8982 H   0  0  0  0  0  0  0  0  0  0  0  0
  1  2  1  0
  2  3  2  0
  2  4  1  0
  4  5  1  0
  5  6  1  0
  6  7  1  0
  7  8  1  0
  8  9  1  0
  9 10  1  0
 10 11  2  0
 11 12  1  0
 12 13  2  0
 13 14  1  0
 13 15  1  0
 15 16  1  0
 16 17  1  0
 17 18  1  0
 18 19  1  0
 19 20  1  0
 19 21  2  0
 18 22  1  0
 22 23  1  0
 23 24  2  0
 23 25  1  0
 25 26  1  0
 25 27  1  0
 27 28  1  0
 28 29  2  0
 28 30  1  0
 30 31  1  0
 30 32  1  0
 32 33  1  0
 33 34  2  0
 33 35  1  0
 35 36  1  0
 35 37  1  0
 37 38  1  0
 38 39  2  0
 38 40  1  0
 40 41  1  0
 40 42  1  0
 42 43  1  0
 43 44  2  0
 43 45  1  0
 45 46  1  0
 45 47  1  0
 47 48  1  0
 48 49  2  0
 48 50  1  0
 50 51  1  0
 50 52  1  0
 52 53  1  0
 53 54  2  0
 53 55  1  0
 55 56  1  0
 55 57  1  0
 57 58  1  0
 58 59  2  0
 58 60  1  0
 60 61  1  0
 60 62  1  0
 62 63  1  0
 63 64  2  0
 63 65  1  0
 65 66  1  0
 65 67  1  0
 67 68  1  0
 68 69  2  0
 68 70  1  0
 70 71  1  0
 70 72  1  0
 72 73  1  0
 73 74  2  0
 73 75  1  0
 75 76  1  0
 76 77  1  0
 77 78  1  0
 75 79  1  0
 79 80  1  0
 80 81  2  0
 80 82  1  0
 82 83  1  0
 82 84  1  0
 84 85  1  0
 85 86  2  0
 85 87  1  0
 87 88  1  0
 87 89  1  0
 89 90  1  0
 90 91  2  0
 90 92  1  0
 92 93  1  0
 92 94  1  0
 94 95  1  0
 95 96  2  0
 95 97  1  0
 97 98  1  0
 97 99  1  0
 99100  1  0
100101  2  0
100102  1  0
102103  1  0
102104  1  0
104105  1  0
105106  2  0
105  5  1  0
 14  9  2  0
 78 11  1  0
  1107  1  0
  1108  1  0
  1109  1  0
  4110  1  0
  5111  1  6
  6112  1  0
  6113  1  0
  8114  1  0
  8115  1  0
 10116  1  0
 12117  1  0
 14118  1  0
 15119  1  0
 15120  1  0
 17121  1  0
 17122  1  0
 18123  1  1
 20124  1  0
 20125  1  0
 22126  1  0
 25127  1  1
 26128  1  0
 26129  1  0
 26130  1  0
 27131  1  0
 30132  1  1
 31133  1  0
 31134  1  0
 31135  1  0
 32136  1  0
 35137  1  1
 36138  1  0
 36139  1  0
 36140  1  0
 37141  1  0
 40142  1  6
 41143  1  0
 41144  1  0
 41145  1  0
 42146  1  0
 45147  1  6
 46148  1  0
 46149  1  0
 46150  1  0
 47151  1  0
 50152  1  1
 51153  1  0
 51154  1  0
 51155  1  0
 52156  1  0
 55157  1  1
 56158  1  0
 56159  1  0
 56160  1  0
 57161  1  0
 60162  1  1
 61163  1  0
 61164  1  0
 61165  1  0
 62166  1  0
 65167  1  6
 66168  1  0
 66169  1  0
 66170  1  0
 67171  1  0
 70172  1  1
 71173  1  0
 71174  1  0
 71175  1  0
 72176  1  0
 75177  1  1
 76178  1  0
 76179  1  0
 78180  1  0
 78181  1  0
 79182  1  0
 82183  1  1
 83184  1  0
 83185  1  0
 83186  1  0
 84187  1  0
 87188  1  6
 88189  1  0
 88190  1  0
 88191  1  0
 89192  1  0
 92193  1  1
 93194  1  0
 93195  1  0
 93196  1  0
 94197  1  0
 97198  1  6
 98199  1  0
 98200  1  0
 98201  1  0
 99202  1  0
102203  1  1
103204  1  0
103205  1  0
103206  1  0
104207  1  0
M  END
