
     RDKit          3D

207209  0  0  0  0  0  0  0  0999 V2000
  -10.6831   -8.1019   -0.5441 C   0  0  0  0  0  0  0  0  0  0  0  0
   -9.7112   -6.9784   -0.7125 C   0  0  0  0  0  0  0  0  0  0  0  0
   -9.0039   -6.9343   -1.7515 O   0  0  0  0  0  0  0  0  0  0  0  0
   -9.5959   -5.9678    0.3016 N   0  0  0  0  0  0  0  0  0  0  0  0
   -8.8300   -4.7208    0.1689 C   0  0  1  0  0  0  0  0  0  0  0  0
   -7.3163   -5.0032    0.2434 C   0  0  0  0  0  0  0  0  0  0  0  0
   -6.3839   -3.4571    0.6000 S   0  0  0  0  0  0  0  0  0  0  0  0
   -5.7364   -3.1208   -1.0801 C   0  0  0  0  0  0  0  0  0  0  0  0
   -4.2331   -3.0390   -1.0474 C   0  0  0  0  0  0  0  0  0  0  0  0
   -3.5654   -1.8583   -1.4296 C   0  0  0  0  0  0  0  0  0  0  0  0
   -2.1603   -1.7666   -1.3395 C   0  0  0  0  0  0  0  0  0  0  0  0
   -1.4312   -2.8836   -0.8966 C   0  0  0  0  0  0  0  0  0  0  0  0
   -2.0834   -4.0825   -0.5597 C   0  0  0  0  0  0  0  0  0  0  0  0
   -3.4814   -4.1502   -0.6302 C   0  0  0  0  0  0  0  0  0  0  0  0
   -1.2737   -5.2589   -0.0881 C   0  0  0  0  0  0  0  0  0  0  0  0
   -0.1379   -5.8199   -1.4114 S   0  0  0  0  0  0  0  0  0  0  0  0
    0.9875   -6.7772   -0.3211 C   0  0  0  0  0  0  0  0  0  0  0  0
    2.4615   -6.4217   -0.5935 C   0  0  1  0  0  0  0  0  0  0  0  0
    2.7128   -4.9401   -0.4740 C   0  0  0  0  0  0  0  0  0  0  0  0
    2.4239   -4.2394    0.7376 N   0  0  0  0  0  0  0  0  0  0  0  0
    3.1695   -4.3069   -1.4616 O   0  0  0  0  0  0  0  0  0  0  0  0
    3.3204   -7.1371    0.3568 N   0  0  0  0  0  0  0  0  0  0  0  0
    4.6514   -7.6172    0.0886 C   0  0  0  0  0  0  0  0  0  0  0  0
    5.4621   -7.6998    1.0522 O   0  0  0  0  0  0  0  0  0  0  0  0
    5.0999   -8.1307   -1.2605 C   0  0  1  0  0  0  0  0  0  0  0  0
    4.1958   -9.2610   -1.7597 C   0  0  0  0  0  0  0  0  0  0  0  0
    5.2069   -7.0475   -2.2519 N   0  0  0  0  0  0  0  0  0  0  0  0
    6.2827   -6.0943   -2.3174 C   0  0  0  0  0  0  0  0  0  0  0  0
    6.1817   -5.1222   -3.1129 O   0  0  0  0  0  0  0  0  0  0  0  0
    7.5618   -6.2711   -1.5285 C   0  0  1  0  0  0  0  0  0  0  0  0
    8.4613   -7.3234   -2.1916 C   0  0  0  0  0  0  0  0  0  0  0  0
    8.2998   -5.0055   -1.4366 N   0  0  0  0  0  0  0  0  0  0  0  0
    8.3104   -4.2266   -0.2347 C   0  0  0  0  0  0  0  0  0  0  0  0
    7.2291   -4.0126    0.3763 O   0  0  0  0  0  0  0  0  0  0  0  0
    9.6103   -3.7319    0.3593 C   0  0  1  0  0  0  0  0  0  0  0  0
   10.4478   -4.9390    0.7981 C   0  0  0  0  0  0  0  0  0  0  0  0
   10.3686   -2.9261   -0.6089 N   0  0  0  0  0  0  0  0  0  0  0  0
   10.8375   -1.5786   -0.4014 C   0  0  0  0  0  0  0  0  0  0  0  0
   11.0748   -0.8726   -1.4189 O   0  0  0  0  0  0  0  0  0  0  0  0
   11.0444   -0.9640    0.9758 C   0  0  1  0  0  0  0  0  0  0  0  0
   11.8596   -1.8780    1.9039 C   0  0  0  0  0  0  0  0  0  0  0  0
   11.7703    0.3096    0.8560 N   0  0  0  0  0  0  0  0  0  0  0  0
   11.5254    1.4596    1.6834 C   0  0  0  0  0  0  0  0  0  0  0  0
   12.4992    2.1874    2.0188 O   0  0  0  0  0  0  0  0  0  0  0  0
   10.1389    1.8320    2.1485 C   0  0  1  0  0  0  0  0  0  0  0  0
    9.9060    1.2508    3.5486 C   0  0  0  0  0  0  0  0  0  0  0  0
    9.9694    3.2931    2.1771 N   0  0  0  0  0  0  0  0  0  0  0  0
   10.1911    4.2095    1.0840 C   0  0  0  0  0  0  0  0  0  0  0  0
   10.5599    5.3815    1.3652 O   0  0  0  0  0  0  0  0  0  0  0  0
    9.9918    3.8734   -0.3810 C   0  0  1  0  0  0  0  0  0  0  0  0
   11.2939    3.4177   -1.0507 C   0  0  0  0  0  0  0  0  0  0  0  0
    8.9283    2.8872   -0.5812 N   0  0  0  0  0  0  0  0  0  0  0  0
    7.5318    3.2172   -0.6533 C   0  0  0  0  0  0  0  0  0  0  0  0
    6.6960    2.3641   -0.2513 O   0  0  0  0  0  0  0  0  0  0  0  0
    7.0487    4.4989   -1.3041 C   0  0  1  0  0  0  0  0  0  0  0  0
    7.3785    4.4627   -2.8013 C   0  0  0  0  0  0  0  0  0  0  0  0
    5.6033    4.6893   -1.1116 N   0  0  0  0  0  0  0  0  0  0  0  0
    4.9907    5.9529   -1.4038 C   0  0  0  0  0  0  0  0  0  0  0  0
    4.7211    6.2373   -2.6035 O   0  0  0  0  0  0  0  0  0  0  0  0
    4.6283    6.9037   -0.2912 C   0  0  1  0  0  0  0  0  0  0  0  0
    5.8801    7.4267    0.4203 C   0  0  0  0  0  0  0  0  0  0  0  0
    3.8647    8.0382   -0.8358 N   0  0  0  0  0  0  0  0  0  0  0  0
    2.4454    8.0314   -1.0646 C   0  0  0  0  0  0  0  0  0  0  0  0
    2.0006    8.6567   -2.0679 O   0  0  0  0  0  0  0  0  0  0  0  0
    1.4626    7.4899   -0.0426 C   0  0  1  0  0  0  0  0  0  0  0  0
    1.1923    8.5798    0.9973 C   0  0  0  0  0  0  0  0  0  0  0  0
    0.2019    7.0549   -0.6841 N   0  0  0  0  0  0  0  0  0  0  0  0
   -0.9194    6.4583   -0.0039 C   0  0  0  0  0  0  0  0  0  0  0  0
   -2.0616    6.5687   -0.5225 O   0  0  0  0  0  0  0  0  0  0  0  0
   -0.7841    5.6770    1.2894 C   0  0  1  0  0  0  0  0  0  0  0  0
   -1.6612    6.3177    2.3752 C   0  0  0  0  0  0  0  0  0  0  0  0
   -1.1477    4.2538    1.1555 N   0  0  0  0  0  0  0  0  0  0  0  0
   -1.7658    3.6519    0.0072 C   0  0  0  0  0  0  0  0  0  0  0  0
   -1.2839    3.8667   -1.1412 O   0  0  0  0  0  0  0  0  0  0  0  0
   -2.9262    2.6900    0.1485 C   0  0  1  0  0  0  0  0  0  0  0  0
   -2.5025    1.2415   -0.1525 C   0  0  0  0  0  0  0  0  0  0  0  0
   -2.3268    0.9964   -1.9573 S   0  0  0  0  0  0  0  0  0  0  0  0
   -1.3844   -0.5737   -1.8662 C   0  0  0  0  0  0  0  0  0  0  0  0
   -3.5031    2.7509    1.4983 N   0  0  0  0  0  0  0  0  0  0  0  0
   -4.9058    2.8880    1.7952 C   0  0  0  0  0  0  0  0  0  0  0  0
   -5.3386    2.3893    2.8648 O   0  0  0  0  0  0  0  0  0  0  0  0
   -5.8831    3.6333    0.9053 C   0  0  1  0  0  0  0  0  0  0  0  0
   -5.3349    5.0239    0.5255 C   0  0  0  0  0  0  0  0  0  0  0  0
   -6.2323    2.8268   -0.2731 N   0  0  0  0  0  0  0  0  0  0  0  0
   -7.3865    3.0196   -1.1157 C   0  0  0  0  0  0  0  0  0  0  0  0
   -7.6226    2.1711   -2.0202 O   0  0  0  0  0  0  0  0  0  0  0  0
   -8.3113    4.2098   -0.9926 C   0  0  1  0  0  0  0  0  0  0  0  0
   -8.0835    5.1687   -2.1673 C   0  0  0  0  0  0  0  0  0  0  0  0
   -9.7109    3.7668   -1.0107 N   0  0  0  0  0  0  0  0  0  0  0  0
  -10.6280    3.8758    0.0881 C   0  0  0  0  0  0  0  0  0  0  0  0
  -11.8668    3.8620   -0.1568 O   0  0  0  0  0  0  0  0  0  0  0  0
  -10.1760    3.8678    1.5354 C   0  0  1  0  0  0  0  0  0  0  0  0
  -10.7700    5.0636    2.2815 C   0  0  0  0  0  0  0  0  0  0  0  0
  -10.5875    2.6052    2.1417 N   0  0  0  0  0  0  0  0  0  0  0  0
   -9.9173    1.3833    1.8006 C   0  0  0  0  0  0  0  0  0  0  0  0
   -8.7040    1.4174    1.4670 O   0  0  0  0  0  0  0  0  0  0  0  0
  -10.6657    0.0841    1.6973 C   0  0  1  0  0  0  0  0  0  0  0  0
  -11.7332   -0.0653    2.7820 C   0  0  0  0  0  0  0  0  0  0  0  0
  -11.2848   -0.0041    0.3671 N   0  0  0  0  0  0  0  0  0  0  0  0
  -11.7143   -1.2080   -0.2859 C   0  0  0  0  0  0  0  0  0  0  0  0
  -12.5658   -1.1203   -1.2104 O   0  0  0  0  0  0  0  0  0  0  0  0
  -11.1207   -2.5678    0.0145 C   0  0  1  0  0  0  0  0  0  0  0  0
  -12.2349   -3.5816    0.2915 C   0  0  0  0  0  0  0  0  0  0  0  0
  -10.2993   -3.0061   -1.1258 N   0  0  0  0  0  0  0  0  0  0  0  0
   -9.2291   -3.9638   -1.0852 C   0  0  0  0  0  0  0  0  0  0  0  0
   -8.6209   -4.2140   -2.1644 O   0  0  0  0  0  0  0  0  0  0  0  0
  -11.2554   -8.0051    0.4024 H   0  0  0  0  0  0  0  0  0  0  0  0
  -10.1492   -9.0760   -0.5393 H   0  0  0  0  0  0  0  0  0  0  0  0
  -11.4005   -8.0925   -1.3927 H   0  0  0  0  0  0  0  0  0  0  0  0
  -10.0873   -6.1256    1.2110 H   0  0  0  0  0  0  0  0  0  0  0  0
   -9.0602   -4.0961    1.0567 H   0  0  0  0  0  0  0  0  0  0  0  0
   -7.1306   -5.6909    1.0970 H   0  0  0  0  0  0  0  0  0  0  0  0
   -6.9530   -5.5225   -0.6661 H   0  0  0  0  0  0  0  0  0  0  0  0
   -6.0372   -3.8893   -1.8142 H   0  0  0  0  0  0  0  0  0  0  0  0
   -6.1761   -2.1601   -1.4179 H   0  0  0  0  0  0  0  0  0  0  0  0
   -4.1467   -1.0264   -1.8125 H   0  0  0  0  0  0  0  0  0  0  0  0
   -0.3456   -2.8354   -0.8450 H   0  0  0  0  0  0  0  0  0  0  0  0
   -3.9927   -5.0626   -0.3437 H   0  0  0  0  0  0  0  0  0  0  0  0
   -1.9242   -6.1065    0.2070 H   0  0  0  0  0  0  0  0  0  0  0  0
   -0.7083   -4.9334    0.8106 H   0  0  0  0  0  0  0  0  0  0  0  0
    0.7645   -6.6087    0.7489 H   0  0  0  0  0  0  0  0  0  0  0  0
    0.8338   -7.8551   -0.5201 H   0  0  0  0  0  0  0  0  0  0  0  0
    2.6843   -6.7387   -1.6316 H   0  0  0  0  0  0  0  0  0  0  0  0
    2.0659   -4.7462    1.5786 H   0  0  0  0  0  0  0  0  0  0  0  0
    2.4505   -3.1959    0.7594 H   0  0  0  0  0  0  0  0  0  0  0  0
    3.0491   -7.0793    1.3661 H   0  0  0  0  0  0  0  0  0  0  0  0
    6.0986   -8.5997   -1.1311 H   0  0  0  0  0  0  0  0  0  0  0  0
    4.6089   -9.6829   -2.7048 H   0  0  0  0  0  0  0  0  0  0  0  0
    4.1589  -10.0817   -1.0084 H   0  0  0  0  0  0  0  0  0  0  0  0
    3.1636   -8.9124   -1.9626 H   0  0  0  0  0  0  0  0  0  0  0  0
    4.4704   -6.9782   -2.9911 H   0  0  0  0  0  0  0  0  0  0  0  0
    7.3162   -6.6230   -0.5068 H   0  0  0  0  0  0  0  0  0  0  0  0
    7.9323   -8.2840   -2.3605 H   0  0  0  0  0  0  0  0  0  0  0  0
    8.8277   -6.9630   -3.1768 H   0  0  0  0  0  0  0  0  0  0  0  0
    9.3419   -7.5220   -1.5389 H   0  0  0  0  0  0  0  0  0  0  0  0
    9.0174   -4.7966   -2.1666 H   0  0  0  0  0  0  0  0  0  0  0  0
    9.3621   -3.1184    1.2515 H   0  0  0  0  0  0  0  0  0  0  0  0
   11.4553   -4.6195    1.1352 H   0  0  0  0  0  0  0  0  0  0  0  0
   10.5813   -5.6461   -0.0452 H   0  0  0  0  0  0  0  0  0  0  0  0
    9.9456   -5.4646    1.6342 H   0  0  0  0  0  0  0  0  0  0  0  0
   10.6092   -3.3604   -1.5282 H   0  0  0  0  0  0  0  0  0  0  0  0
   10.0449   -0.8005    1.4254 H   0  0  0  0  0  0  0  0  0  0  0  0
   11.2235   -2.6541    2.3712 H   0  0  0  0  0  0  0  0  0  0  0  0
   12.6967   -2.3603    1.3515 H   0  0  0  0  0  0  0  0  0  0  0  0
   12.2846   -1.2880    2.7429 H   0  0  0  0  0  0  0  0  0  0  0  0
   12.6890    0.2840    0.3538 H   0  0  0  0  0  0  0  0  0  0  0  0
    9.3786    1.3919    1.4777 H   0  0  0  0  0  0  0  0  0  0  0  0
   10.6099    1.7044    4.2790 H   0  0  0  0  0  0  0  0  0  0  0  0
    8.8656    1.4714    3.8749 H   0  0  0  0  0  0  0  0  0  0  0  0
   10.0416    0.1496    3.5568 H   0  0  0  0  0  0  0  0  0  0  0  0
    9.8194    3.7407    3.1112 H   0  0  0  0  0  0  0  0  0  0  0  0
    9.7187    4.8195   -0.8956 H   0  0  0  0  0  0  0  0  0  0  0  0
   12.1403    4.0705   -0.7516 H   0  0  0  0  0  0  0  0  0  0  0  0
   11.1772    3.4833   -2.1540 H   0  0  0  0  0  0  0  0  0  0  0  0
   11.5371    2.3696   -0.8046 H   0  0  0  0  0  0  0  0  0  0  0  0
    9.1835    1.8762   -0.6624 H   0  0  0  0  0  0  0  0  0  0  0  0
    7.5788    5.3591   -0.8402 H   0  0  0  0  0  0  0  0  0  0  0  0
    7.1073    5.4265   -3.2812 H   0  0  0  0  0  0  0  0  0  0  0  0
    8.4683    4.3088   -2.9553 H   0  0  0  0  0  0  0  0  0  0  0  0
    6.8210    3.6436   -3.3015 H   0  0  0  0  0  0  0  0  0  0  0  0
    4.9751    3.8597   -1.1900 H   0  0  0  0  0  0  0  0  0  0  0  0
    4.0338    6.3518    0.4636 H   0  0  0  0  0  0  0  0  0  0  0  0
    6.5353    7.9634   -0.2962 H   0  0  0  0  0  0  0  0  0  0  0  0
    5.5866    8.1232    1.2308 H   0  0  0  0  0  0  0  0  0  0  0  0
    6.4388    6.5874    0.8791 H   0  0  0  0  0  0  0  0  0  0  0  0
    4.4118    8.7604   -1.3603 H   0  0  0  0  0  0  0  0  0  0  0  0
    1.9128    6.6154    0.4631 H   0  0  0  0  0  0  0  0  0  0  0  0
    0.6501    8.1685    1.8678 H   0  0  0  0  0  0  0  0  0  0  0  0
    0.5937    9.4070    0.5583 H   0  0  0  0  0  0  0  0  0  0  0  0
    2.1515    9.0032    1.3779 H   0  0  0  0  0  0  0  0  0  0  0  0
    0.0393    7.3089   -1.6863 H   0  0  0  0  0  0  0  0  0  0  0  0
    0.2633    5.7110    1.6485 H   0  0  0  0  0  0  0  0  0  0  0  0
   -1.6104    5.7265    3.3143 H   0  0  0  0  0  0  0  0  0  0  0  0
   -2.7204    6.3828    2.0359 H   0  0  0  0  0  0  0  0  0  0  0  0
   -1.3229    7.3490    2.5897 H   0  0  0  0  0  0  0  0  0  0  0  0
   -1.0707    3.6805    2.0213 H   0  0  0  0  0  0  0  0  0  0  0  0
   -3.6770    2.9819   -0.6079 H   0  0  0  0  0  0  0  0  0  0  0  0
   -1.5578    0.9874    0.3865 H   0  0  0  0  0  0  0  0  0  0  0  0
   -3.3026    0.5502    0.2033 H   0  0  0  0  0  0  0  0  0  0  0  0
   -1.0488   -0.8190   -2.8984 H   0  0  0  0  0  0  0  0  0  0  0  0
   -0.4686   -0.4064   -1.2540 H   0  0  0  0  0  0  0  0  0  0  0  0
   -2.9037    2.3993    2.2803 H   0  0  0  0  0  0  0  0  0  0  0  0
   -6.8065    3.7916    1.4989 H   0  0  0  0  0  0  0  0  0  0  0  0
   -5.0344    5.5856    1.4395 H   0  0  0  0  0  0  0  0  0  0  0  0
   -4.4831    4.9609   -0.1712 H   0  0  0  0  0  0  0  0  0  0  0  0
   -6.1002    5.6365    0.0091 H   0  0  0  0  0  0  0  0  0  0  0  0
   -5.6844    1.9566   -0.4605 H   0  0  0  0  0  0  0  0  0  0  0  0
   -8.1152    4.7942   -0.0769 H   0  0  0  0  0  0  0  0  0  0  0  0
   -8.3911    4.6963   -3.1248 H   0  0  0  0  0  0  0  0  0  0  0  0
   -7.0125    5.4468   -2.2405 H   0  0  0  0  0  0  0  0  0  0  0  0
   -8.6778    6.0971   -2.0192 H   0  0  0  0  0  0  0  0  0  0  0  0
  -10.1039    3.4347   -1.9214 H   0  0  0  0  0  0  0  0  0  0  0  0
   -9.0801    3.9527    1.6215 H   0  0  0  0  0  0  0  0  0  0  0  0
  -10.3875    5.0842    3.3264 H   0  0  0  0  0  0  0  0  0  0  0  0
  -10.4751    6.0146    1.7847 H   0  0  0  0  0  0  0  0  0  0  0  0
  -11.8789    5.0057    2.3115 H   0  0  0  0  0  0  0  0  0  0  0  0
  -11.2343    2.6189    2.9672 H   0  0  0  0  0  0  0  0  0  0  0  0
   -9.9122   -0.7222    1.8393 H   0  0  0  0  0  0  0  0  0  0  0  0
  -12.5638    0.6527    2.6108 H   0  0  0  0  0  0  0  0  0  0  0  0
  -11.2944    0.1129    3.7898 H   0  0  0  0  0  0  0  0  0  0  0  0
  -12.1558   -1.0925    2.7604 H   0  0  0  0  0  0  0  0  0  0  0  0
  -11.6236    0.8914   -0.0561 H   0  0  0  0  0  0  0  0  0  0  0  0
  -10.5001   -2.5110    0.9184 H   0  0  0  0  0  0  0  0  0  0  0  0
  -12.7899   -3.8313   -0.6409 H   0  0  0  0  0  0  0  0  0  0  0  0
  -12.9498   -3.1710    1.0399 H   0  0  0  0  0  0  0  0  0  0  0  0
  -11.8104   -4.5152    0.7160 H   0  0  0  0  0  0  0  0  0  0  0  0
  -10.4611   -2.5418   -2.0516 H   0  0  0  0  0  0  0  0  0  0  0  0
  1  2  1  0
  2  3  2  0
  2  4  1  0
  4  5  1  0
  5  6  1  0
  6  7  1  0
  7  8  1  0
  8  9  1  0
  9 10  1  0
 10 11  2  0
 11 12  1  0
 12 13  2  0
 13 14  1  0
 13 15  1  0
 15 16  1  0
 16 17  1  0
 17 18  1  0
 18 19  1  0
 19 20  1  0
 19 21  2  0
 18 22  1  0
 22 23  1  0
 23 24  2  0
 23 25  1  0
 25 26  1  0
 25 27  1  0
 27 28  1  0
 28 29  2  0
 28 30  1  0
 30 31  1  0
 30 32  1  0
 32 33  1  0
 33 34  2  0
 33 35  1  0
 35 36  1  0
 35 37  1  0
 37 38  1  0
 38 39  2  0
 38 40  1  0
 40 41  1  0
 40 42  1  0
 42 43  1  0
 43 44  2  0
 43 45  1  0
 45 46  1  0
 45 47  1  0
 47 48  1  0
 48 49  2  0
 48 50  1  0
 50 51  1  0
 50 52  1  0
 52 53  1  0
 53 54  2  0
 53 55  1  0
 55 56  1  0
 55 57  1  0
 57 58  1  0
 58 59  2  0
 58 60  1  0
 60 61  1  0
 60 62  1  0
 62 63  1  0
 63 64  2  0
 63 65  1  0
 65 66  1  0
 65 67  1  0
 67 68  1  0
 68 69  2  0
 68 70  1  0
 70 71  1  0
 70 72  1  0
 72 73  1  0
 73 74  2  0
 73 75  1  0
 75 76  1  0
 76 77  1  0
 77 78  1  0
 75 79  1  0
 79 80  1  0
 80 81  2  0
 80 82  1  0
 82 83  1  0
 82 84  1  0
 84 85  1  0
 85 86  2  0
 85 87  1  0
 87 88  1  0
 87 89  1  0
 89 90  1  0
 90 91  2  0
 90 92  1  0
 92 93  1  0
 92 94  1  0
 94 95  1  0
 95 96  2  0
 95 97  1  0
 97 98  1  0
 97 99  1  0
 99100  1  0
100101  2  0
100102  1  0
102103  1  0
102104  1  0
104105  1  0
105106  2  0
105  5  1  0
 14  9  2  0
 78 11  1  0
  1107  1  0
  1108  1  0
  1109  1  0
  4110  1  0
  5111  1  1
  6112  1  0
  6113  1  0
  8114  1  0
  8115  1  0
 10116  1  0
 12117  1  0
 14118  1  0
 15119  1  0
 15120  1  0
 17121  1  0
 17122  1  0
 18123  1  6
 20124  1  0
 20125  1  0
 22126  1  0
 25127  1  1
 26128  1  0
 26129  1  0
 26130  1  0
 27131  1  0
 30132  1  1
 31133  1  0
 31134  1  0
 31135  1  0
 32136  1  0
 35137  1  1
 36138  1  0
 36139  1  0
 36140  1  0
 37141  1  0
 40142  1  1
 41143  1  0
 41144  1  0
 41145  1  0
 42146  1  0
 45147  1  6
 46148  1  0
 46149  1  0
 46150  1  0
 47151  1  0
 50152  1  6
 51153  1  0
 51154  1  0
 51155  1  0
 52156  1  0
 55157  1  1
 56158  1  0
 56159  1  0
 56160  1  0
 57161  1  0
 60162  1  1
 61163  1  0
 61164  1  0
 61165  1  0
 62166  1  0
 65167  1  1
 66168  1  0
 66169  1  0
 66170  1  0
 67171  1  0
 70172  1  1
 71173  1  0
 71174  1  0
 71175  1  0
 72176  1  0
 75177  1  6
 76178  1  0
 76179  1  0
 78180  1  0
 78181  1  0
 79182  1  0
 82183  1  1
 83184  1  0
 83185  1  0
 83186  1  0
 84187  1  0
 87188  1  1
 88189  1  0
 88190  1  0
 88191  1  0
 89192  1  0
 92193  1  6
 93194  1  0
 93195  1  0
 93196  1  0
 94197  1  0
 97198  1  1
 98199  1  0
 98200  1  0
 98201  1  0
 99202  1  0
102203  1  1
103204  1  0
103205  1  0
103206  1  0
104207  1  0
M  END
