
     RDKit          3D

197199  0  0  0  0  0  0  0  0999 V2000
   -8.6885   -5.6455   -4.6117 C   0  0  0  0  0  0  0  0  0  0  0  0
   -8.4413   -5.2270   -3.2000 C   0  0  0  0  0  0  0  0  0  0  0  0
   -8.3856   -3.9966   -2.9247 O   0  0  0  0  0  0  0  0  0  0  0  0
   -8.2746   -6.2250   -2.1812 N   0  0  0  0  0  0  0  0  0  0  0  0
   -7.8430   -5.9885   -0.7964 C   0  0  1  0  0  0  0  0  0  0  0  0
   -6.6402   -5.0313   -0.7158 C   0  0  0  0  0  0  0  0  0  0  0  0
   -5.8580   -5.1156    0.9380 S   0  0  0  0  0  0  0  0  0  0  0  0
   -5.3334   -3.3577    1.0193 C   0  0  0  0  0  0  0  0  0  0  0  0
   -4.0097   -3.1230    1.7136 C   0  0  0  0  0  0  0  0  0  0  0  0
   -3.6854   -1.8083    2.0909 C   0  0  0  0  0  0  0  0  0  0  0  0
   -2.4260   -1.4972    2.6259 C   0  0  0  0  0  0  0  0  0  0  0  0
   -1.4576   -2.5099    2.7379 C   0  0  0  0  0  0  0  0  0  0  0  0
   -1.7693   -3.8330    2.3802 C   0  0  0  0  0  0  0  0  0  0  0  0
   -3.0487   -4.1360    1.8806 C   0  0  0  0  0  0  0  0  0  0  0  0
   -0.7478   -4.9259    2.5307 C   0  0  0  0  0  0  0  0  0  0  0  0
   -0.4665   -5.7549    0.9229 S   0  0  0  0  0  0  0  0  0  0  0  0
    0.9536   -4.7380    0.3625 C   0  0  0  0  0  0  0  0  0  0  0  0
    2.3028   -5.4810    0.4998 C   0  0  1  0  0  0  0  0  0  0  0  0
    2.6464   -5.6948    1.9551 C   0  0  0  0  0  0  0  0  0  0  0  0
    2.0964   -6.7901    2.6888 N   0  0  0  0  0  0  0  0  0  0  0  0
    3.4263   -4.8884    2.5301 O   0  0  0  0  0  0  0  0  0  0  0  0
    2.2866   -6.7503   -0.2431 N   0  0  0  0  0  0  0  0  0  0  0  0
    3.3810   -7.6816   -0.3364 C   0  0  0  0  0  0  0  0  0  0  0  0
    3.1504   -8.8450   -0.7645 O   0  0  0  0  0  0  0  0  0  0  0  0
    4.8007   -7.3158    0.0455 C   0  0  1  0  0  0  0  0  0  0  0  0
    5.2162   -8.1035    1.2903 C   0  0  0  0  0  0  0  0  0  0  0  0
    5.7160   -7.6195   -1.0629 N   0  0  0  0  0  0  0  0  0  0  0  0
    7.0832   -7.1722   -1.1618 C   0  0  0  0  0  0  0  0  0  0  0  0
    7.8964   -7.8786   -1.8203 O   0  0  0  0  0  0  0  0  0  0  0  0
    7.5687   -5.8746   -0.5486 C   0  0  1  0  0  0  0  0  0  0  0  0
    8.6534   -6.1290    0.5083 C   0  0  0  0  0  0  0  0  0  0  0  0
    8.0347   -4.9597   -1.5973 N   0  0  0  0  0  0  0  0  0  0  0  0
    9.3704   -4.9698   -2.1316 C   0  0  0  0  0  0  0  0  0  0  0  0
    9.9431   -6.0639   -2.3949 O   0  0  0  0  0  0  0  0  0  0  0  0
   10.0907   -3.6751   -2.4174 C   0  0  1  0  0  0  0  0  0  0  0  0
    9.9718   -3.3217   -3.9063 C   0  0  0  0  0  0  0  0  0  0  0  0
    9.6001   -2.6216   -1.5135 N   0  0  0  0  0  0  0  0  0  0  0  0
    9.4956   -1.2258   -1.8402 C   0  0  0  0  0  0  0  0  0  0  0  0
    8.8563   -0.8713   -2.8706 O   0  0  0  0  0  0  0  0  0  0  0  0
   10.0205   -0.1618   -0.9011 C   0  0  1  0  0  0  0  0  0  0  0  0
   11.1217   -0.6984    0.0237 C   0  0  0  0  0  0  0  0  0  0  0  0
   10.5508    0.9707   -1.6747 N   0  0  0  0  0  0  0  0  0  0  0  0
   10.6390    2.3296   -1.2092 C   0  0  0  0  0  0  0  0  0  0  0  0
   10.9932    3.2217   -2.0285 O   0  0  0  0  0  0  0  0  0  0  0  0
   10.3875    2.7335    0.2283 C   0  0  1  0  0  0  0  0  0  0  0  0
   11.7116    3.1431    0.8813 C   0  0  0  0  0  0  0  0  0  0  0  0
    9.4364    3.8477    0.2795 N   0  0  0  0  0  0  0  0  0  0  0  0
    8.0401    3.6777   -0.0141 C   0  0  0  0  0  0  0  0  0  0  0  0
    7.6074    2.5522   -0.3920 O   0  0  0  0  0  0  0  0  0  0  0  0
    7.0780    4.8285    0.1331 C   0  0  1  0  0  0  0  0  0  0  0  0
    7.0707    5.3367    1.5807 C   0  0  0  0  0  0  0  0  0  0  0  0
    7.4409    5.9128   -0.7886 N   0  0  0  0  0  0  0  0  0  0  0  0
    6.5675    6.9802   -1.2056 C   0  0  0  0  0  0  0  0  0  0  0  0
    7.0451    7.8833   -1.9498 O   0  0  0  0  0  0  0  0  0  0  0  0
    5.1076    7.0732   -0.8057 C   0  0  1  0  0  0  0  0  0  0  0  0
    4.8655    8.3937   -0.0627 C   0  0  0  0  0  0  0  0  0  0  0  0
    4.2664    6.9990   -2.0072 N   0  0  0  0  0  0  0  0  0  0  0  0
    2.9511    6.4144   -2.0538 C   0  0  0  0  0  0  0  0  0  0  0  0
    2.5508    5.9159   -3.1390 O   0  0  0  0  0  0  0  0  0  0  0  0
    1.9884    6.5372   -0.8966 C   0  0  1  0  0  0  0  0  0  0  0  0
    1.3051    7.9046   -0.9445 C   0  0  0  0  0  0  0  0  0  0  0  0
    0.9672    5.4875   -0.9574 N   0  0  0  0  0  0  0  0  0  0  0  0
    0.8120    4.5267    0.0914 C   0  0  0  0  0  0  0  0  0  0  0  0
    1.7725    3.7604    0.3741 O   0  0  0  0  0  0  0  0  0  0  0  0
   -0.4365    4.4901    0.9372 C   0  0  1  0  0  0  0  0  0  0  0  0
   -0.3881    5.6346    1.9516 C   0  0  0  0  0  0  0  0  0  0  0  0
   -1.6363    4.6101    0.1001 N   0  0  0  0  0  0  0  0  0  0  0  0
   -2.5524    3.5254   -0.1203 C   0  0  0  0  0  0  0  0  0  0  0  0
   -2.6894    3.0794   -1.2911 O   0  0  0  0  0  0  0  0  0  0  0  0
   -3.4621    3.0071    0.9722 C   0  0  1  0  0  0  0  0  0  0  0  0
   -3.3350    1.4813    1.1507 C   0  0  0  0  0  0  0  0  0  0  0  0
   -1.6419    0.9403    1.6337 S   0  0  0  0  0  0  0  0  0  0  0  0
   -2.1150   -0.0909    3.0692 C   0  0  0  0  0  0  0  0  0  0  0  0
   -3.2288    3.6998    2.2427 N   0  0  0  0  0  0  0  0  0  0  0  0
   -3.8889    4.8848    2.7437 C   0  0  0  0  0  0  0  0  0  0  0  0
   -3.5452    5.2891    3.8916 O   0  0  0  0  0  0  0  0  0  0  0  0
   -5.0287    5.6297    2.0530 C   0  0  1  0  0  0  0  0  0  0  0  0
   -4.9439    7.1371    2.3433 C   0  0  0  0  0  0  0  0  0  0  0  0
   -5.0612    5.4419    0.6034 N   0  0  0  0  0  0  0  0  0  0  0  0
   -6.2975    5.4801   -0.1282 C   0  0  0  0  0  0  0  0  0  0  0  0
   -6.5546    6.5036   -0.8170 O   0  0  0  0  0  0  0  0  0  0  0  0
   -7.2559    4.2983   -0.1470 C   0  0  1  0  0  0  0  0  0  0  0  0
   -7.8887    4.0482    1.2264 C   0  0  0  0  0  0  0  0  0  0  0  0
   -8.3193    4.5153   -1.1326 N   0  0  0  0  0  0  0  0  0  0  0  0
   -8.6812    3.5470   -2.1270 C   0  0  0  0  0  0  0  0  0  0  0  0
   -8.7979    3.9174   -3.3262 O   0  0  0  0  0  0  0  0  0  0  0  0
   -8.9954    2.1186   -1.7477 C   0  0  1  0  0  0  0  0  0  0  0  0
  -10.4228    1.7733   -2.1847 C   0  0  0  0  0  0  0  0  0  0  0  0
   -8.0406    1.1927   -2.3620 N   0  0  0  0  0  0  0  0  0  0  0  0
   -7.9394   -0.2044   -2.0205 C   0  0  0  0  0  0  0  0  0  0  0  0
   -7.8100   -1.0386   -2.9578 O   0  0  0  0  0  0  0  0  0  0  0  0
   -7.9235   -0.7215   -0.5919 C   0  0  1  0  0  0  0  0  0  0  0  0
   -6.9186    0.0285    0.2849 C   0  0  0  0  0  0  0  0  0  0  0  0
   -9.2615   -0.7029    0.0093 N   0  0  0  0  0  0  0  0  0  0  0  0
  -10.0452   -1.8775    0.2769 C   0  0  0  0  0  0  0  0  0  0  0  0
  -11.2990   -1.8195    0.1289 O   0  0  0  0  0  0  0  0  0  0  0  0
   -9.4315   -3.1486    0.8165 C   0  0  1  0  0  0  0  0  0  0  0  0
  -10.0626   -3.4980    2.1672 C   0  0  0  0  0  0  0  0  0  0  0  0
   -9.6024   -4.2437   -0.1433 N   0  0  0  0  0  0  0  0  0  0  0  0
   -8.9918   -5.5220    0.0622 C   0  0  0  0  0  0  0  0  0  0  0  0
   -9.4048   -6.2576    0.9943 O   0  0  0  0  0  0  0  0  0  0  0  0
   -8.8069   -4.7596   -5.2737 H   0  0  0  0  0  0  0  0  0  0  0  0
   -7.8267   -6.2463   -4.9726 H   0  0  0  0  0  0  0  0  0  0  0  0
   -9.6103   -6.2593   -4.6570 H   0  0  0  0  0  0  0  0  0  0  0  0
   -8.3689   -7.2226   -2.4808 H   0  0  0  0  0  0  0  0  0  0  0  0
   -7.5021   -6.9679   -0.3919 H   0  0  0  0  0  0  0  0  0  0  0  0
   -6.9743   -4.0013   -0.9349 H   0  0  0  0  0  0  0  0  0  0  0  0
   -5.8829   -5.3216   -1.4726 H   0  0  0  0  0  0  0  0  0  0  0  0
   -5.2408   -2.9197    0.0019 H   0  0  0  0  0  0  0  0  0  0  0  0
   -6.1189   -2.8033    1.5732 H   0  0  0  0  0  0  0  0  0  0  0  0
   -4.4338   -1.0365    1.9809 H   0  0  0  0  0  0  0  0  0  0  0  0
   -0.4748   -2.2728    3.1277 H   0  0  0  0  0  0  0  0  0  0  0  0
   -3.2630   -5.1553    1.5866 H   0  0  0  0  0  0  0  0  0  0  0  0
   -1.1380   -5.6864    3.2367 H   0  0  0  0  0  0  0  0  0  0  0  0
    0.2026   -4.5448    2.9650 H   0  0  0  0  0  0  0  0  0  0  0  0
    0.7889   -4.5058   -0.7123 H   0  0  0  0  0  0  0  0  0  0  0  0
    0.9972   -3.7572    0.8904 H   0  0  0  0  0  0  0  0  0  0  0  0
    3.0710   -4.8165    0.0434 H   0  0  0  0  0  0  0  0  0  0  0  0
    1.4852   -7.4942    2.2239 H   0  0  0  0  0  0  0  0  0  0  0  0
    2.3071   -6.8945    3.7055 H   0  0  0  0  0  0  0  0  0  0  0  0
    1.4073   -7.0296   -0.7303 H   0  0  0  0  0  0  0  0  0  0  0  0
    4.8363   -6.2392    0.2823 H   0  0  0  0  0  0  0  0  0  0  0  0
    6.1989   -7.7527    1.6584 H   0  0  0  0  0  0  0  0  0  0  0  0
    4.4799   -7.9707    2.1072 H   0  0  0  0  0  0  0  0  0  0  0  0
    5.2977   -9.1878    1.0557 H   0  0  0  0  0  0  0  0  0  0  0  0
    5.4489   -8.3970   -1.7138 H   0  0  0  0  0  0  0  0  0  0  0  0
    6.7390   -5.3645   -0.0258 H   0  0  0  0  0  0  0  0  0  0  0  0
    8.2337   -6.6936    1.3631 H   0  0  0  0  0  0  0  0  0  0  0  0
    9.4989   -6.7136    0.0879 H   0  0  0  0  0  0  0  0  0  0  0  0
    9.0415   -5.1611    0.8898 H   0  0  0  0  0  0  0  0  0  0  0  0
    7.4335   -4.1322   -1.8149 H   0  0  0  0  0  0  0  0  0  0  0  0
   11.1690   -3.8345   -2.1848 H   0  0  0  0  0  0  0  0  0  0  0  0
    8.9056   -3.2384   -4.2007 H   0  0  0  0  0  0  0  0  0  0  0  0
   10.5066   -2.3761   -4.1334 H   0  0  0  0  0  0  0  0  0  0  0  0
   10.4459   -4.1196   -4.5182 H   0  0  0  0  0  0  0  0  0  0  0  0
    9.5127   -2.8816   -0.5039 H   0  0  0  0  0  0  0  0  0  0  0  0
    9.1544    0.1675   -0.2913 H   0  0  0  0  0  0  0  0  0  0  0  0
   10.7003   -1.4119    0.7637 H   0  0  0  0  0  0  0  0  0  0  0  0
   11.5820    0.1227    0.6031 H   0  0  0  0  0  0  0  0  0  0  0  0
   11.9188   -1.1995   -0.5656 H   0  0  0  0  0  0  0  0  0  0  0  0
   10.9089    0.7812   -2.6395 H   0  0  0  0  0  0  0  0  0  0  0  0
    9.9760    1.8996    0.8280 H   0  0  0  0  0  0  0  0  0  0  0  0
   11.5431    3.4068    1.9471 H   0  0  0  0  0  0  0  0  0  0  0  0
   12.1501    4.0252    0.3654 H   0  0  0  0  0  0  0  0  0  0  0  0
   12.4453    2.3128    0.8361 H   0  0  0  0  0  0  0  0  0  0  0  0
    9.7769    4.7982    0.5493 H   0  0  0  0  0  0  0  0  0  0  0  0
    6.0613    4.4451   -0.1190 H   0  0  0  0  0  0  0  0  0  0  0  0
    8.0569    5.7700    1.8517 H   0  0  0  0  0  0  0  0  0  0  0  0
    6.8439    4.5030    2.2788 H   0  0  0  0  0  0  0  0  0  0  0  0
    6.3029    6.1253    1.7164 H   0  0  0  0  0  0  0  0  0  0  0  0
    8.4265    5.9559   -1.1385 H   0  0  0  0  0  0  0  0  0  0  0  0
    4.8401    6.2489   -0.1197 H   0  0  0  0  0  0  0  0  0  0  0  0
    5.6614    8.5602    0.6975 H   0  0  0  0  0  0  0  0  0  0  0  0
    3.8981    8.3658    0.4762 H   0  0  0  0  0  0  0  0  0  0  0  0
    4.8614    9.2492   -0.7693 H   0  0  0  0  0  0  0  0  0  0  0  0
    4.6685    7.3116   -2.9224 H   0  0  0  0  0  0  0  0  0  0  0  0
    2.5419    6.4547    0.0603 H   0  0  0  0  0  0  0  0  0  0  0  0
    0.6495    8.0327   -0.0568 H   0  0  0  0  0  0  0  0  0  0  0  0
    2.0507    8.7331   -0.9516 H   0  0  0  0  0  0  0  0  0  0  0  0
    0.6756    7.9857   -1.8607 H   0  0  0  0  0  0  0  0  0  0  0  0
    0.2654    5.5046   -1.7358 H   0  0  0  0  0  0  0  0  0  0  0  0
   -0.4604    3.5287    1.4944 H   0  0  0  0  0  0  0  0  0  0  0  0
   -0.5413    6.6088    1.4469 H   0  0  0  0  0  0  0  0  0  0  0  0
    0.5896    5.6455    2.4756 H   0  0  0  0  0  0  0  0  0  0  0  0
   -1.1809    5.5060    2.7099 H   0  0  0  0  0  0  0  0  0  0  0  0
   -1.7379    5.4574   -0.5095 H   0  0  0  0  0  0  0  0  0  0  0  0
   -4.5084    3.1507    0.6558 H   0  0  0  0  0  0  0  0  0  0  0  0
   -3.5974    0.9714    0.1992 H   0  0  0  0  0  0  0  0  0  0  0  0
   -4.0992    1.1774    1.8964 H   0  0  0  0  0  0  0  0  0  0  0  0
   -1.2630   -0.0957    3.7791 H   0  0  0  0  0  0  0  0  0  0  0  0
   -2.9768    0.3383    3.6211 H   0  0  0  0  0  0  0  0  0  0  0  0
   -2.5059    3.2895    2.8785 H   0  0  0  0  0  0  0  0  0  0  0  0
   -5.9608    5.2732    2.5174 H   0  0  0  0  0  0  0  0  0  0  0  0
   -3.9667    7.5436    1.9963 H   0  0  0  0  0  0  0  0  0  0  0  0
   -5.7609    7.6736    1.8154 H   0  0  0  0  0  0  0  0  0  0  0  0
   -5.0547    7.3359    3.4280 H   0  0  0  0  0  0  0  0  0  0  0  0
   -4.2212    5.7652    0.0758 H   0  0  0  0  0  0  0  0  0  0  0  0
   -6.6752    3.3955   -0.4321 H   0  0  0  0  0  0  0  0  0  0  0  0
   -8.7814    3.3999    1.1422 H   0  0  0  0  0  0  0  0  0  0  0  0
   -7.1684    3.5203    1.8853 H   0  0  0  0  0  0  0  0  0  0  0  0
   -8.2074    5.0047    1.6913 H   0  0  0  0  0  0  0  0  0  0  0  0
   -8.8087    5.4398   -1.1581 H   0  0  0  0  0  0  0  0  0  0  0  0
   -8.9394    2.0471   -0.6531 H   0  0  0  0  0  0  0  0  0  0  0  0
  -10.6732    0.7264   -1.9163 H   0  0  0  0  0  0  0  0  0  0  0  0
  -10.5348    1.8768   -3.2836 H   0  0  0  0  0  0  0  0  0  0  0  0
  -11.1529    2.4459   -1.6782 H   0  0  0  0  0  0  0  0  0  0  0  0
   -7.6623    1.4562   -3.2982 H   0  0  0  0  0  0  0  0  0  0  0  0
   -7.5640   -1.7692   -0.6511 H   0  0  0  0  0  0  0  0  0  0  0  0
   -5.8925   -0.1175   -0.1111 H   0  0  0  0  0  0  0  0  0  0  0  0
   -6.9520   -0.3743    1.3193 H   0  0  0  0  0  0  0  0  0  0  0  0
   -7.1385    1.1103    0.3288 H   0  0  0  0  0  0  0  0  0  0  0  0
   -9.7310    0.2106    0.1884 H   0  0  0  0  0  0  0  0  0  0  0  0
   -8.3511   -2.9882    0.9990 H   0  0  0  0  0  0  0  0  0  0  0  0
  -11.1035   -3.8660    2.0325 H   0  0  0  0  0  0  0  0  0  0  0  0
   -9.4652   -4.2814    2.6782 H   0  0  0  0  0  0  0  0  0  0  0  0
  -10.0728   -2.6045    2.8300 H   0  0  0  0  0  0  0  0  0  0  0  0
  -10.0701   -4.0641   -1.0595 H   0  0  0  0  0  0  0  0  0  0  0  0
  1  2  1  0
  2  3  2  0
  2  4  1  0
  4  5  1  0
  5  6  1  0
  6  7  1  0
  7  8  1  0
  8  9  1  0
  9 10  1  0
 10 11  2  0
 11 12  1  0
 12 13  2  0
 13 14  1  0
 13 15  1  0
 15 16  1  0
 16 17  1  0
 17 18  1  0
 18 19  1  0
 19 20  1  0
 19 21  2  0
 18 22  1  0
 22 23  1  0
 23 24  2  0
 23 25  1  0
 25 26  1  0
 25 27  1  0
 27 28  1  0
 28 29  2  0
 28 30  1  0
 30 31  1  0
 30 32  1  0
 32 33  1  0
 33 34  2  0
 33 35  1  0
 35 36  1  0
 35 37  1  0
 37 38  1  0
 38 39  2  0
 38 40  1  0
 40 41  1  0
 40 42  1  0
 42 43  1  0
 43 44  2  0
 43 45  1  0
 45 46  1  0
 45 47  1  0
 47 48  1  0
 48 49  2  0
 48 50  1  0
 50 51  1  0
 50 52  1  0
 52 53  1  0
 53 54  2  0
 53 55  1  0
 55 56  1  0
 55 57  1  0
 57 58  1  0
 58 59  2  0
 58 60  1  0
 60 61  1  0
 60 62  1  0
 62 63  1  0
 63 64  2  0
 63 65  1  0
 65 66  1  0
 65 67  1  0
 67 68  1  0
 68 69  2  0
 68 70  1  0
 70 71  1  0
 71 72  1  0
 72 73  1  0
 70 74  1  0
 74 75  1  0
 75 76  2  0
 75 77  1  0
 77 78  1  0
 77 79  1  0
 79 80  1  0
 80 81  2  0
 80 82  1  0
 82 83  1  0
 82 84  1  0
 84 85  1  0
 85 86  2  0
 85 87  1  0
 87 88  1  0
 87 89  1  0
 89 90  1  0
 90 91  2  0
 90 92  1  0
 92 93  1  0
 92 94  1  0
 94 95  1  0
 95 96  2  0
 95 97  1  0
 97 98  1  0
 97 99  1  0
 99100  1  0
100101  2  0
100  5  1  0
 14  9  2  0
 73 11  1  0
  1102  1  0
  1103  1  0
  1104  1  0
  4105  1  0
  5106  1  1
  6107  1  0
  6108  1  0
  8109  1  0
  8110  1  0
 10111  1  0
 12112  1  0
 14113  1  0
 15114  1  0
 15115  1  0
 17116  1  0
 17117  1  0
 18118  1  6
 20119  1  0
 20120  1  0
 22121  1  0
 25122  1  1
 26123  1  0
 26124  1  0
 26125  1  0
 27126  1  0
 30127  1  1
 31128  1  0
 31129  1  0
 31130  1  0
 32131  1  0
 35132  1  1
 36133  1  0
 36134  1  0
 36135  1  0
 37136  1  0
 40137  1  1
 41138  1  0
 41139  1  0
 41140  1  0
 42141  1  0
 45142  1  1
 46143  1  0
 46144  1  0
 46145  1  0
 47146  1  0
 50147  1  6
 51148  1  0
 51149  1  0
 51150  1  0
 52151  1  0
 55152  1  1
 56153  1  0
 56154  1  0
 56155  1  0
 57156  1  0
 60157  1  1
 61158  1  0
 61159  1  0
 61160  1  0
 62161  1  0
 65162  1  1
 66163  1  0
 66164  1  0
 66165  1  0
 67166  1  0
 70167  1  6
 71168  1  0
 71169  1  0
 73170  1  0
 73171  1  0
 74172  1  0
 77173  1  1
 78174  1  0
 78175  1  0
 78176  1  0
 79177  1  0
 82178  1  6
 83179  1  0
 83180  1  0
 83181  1  0
 84182  1  0
 87183  1  1
 88184  1  0
 88185  1  0
 88186  1  0
 89187  1  0
 92188  1  6
 93189  1  0
 93190  1  0
 93191  1  0
 94192  1  0
 97193  1  1
 98194  1  0
 98195  1  0
 98196  1  0
 99197  1  0
M  END
