
     RDKit          3D

197199  0  0  0  0  0  0  0  0999 V2000
   -9.1290    6.5175   -1.9323 C   0  0  0  0  0  0  0  0  0  0  0  0
   -8.8187    5.0502   -2.0320 C   0  0  0  0  0  0  0  0  0  0  0  0
   -9.1557    4.4203   -3.0751 O   0  0  0  0  0  0  0  0  0  0  0  0
   -8.1739    4.3352   -0.9649 N   0  0  0  0  0  0  0  0  0  0  0  0
   -7.8507    4.9181    0.3473 C   0  0  2  0  0  0  0  0  0  0  0  0
   -6.8464    4.0363    1.1123 C   0  0  0  0  0  0  0  0  0  0  0  0
   -5.1981    4.1724    0.3258 S   0  0  0  0  0  0  0  0  0  0  0  0
   -4.3040    3.1783    1.5691 C   0  0  0  0  0  0  0  0  0  0  0  0
   -2.8926    2.9303    1.1133 C   0  0  0  0  0  0  0  0  0  0  0  0
   -1.7960    3.4023    1.8593 C   0  0  0  0  0  0  0  0  0  0  0  0
   -0.4760    3.1259    1.4470 C   0  0  0  0  0  0  0  0  0  0  0  0
   -0.2657    2.3129    0.3169 C   0  0  0  0  0  0  0  0  0  0  0  0
   -1.3519    1.8948   -0.4632 C   0  0  0  0  0  0  0  0  0  0  0  0
   -2.6609    2.1988   -0.0569 C   0  0  0  0  0  0  0  0  0  0  0  0
   -1.1294    1.0815   -1.7115 C   0  0  0  0  0  0  0  0  0  0  0  0
   -0.3631   -0.5492   -1.3541 S   0  0  0  0  0  0  0  0  0  0  0  0
   -1.6113   -1.1711   -0.1484 C   0  0  0  0  0  0  0  0  0  0  0  0
   -2.2206   -2.5227   -0.5597 C   0  0  1  0  0  0  0  0  0  0  0  0
   -3.1041   -2.3530   -1.7178 N   0  0  0  0  0  0  0  0  0  0  0  0
   -4.5222   -2.5339   -1.6284 C   0  0  0  0  0  0  0  0  0  0  0  0
   -5.2655   -1.5181   -1.6267 O   0  0  0  0  0  0  0  0  0  0  0  0
   -5.1414   -3.9115   -1.5926 C   0  0  1  0  0  0  0  0  0  0  0  0
   -4.4181   -4.8798   -2.5332 C   0  0  0  0  0  0  0  0  0  0  0  0
   -5.1265   -4.4580   -0.2338 N   0  0  0  0  0  0  0  0  0  0  0  0
   -6.2667   -5.0925    0.3662 C   0  0  0  0  0  0  0  0  0  0  0  0
   -6.1297   -6.2415    0.8717 O   0  0  0  0  0  0  0  0  0  0  0  0
   -7.6053   -4.3990    0.4677 C   0  0  1  0  0  0  0  0  0  0  0  0
   -7.4376   -2.9387    0.9067 C   0  0  0  0  0  0  0  0  0  0  0  0
   -8.3392   -4.5462   -0.7934 N   0  0  0  0  0  0  0  0  0  0  0  0
   -9.1671   -3.5365   -1.3823 C   0  0  0  0  0  0  0  0  0  0  0  0
   -8.7148   -2.8565   -2.3398 O   0  0  0  0  0  0  0  0  0  0  0  0
  -10.5969   -3.3123   -0.9332 C   0  0  1  0  0  0  0  0  0  0  0  0
  -11.1895   -4.5725   -0.2862 C   0  0  0  0  0  0  0  0  0  0  0  0
  -10.7076   -2.1697   -0.0188 N   0  0  0  0  0  0  0  0  0  0  0  0
  -10.3340   -0.8429   -0.4170 C   0  0  0  0  0  0  0  0  0  0  0  0
   -9.1412   -0.6038   -0.7501 O   0  0  0  0  0  0  0  0  0  0  0  0
  -11.3148    0.2937   -0.3469 C   0  0  1  0  0  0  0  0  0  0  0  0
  -12.6626   -0.1123   -0.9446 C   0  0  0  0  0  0  0  0  0  0  0  0
  -11.4986    0.7097    1.0479 N   0  0  0  0  0  0  0  0  0  0  0  0
  -11.2350    2.0189    1.5829 C   0  0  0  0  0  0  0  0  0  0  0  0
  -11.6067    2.2525    2.7630 O   0  0  0  0  0  0  0  0  0  0  0  0
  -10.5892    3.1360    0.7731 C   0  0  1  0  0  0  0  0  0  0  0  0
  -11.6582    3.8278   -0.0820 C   0  0  0  0  0  0  0  0  0  0  0  0
   -9.9559    4.1299    1.6535 N   0  0  0  0  0  0  0  0  0  0  0  0
   -9.0954    5.1792    1.1784 C   0  0  0  0  0  0  0  0  0  0  0  0
   -9.3931    6.3735    1.4254 O   0  0  0  0  0  0  0  0  0  0  0  0
   -1.1777   -3.5688   -0.8352 C   0  0  0  0  0  0  0  0  0  0  0  0
   -0.8538   -3.8505   -2.0218 O   0  0  0  0  0  0  0  0  0  0  0  0
   -0.5385   -4.2389    0.2616 N   0  0  0  0  0  0  0  0  0  0  0  0
   -0.0271   -5.6050    0.1349 C   0  0  2  0  0  0  0  0  0  0  0  0
   -1.1263   -6.5459   -0.3822 C   0  0  0  0  0  0  0  0  0  0  0  0
    0.4367   -6.1247    1.4748 C   0  0  0  0  0  0  0  0  0  0  0  0
   -0.3480   -6.0404    2.4564 O   0  0  0  0  0  0  0  0  0  0  0  0
    1.7002   -6.7902    1.6675 N   0  0  0  0  0  0  0  0  0  0  0  0
    2.8402   -6.7402    0.7362 C   0  0  2  0  0  0  0  0  0  0  0  0
    2.6464   -7.7670   -0.3872 C   0  0  0  0  0  0  0  0  0  0  0  0
    4.1480   -7.0235    1.4387 C   0  0  0  0  0  0  0  0  0  0  0  0
    4.1829   -7.2863    2.6726 O   0  0  0  0  0  0  0  0  0  0  0  0
    5.3762   -6.9481    0.7023 N   0  0  0  0  0  0  0  0  0  0  0  0
    6.2110   -8.1327    0.4713 C   0  0  2  0  0  0  0  0  0  0  0  0
    6.7077   -8.7431    1.7878 C   0  0  0  0  0  0  0  0  0  0  0  0
    7.3519   -7.7814   -0.4522 C   0  0  0  0  0  0  0  0  0  0  0  0
    7.2452   -8.0532   -1.6757 O   0  0  0  0  0  0  0  0  0  0  0  0
    8.4900   -7.0493    0.0338 N   0  0  0  0  0  0  0  0  0  0  0  0
    9.2668   -6.1548   -0.8404 C   0  0  2  0  0  0  0  0  0  0  0  0
   10.1665   -6.9545   -1.7928 C   0  0  0  0  0  0  0  0  0  0  0  0
   10.1049   -5.2199   -0.0064 C   0  0  0  0  0  0  0  0  0  0  0  0
   11.1314   -5.6508    0.5809 O   0  0  0  0  0  0  0  0  0  0  0  0
    9.6706   -3.8676    0.2163 N   0  0  0  0  0  0  0  0  0  0  0  0
   10.4689   -2.6783   -0.1130 C   0  0  2  0  0  0  0  0  0  0  0  0
   11.9564   -2.9961   -0.3490 C   0  0  0  0  0  0  0  0  0  0  0  0
   10.3530   -1.6649    0.9981 C   0  0  0  0  0  0  0  0  0  0  0  0
   10.5322   -2.0542    2.1858 O   0  0  0  0  0  0  0  0  0  0  0  0
   10.0912   -0.2719    0.7642 N   0  0  0  0  0  0  0  0  0  0  0  0
    9.6720    0.3278   -0.5160 C   0  0  2  0  0  0  0  0  0  0  0  0
   10.8477    0.4212   -1.5058 C   0  0  0  0  0  0  0  0  0  0  0  0
    9.1352    1.7147   -0.2842 C   0  0  0  0  0  0  0  0  0  0  0  0
    7.9341    1.9859   -0.5580 O   0  0  0  0  0  0  0  0  0  0  0  0
   10.0008    2.7404    0.2240 N   0  0  0  0  0  0  0  0  0  0  0  0
    9.9689    4.1048   -0.3055 C   0  0  2  0  0  0  0  0  0  0  0  0
   11.2192    4.3423   -1.1607 C   0  0  0  0  0  0  0  0  0  0  0  0
    9.9215    5.0937    0.8445 C   0  0  0  0  0  0  0  0  0  0  0  0
   10.9010    5.1412    1.6383 O   0  0  0  0  0  0  0  0  0  0  0  0
    8.7982    5.9555    1.0916 N   0  0  0  0  0  0  0  0  0  0  0  0
    7.6247    6.0745    0.2122 C   0  0  2  0  0  0  0  0  0  0  0  0
    7.9719    6.9368   -1.0052 C   0  0  0  0  0  0  0  0  0  0  0  0
    6.4377    6.6828    0.9246 C   0  0  0  0  0  0  0  0  0  0  0  0
    6.6015    7.3067    2.0152 O   0  0  0  0  0  0  0  0  0  0  0  0
    5.1478    6.6372    0.2958 N   0  0  0  0  0  0  0  0  0  0  0  0
    4.0655    7.5950    0.5386 C   0  0  2  0  0  0  0  0  0  0  0  0
    4.5661    9.0382    0.4371 C   0  0  0  0  0  0  0  0  0  0  0  0
    3.3921    7.3261    1.8687 C   0  0  0  0  0  0  0  0  0  0  0  0
    4.0607    7.4957    2.9274 O   0  0  0  0  0  0  0  0  0  0  0  0
    2.0095    6.9335    2.0017 N   0  0  0  0  0  0  0  0  0  0  0  0
    1.0923    6.5109    0.9260 C   0  0  1  0  0  0  0  0  0  0  0  0
    0.7724    7.6544   -0.0065 C   0  0  0  0  0  0  0  0  0  0  0  0
    0.2243    8.8635    0.5174 N   0  0  0  0  0  0  0  0  0  0  0  0
    0.9854    7.5613   -1.2469 O   0  0  0  0  0  0  0  0  0  0  0  0
    1.5852    5.2357    0.2131 C   0  0  0  0  0  0  0  0  0  0  0  0
    2.2210    3.9554    1.3691 S   0  0  0  0  0  0  0  0  0  0  0  0
    0.6737    3.6069    2.2974 C   0  0  0  0  0  0  0  0  0  0  0  0
   -9.6727    6.8594   -2.8270 H   0  0  0  0  0  0  0  0  0  0  0  0
   -8.1876    7.0936   -1.8372 H   0  0  0  0  0  0  0  0  0  0  0  0
   -9.7739    6.7082   -1.0549 H   0  0  0  0  0  0  0  0  0  0  0  0
   -7.9159    3.3376   -1.1408 H   0  0  0  0  0  0  0  0  0  0  0  0
   -7.3437    5.8919    0.1770 H   0  0  0  0  0  0  0  0  0  0  0  0
   -6.7735    4.3715    2.1686 H   0  0  0  0  0  0  0  0  0  0  0  0
   -7.1715    2.9754    1.1064 H   0  0  0  0  0  0  0  0  0  0  0  0
   -4.8249    2.2044    1.7071 H   0  0  0  0  0  0  0  0  0  0  0  0
   -4.3177    3.7137    2.5435 H   0  0  0  0  0  0  0  0  0  0  0  0
   -1.9714    3.9723    2.7655 H   0  0  0  0  0  0  0  0  0  0  0  0
    0.7396    2.0378    0.0214 H   0  0  0  0  0  0  0  0  0  0  0  0
   -3.4976    1.8384   -0.6334 H   0  0  0  0  0  0  0  0  0  0  0  0
   -0.4530    1.6382   -2.3892 H   0  0  0  0  0  0  0  0  0  0  0  0
   -2.0768    0.9249   -2.2697 H   0  0  0  0  0  0  0  0  0  0  0  0
   -1.1085   -1.2785    0.8412 H   0  0  0  0  0  0  0  0  0  0  0  0
   -2.4511   -0.4612   -0.0162 H   0  0  0  0  0  0  0  0  0  0  0  0
   -2.8207   -2.8658    0.3097 H   0  0  0  0  0  0  0  0  0  0  0  0
   -2.7055   -1.9838   -2.6075 H   0  0  0  0  0  0  0  0  0  0  0  0
   -6.1886   -3.8325   -1.9559 H   0  0  0  0  0  0  0  0  0  0  0  0
   -3.4001   -5.1072   -2.1528 H   0  0  0  0  0  0  0  0  0  0  0  0
   -4.9972   -5.8248   -2.5912 H   0  0  0  0  0  0  0  0  0  0  0  0
   -4.3324   -4.4428   -3.5525 H   0  0  0  0  0  0  0  0  0  0  0  0
   -4.1937   -4.6599    0.1993 H   0  0  0  0  0  0  0  0  0  0  0  0
   -8.1909   -4.9170    1.2628 H   0  0  0  0  0  0  0  0  0  0  0  0
   -7.0540   -2.3158    0.0699 H   0  0  0  0  0  0  0  0  0  0  0  0
   -6.7233   -2.8726    1.7556 H   0  0  0  0  0  0  0  0  0  0  0  0
   -8.4066   -2.5258    1.2606 H   0  0  0  0  0  0  0  0  0  0  0  0
   -8.3427   -5.4859   -1.2575 H   0  0  0  0  0  0  0  0  0  0  0  0
  -11.2073   -3.0956   -1.8335 H   0  0  0  0  0  0  0  0  0  0  0  0
  -11.0357   -5.4551   -0.9450 H   0  0  0  0  0  0  0  0  0  0  0  0
  -10.7128   -4.7748    0.6987 H   0  0  0  0  0  0  0  0  0  0  0  0
  -12.2846   -4.4396   -0.1310 H   0  0  0  0  0  0  0  0  0  0  0  0
  -11.3252   -2.2549    0.8172 H   0  0  0  0  0  0  0  0  0  0  0  0
  -10.9250    1.1244   -0.9674 H   0  0  0  0  0  0  0  0  0  0  0  0
  -13.3565    0.7555   -0.9440 H   0  0  0  0  0  0  0  0  0  0  0  0
  -13.1301   -0.9358   -0.3617 H   0  0  0  0  0  0  0  0  0  0  0  0
  -12.5297   -0.4582   -1.9931 H   0  0  0  0  0  0  0  0  0  0  0  0
  -11.9017    0.0035    1.7053 H   0  0  0  0  0  0  0  0  0  0  0  0
   -9.8064    2.6879    0.1299 H   0  0  0  0  0  0  0  0  0  0  0  0
  -12.5066    4.1451    0.5531 H   0  0  0  0  0  0  0  0  0  0  0  0
  -12.0399    3.1482   -0.8653 H   0  0  0  0  0  0  0  0  0  0  0  0
  -11.2341    4.7143   -0.5829 H   0  0  0  0  0  0  0  0  0  0  0  0
  -10.4475    4.3709    2.5465 H   0  0  0  0  0  0  0  0  0  0  0  0
   -0.4478   -3.7263    1.1732 H   0  0  0  0  0  0  0  0  0  0  0  0
    0.7992   -5.5979   -0.6037 H   0  0  0  0  0  0  0  0  0  0  0  0
   -0.7934   -7.6001   -0.3328 H   0  0  0  0  0  0  0  0  0  0  0  0
   -2.0477   -6.4327    0.2280 H   0  0  0  0  0  0  0  0  0  0  0  0
   -1.3781   -6.3188   -1.4318 H   0  0  0  0  0  0  0  0  0  0  0  0
    1.7827   -7.3580    2.5410 H   0  0  0  0  0  0  0  0  0  0  0  0
    2.9143   -5.7199    0.3019 H   0  0  0  0  0  0  0  0  0  0  0  0
    3.4476   -7.6459   -1.1539 H   0  0  0  0  0  0  0  0  0  0  0  0
    2.6862   -8.7954    0.0229 H   0  0  0  0  0  0  0  0  0  0  0  0
    1.6717   -7.6390   -0.8897 H   0  0  0  0  0  0  0  0  0  0  0  0
    5.5007   -6.1256    0.0683 H   0  0  0  0  0  0  0  0  0  0  0  0
    5.5892   -8.9015   -0.0288 H   0  0  0  0  0  0  0  0  0  0  0  0
    7.0794   -7.9558    2.4668 H   0  0  0  0  0  0  0  0  0  0  0  0
    7.5152   -9.4816    1.5944 H   0  0  0  0  0  0  0  0  0  0  0  0
    5.8781   -9.2794    2.2945 H   0  0  0  0  0  0  0  0  0  0  0  0
    8.6343   -6.9795    1.0633 H   0  0  0  0  0  0  0  0  0  0  0  0
    8.5611   -5.5472   -1.4446 H   0  0  0  0  0  0  0  0  0  0  0  0
   10.8709   -7.6013   -1.2262 H   0  0  0  0  0  0  0  0  0  0  0  0
    9.5641   -7.5929   -2.4688 H   0  0  0  0  0  0  0  0  0  0  0  0
   10.7528   -6.2528   -2.4304 H   0  0  0  0  0  0  0  0  0  0  0  0
    8.6433   -3.7133    0.3329 H   0  0  0  0  0  0  0  0  0  0  0  0
   10.0582   -2.2782   -1.0581 H   0  0  0  0  0  0  0  0  0  0  0  0
   12.4146   -3.4450    0.5577 H   0  0  0  0  0  0  0  0  0  0  0  0
   12.5202   -2.0714   -0.5883 H   0  0  0  0  0  0  0  0  0  0  0  0
   12.0682   -3.6914   -1.2090 H   0  0  0  0  0  0  0  0  0  0  0  0
   10.0788    0.3370    1.6158 H   0  0  0  0  0  0  0  0  0  0  0  0
    8.8642   -0.2889   -0.9643 H   0  0  0  0  0  0  0  0  0  0  0  0
   11.1790   -0.5738   -1.8451 H   0  0  0  0  0  0  0  0  0  0  0  0
   10.5345    0.9933   -2.4083 H   0  0  0  0  0  0  0  0  0  0  0  0
   11.7120    0.9372   -1.0368 H   0  0  0  0  0  0  0  0  0  0  0  0
   10.8312    2.4573    0.7863 H   0  0  0  0  0  0  0  0  0  0  0  0
    9.1006    4.2250   -0.9780 H   0  0  0  0  0  0  0  0  0  0  0  0
   11.2243    5.3786   -1.5638 H   0  0  0  0  0  0  0  0  0  0  0  0
   11.2353    3.6296   -2.0135 H   0  0  0  0  0  0  0  0  0  0  0  0
   12.1442    4.1859   -0.5687 H   0  0  0  0  0  0  0  0  0  0  0  0
    8.8792    6.5888    1.9205 H   0  0  0  0  0  0  0  0  0  0  0  0
    7.2972    5.0656   -0.1162 H   0  0  0  0  0  0  0  0  0  0  0  0
    8.1792    7.9828   -0.6858 H   0  0  0  0  0  0  0  0  0  0  0  0
    7.1310    6.9510   -1.7292 H   0  0  0  0  0  0  0  0  0  0  0  0
    8.8704    6.5456   -1.5208 H   0  0  0  0  0  0  0  0  0  0  0  0
    4.9854    5.9053   -0.4399 H   0  0  0  0  0  0  0  0  0  0  0  0
    3.3453    7.4847   -0.2836 H   0  0  0  0  0  0  0  0  0  0  0  0
    5.1331    9.1761   -0.5130 H   0  0  0  0  0  0  0  0  0  0  0  0
    5.2422    9.2974    1.2824 H   0  0  0  0  0  0  0  0  0  0  0  0
    3.7034    9.7438    0.4480 H   0  0  0  0  0  0  0  0  0  0  0  0
    1.6340    6.8735    2.9705 H   0  0  0  0  0  0  0  0  0  0  0  0
    0.1155    6.2512    1.4002 H   0  0  0  0  0  0  0  0  0  0  0  0
   -0.0175    8.9420    1.5284 H   0  0  0  0  0  0  0  0  0  0  0  0
    0.0694    9.6914   -0.1045 H   0  0  0  0  0  0  0  0  0  0  0  0
    2.4045    5.4593   -0.4932 H   0  0  0  0  0  0  0  0  0  0  0  0
    0.7667    4.8180   -0.4029 H   0  0  0  0  0  0  0  0  0  0  0  0
    0.9028    2.8326    3.0573 H   0  0  0  0  0  0  0  0  0  0  0  0
    0.3914    4.5177    2.8609 H   0  0  0  0  0  0  0  0  0  0  0  0
  1  2  1  0
  2  3  2  0
  2  4  1  0
  4  5  1  0
  5  6  1  0
  6  7  1  0
  7  8  1  0
  8  9  1  0
  9 10  1  0
 10 11  2  0
 11 12  1  0
 12 13  2  0
 13 14  1  0
 13 15  1  0
 15 16  1  0
 16 17  1  0
 17 18  1  0
 18 19  1  0
 19 20  1  0
 20 21  2  0
 20 22  1  0
 22 23  1  0
 22 24  1  0
 24 25  1  0
 25 26  2  0
 25 27  1  0
 27 28  1  0
 27 29  1  0
 29 30  1  0
 30 31  2  0
 30 32  1  0
 32 33  1  0
 32 34  1  0
 34 35  1  0
 35 36  2  0
 35 37  1  0
 37 38  1  0
 37 39  1  0
 39 40  1  0
 40 41  2  0
 40 42  1  0
 42 43  1  0
 42 44  1  0
 44 45  1  0
 45 46  2  0
 18 47  1  0
 47 48  2  0
 47 49  1  0
 49 50  1  0
 50 51  1  0
 50 52  1  0
 52 53  2  0
 52 54  1  0
 54 55  1  0
 55 56  1  0
 55 57  1  0
 57 58  2  0
 57 59  1  0
 59 60  1  0
 60 61  1  0
 60 62  1  0
 62 63  2  0
 62 64  1  0
 64 65  1  0
 65 66  1  0
 65 67  1  0
 67 68  2  0
 67 69  1  0
 69 70  1  0
 70 71  1  0
 70 72  1  0
 72 73  2  0
 72 74  1  0
 74 75  1  0
 75 76  1  0
 75 77  1  0
 77 78  2  0
 77 79  1  0
 79 80  1  0
 80 81  1  0
 80 82  1  0
 82 83  2  0
 82 84  1  0
 84 85  1  0
 85 86  1  0
 85 87  1  0
 87 88  2  0
 87 89  1  0
 89 90  1  0
 90 91  1  0
 90 92  1  0
 92 93  2  0
 92 94  1  0
 94 95  1  0
 95 96  1  0
 96 97  1  0
 96 98  2  0
 95 99  1  0
 99100  1  0
100101  1  0
 45  5  1  0
 14  9  2  0
101 11  1  0
  1102  1  0
  1103  1  0
  1104  1  0
  4105  1  0
  5106  1  6
  6107  1  0
  6108  1  0
  8109  1  0
  8110  1  0
 10111  1  0
 12112  1  0
 14113  1  0
 15114  1  0
 15115  1  0
 17116  1  0
 17117  1  0
 18118  1  1
 19119  1  0
 22120  1  6
 23121  1  0
 23122  1  0
 23123  1  0
 24124  1  0
 27125  1  1
 28126  1  0
 28127  1  0
 28128  1  0
 29129  1  0
 32130  1  6
 33131  1  0
 33132  1  0
 33133  1  0
 34134  1  0
 37135  1  6
 38136  1  0
 38137  1  0
 38138  1  0
 39139  1  0
 42140  1  6
 43141  1  0
 43142  1  0
 43143  1  0
 44144  1  0
 49145  1  0
 50146  1  6
 51147  1  0
 51148  1  0
 51149  1  0
 54150  1  0
 55151  1  6
 56152  1  0
 56153  1  0
 56154  1  0
 59155  1  0
 60156  1  6
 61157  1  0
 61158  1  0
 61159  1  0
 64160  1  0
 65161  1  6
 66162  1  0
 66163  1  0
 66164  1  0
 69165  1  0
 70166  1  6
 71167  1  0
 71168  1  0
 71169  1  0
 74170  1  0
 75171  1  6
 76172  1  0
 76173  1  0
 76174  1  0
 79175  1  0
 80176  1  6
 81177  1  0
 81178  1  0
 81179  1  0
 84180  1  0
 85181  1  6
 86182  1  0
 86183  1  0
 86184  1  0
 89185  1  0
 90186  1  6
 91187  1  0
 91188  1  0
 91189  1  0
 94190  1  0
 95191  1  1
 97192  1  0
 97193  1  0
 99194  1  0
 99195  1  0
101196  1  0
101197  1  0
M  END
