
     RDKit          3D

197199  0  0  0  0  0  0  0  0999 V2000
   -7.8100    5.6239   -2.8844 C   0  0  0  0  0  0  0  0  0  0  0  0
   -8.2599    5.3546   -1.4888 C   0  0  0  0  0  0  0  0  0  0  0  0
   -9.4863    5.1505   -1.2750 O   0  0  0  0  0  0  0  0  0  0  0  0
   -7.3311    5.2591   -0.4091 N   0  0  0  0  0  0  0  0  0  0  0  0
   -7.4068    4.2596    0.6662 C   0  0  2  0  0  0  0  0  0  0  0  0
   -7.4090    2.8303    0.0680 C   0  0  0  0  0  0  0  0  0  0  0  0
   -5.7297    2.1497   -0.0017 S   0  0  0  0  0  0  0  0  0  0  0  0
   -5.1881    2.8778   -1.6041 C   0  0  0  0  0  0  0  0  0  0  0  0
   -3.7124    2.6124   -1.7131 C   0  0  0  0  0  0  0  0  0  0  0  0
   -3.2671    1.2946   -1.5809 C   0  0  0  0  0  0  0  0  0  0  0  0
   -2.0567    1.0308   -0.9570 C   0  0  0  0  0  0  0  0  0  0  0  0
   -1.1232    2.0620   -0.8446 C   0  0  0  0  0  0  0  0  0  0  0  0
   -1.4925    3.3918   -1.1276 C   0  0  0  0  0  0  0  0  0  0  0  0
   -2.7977    3.6678   -1.5628 C   0  0  0  0  0  0  0  0  0  0  0  0
   -0.5623    4.5346   -0.8161 C   0  0  0  0  0  0  0  0  0  0  0  0
   -0.0006    4.4428    0.9417 S   0  0  0  0  0  0  0  0  0  0  0  0
    1.6875    5.1056    0.6621 C   0  0  0  0  0  0  0  0  0  0  0  0
    1.6826    6.6136    0.3514 C   0  0  1  0  0  0  0  0  0  0  0  0
    1.2427    7.4551    1.5359 C   0  0  0  0  0  0  0  0  0  0  0  0
    0.4079    8.6027    1.3373 N   0  0  0  0  0  0  0  0  0  0  0  0
    1.6165    7.1494    2.7040 O   0  0  0  0  0  0  0  0  0  0  0  0
    3.0221    7.0027   -0.1790 N   0  0  0  0  0  0  0  0  0  0  0  0
    3.8069    8.0806    0.3422 C   0  0  0  0  0  0  0  0  0  0  0  0
    3.3376    9.2616    0.2888 O   0  0  0  0  0  0  0  0  0  0  0  0
    5.2015    7.8667    0.8476 C   0  0  1  0  0  0  0  0  0  0  0  0
    5.2676    8.0672    2.3627 C   0  0  0  0  0  0  0  0  0  0  0  0
    5.6808    6.5234    0.5136 N   0  0  0  0  0  0  0  0  0  0  0  0
    6.4659    6.2651   -0.6596 C   0  0  0  0  0  0  0  0  0  0  0  0
    5.9061    5.7732   -1.6774 O   0  0  0  0  0  0  0  0  0  0  0  0
    7.9652    6.4218   -0.6667 C   0  0  1  0  0  0  0  0  0  0  0  0
    8.4143    7.8154   -0.2276 C   0  0  0  0  0  0  0  0  0  0  0  0
    8.5944    5.3948    0.1710 N   0  0  0  0  0  0  0  0  0  0  0  0
    8.5174    4.0159   -0.1847 C   0  0  0  0  0  0  0  0  0  0  0  0
    7.5721    3.3104    0.2606 O   0  0  0  0  0  0  0  0  0  0  0  0
    9.5984    3.3462   -0.9971 C   0  0  1  0  0  0  0  0  0  0  0  0
    9.9219    4.1203   -2.2734 C   0  0  0  0  0  0  0  0  0  0  0  0
   10.8080    3.2076   -0.1873 N   0  0  0  0  0  0  0  0  0  0  0  0
   11.6155    2.0257   -0.2906 C   0  0  0  0  0  0  0  0  0  0  0  0
   12.4620    1.9349   -1.2150 O   0  0  0  0  0  0  0  0  0  0  0  0
   11.4474    0.9081    0.6965 C   0  0  1  0  0  0  0  0  0  0  0  0
   11.8839    1.3660    2.0939 C   0  0  0  0  0  0  0  0  0  0  0  0
   10.0512    0.4721    0.7183 N   0  0  0  0  0  0  0  0  0  0  0  0
    9.5416   -0.6129   -0.0567 C   0  0  0  0  0  0  0  0  0  0  0  0
    8.4107   -0.4772   -0.5893 O   0  0  0  0  0  0  0  0  0  0  0  0
   10.3170   -1.8978   -0.2650 C   0  0  1  0  0  0  0  0  0  0  0  0
   10.7523   -2.4826    1.0979 C   0  0  0  0  0  0  0  0  0  0  0  0
    9.5135   -2.8588   -1.0464 N   0  0  0  0  0  0  0  0  0  0  0  0
    9.2657   -4.2158   -0.6581 C   0  0  0  0  0  0  0  0  0  0  0  0
   10.1484   -5.0931   -0.8905 O   0  0  0  0  0  0  0  0  0  0  0  0
    7.9175   -4.6621   -0.1367 C   0  0  1  0  0  0  0  0  0  0  0  0
    7.2771   -3.6317    0.8093 C   0  0  0  0  0  0  0  0  0  0  0  0
    6.9986   -4.9122   -1.2578 N   0  0  0  0  0  0  0  0  0  0  0  0
    6.6452   -6.2099   -1.7615 C   0  0  0  0  0  0  0  0  0  0  0  0
    6.6724   -6.3727   -3.0065 O   0  0  0  0  0  0  0  0  0  0  0  0
    6.1017   -7.3682   -0.9285 C   0  0  1  0  0  0  0  0  0  0  0  0
    6.1600   -7.2469    0.5946 C   0  0  0  0  0  0  0  0  0  0  0  0
    4.7222   -7.6717   -1.3655 N   0  0  0  0  0  0  0  0  0  0  0  0
    3.5868   -6.9749   -0.8427 C   0  0  0  0  0  0  0  0  0  0  0  0
    3.0654   -7.4152    0.2206 O   0  0  0  0  0  0  0  0  0  0  0  0
    2.9473   -5.8495   -1.6326 C   0  0  1  0  0  0  0  0  0  0  0  0
    2.3056   -6.3870   -2.9360 C   0  0  0  0  0  0  0  0  0  0  0  0
    1.9803   -5.0057   -0.8853 N   0  0  0  0  0  0  0  0  0  0  0  0
    1.2552   -5.4349    0.2696 C   0  0  0  0  0  0  0  0  0  0  0  0
    1.1674   -4.6348    1.2574 O   0  0  0  0  0  0  0  0  0  0  0  0
    0.2335   -6.5394    0.1046 C   0  0  1  0  0  0  0  0  0  0  0  0
    0.0090   -7.3313    1.4186 C   0  0  0  0  0  0  0  0  0  0  0  0
   -1.0515   -6.0037   -0.3720 N   0  0  0  0  0  0  0  0  0  0  0  0
   -1.2840   -4.6258   -0.7357 C   0  0  0  0  0  0  0  0  0  0  0  0
   -0.6687   -4.1255   -1.7234 O   0  0  0  0  0  0  0  0  0  0  0  0
   -2.3069   -3.8169    0.0003 C   0  0  1  0  0  0  0  0  0  0  0  0
   -1.6468   -2.6489    0.7863 C   0  0  0  0  0  0  0  0  0  0  0  0
   -0.8304   -1.3825   -0.3012 S   0  0  0  0  0  0  0  0  0  0  0  0
   -2.0424   -0.0713    0.0716 C   0  0  0  0  0  0  0  0  0  0  0  0
   -3.3172   -3.3156   -0.9374 N   0  0  0  0  0  0  0  0  0  0  0  0
   -4.7273   -3.5724   -0.9502 C   0  0  0  0  0  0  0  0  0  0  0  0
   -5.4208   -2.9896   -1.8264 O   0  0  0  0  0  0  0  0  0  0  0  0
   -5.4784   -4.4809    0.0062 C   0  0  1  0  0  0  0  0  0  0  0  0
   -4.8544   -5.8737    0.1905 C   0  0  0  0  0  0  0  0  0  0  0  0
   -5.6885   -3.8064    1.2980 N   0  0  0  0  0  0  0  0  0  0  0  0
   -6.7061   -4.1742    2.2557 C   0  0  0  0  0  0  0  0  0  0  0  0
   -6.8228   -3.4629    3.3025 O   0  0  0  0  0  0  0  0  0  0  0  0
   -7.6858   -5.3073    2.0455 C   0  0  1  0  0  0  0  0  0  0  0  0
   -7.4342   -6.4255    3.0544 C   0  0  0  0  0  0  0  0  0  0  0  0
   -9.0769   -4.8273    2.1486 N   0  0  0  0  0  0  0  0  0  0  0  0
   -9.7269   -3.9179    1.2374 C   0  0  0  0  0  0  0  0  0  0  0  0
  -10.8953   -3.5277    1.5044 O   0  0  0  0  0  0  0  0  0  0  0  0
   -9.0794   -3.4169   -0.0490 C   0  0  1  0  0  0  0  0  0  0  0  0
   -9.0485   -4.4786   -1.1413 C   0  0  0  0  0  0  0  0  0  0  0  0
   -9.7870   -2.2213   -0.5433 N   0  0  0  0  0  0  0  0  0  0  0  0
   -9.2620   -0.8795   -0.3844 C   0  0  0  0  0  0  0  0  0  0  0  0
   -8.0481   -0.7027   -0.0654 O   0  0  0  0  0  0  0  0  0  0  0  0
  -10.1615    0.3228   -0.4569 C   0  0  1  0  0  0  0  0  0  0  0  0
  -11.1443    0.3153   -1.6399 C   0  0  0  0  0  0  0  0  0  0  0  0
  -10.9044    0.4753    0.7982 N   0  0  0  0  0  0  0  0  0  0  0  0
  -11.0244    1.6717    1.5875 C   0  0  0  0  0  0  0  0  0  0  0  0
  -11.5558    1.5894    2.7247 O   0  0  0  0  0  0  0  0  0  0  0  0
  -10.5921    3.0478    1.1148 C   0  0  1  0  0  0  0  0  0  0  0  0
  -11.7564    4.0324    1.1624 C   0  0  0  0  0  0  0  0  0  0  0  0
   -9.5145    3.5291    1.9729 N   0  0  0  0  0  0  0  0  0  0  0  0
   -8.5932    4.5493    1.5646 C   0  0  0  0  0  0  0  0  0  0  0  0
   -8.6629    5.6938    2.1062 O   0  0  0  0  0  0  0  0  0  0  0  0
   -6.7121    5.8043   -2.9127 H   0  0  0  0  0  0  0  0  0  0  0  0
   -8.0440    4.7525   -3.5342 H   0  0  0  0  0  0  0  0  0  0  0  0
   -8.3414    6.5141   -3.2531 H   0  0  0  0  0  0  0  0  0  0  0  0
   -6.4967    5.8882   -0.4321 H   0  0  0  0  0  0  0  0  0  0  0  0
   -6.5079    4.3677    1.3194 H   0  0  0  0  0  0  0  0  0  0  0  0
   -7.9288    2.1388    0.7600 H   0  0  0  0  0  0  0  0  0  0  0  0
   -7.8848    2.7778   -0.9373 H   0  0  0  0  0  0  0  0  0  0  0  0
   -5.3818    3.9682   -1.6105 H   0  0  0  0  0  0  0  0  0  0  0  0
   -5.7294    2.4054   -2.4525 H   0  0  0  0  0  0  0  0  0  0  0  0
   -3.9983    0.4899   -1.6497 H   0  0  0  0  0  0  0  0  0  0  0  0
   -0.1600    1.8675   -0.3916 H   0  0  0  0  0  0  0  0  0  0  0  0
   -3.1367    4.6926   -1.6751 H   0  0  0  0  0  0  0  0  0  0  0  0
   -1.0803    5.5144   -0.9450 H   0  0  0  0  0  0  0  0  0  0  0  0
    0.2984    4.4905   -1.5174 H   0  0  0  0  0  0  0  0  0  0  0  0
    2.2978    4.9014    1.5660 H   0  0  0  0  0  0  0  0  0  0  0  0
    2.1435    4.5425   -0.1771 H   0  0  0  0  0  0  0  0  0  0  0  0
    0.9469    6.8012   -0.4813 H   0  0  0  0  0  0  0  0  0  0  0  0
   -0.0177    9.0535    2.1729 H   0  0  0  0  0  0  0  0  0  0  0  0
    0.0133    8.8482    0.3985 H   0  0  0  0  0  0  0  0  0  0  0  0
    3.4788    6.3617   -0.8489 H   0  0  0  0  0  0  0  0  0  0  0  0
    5.8475    8.6217    0.3758 H   0  0  0  0  0  0  0  0  0  0  0  0
    4.6056    7.3456    2.8920 H   0  0  0  0  0  0  0  0  0  0  0  0
    4.9717    9.0981    2.6321 H   0  0  0  0  0  0  0  0  0  0  0  0
    6.3113    7.9074    2.7119 H   0  0  0  0  0  0  0  0  0  0  0  0
    5.1850    5.6977    0.9358 H   0  0  0  0  0  0  0  0  0  0  0  0
    8.3241    6.2981   -1.7106 H   0  0  0  0  0  0  0  0  0  0  0  0
    9.5156    7.9085   -0.3284 H   0  0  0  0  0  0  0  0  0  0  0  0
    7.9457    8.5845   -0.8747 H   0  0  0  0  0  0  0  0  0  0  0  0
    8.1454    8.0062    0.8300 H   0  0  0  0  0  0  0  0  0  0  0  0
    8.7794    5.6084    1.1770 H   0  0  0  0  0  0  0  0  0  0  0  0
    9.2435    2.3323   -1.3063 H   0  0  0  0  0  0  0  0  0  0  0  0
    9.0006    4.2560   -2.8817 H   0  0  0  0  0  0  0  0  0  0  0  0
   10.6543    3.5416   -2.8834 H   0  0  0  0  0  0  0  0  0  0  0  0
   10.3709    5.1081   -2.0360 H   0  0  0  0  0  0  0  0  0  0  0  0
   11.1997    4.0258    0.3148 H   0  0  0  0  0  0  0  0  0  0  0  0
   12.1133    0.0786    0.4003 H   0  0  0  0  0  0  0  0  0  0  0  0
   12.9523    1.7024    2.0822 H   0  0  0  0  0  0  0  0  0  0  0  0
   11.2549    2.2178    2.4445 H   0  0  0  0  0  0  0  0  0  0  0  0
   11.7822    0.5266    2.8263 H   0  0  0  0  0  0  0  0  0  0  0  0
    9.3549    1.1380    1.1316 H   0  0  0  0  0  0  0  0  0  0  0  0
   11.2362   -1.6686   -0.8403 H   0  0  0  0  0  0  0  0  0  0  0  0
   11.3294   -3.4172    0.9478 H   0  0  0  0  0  0  0  0  0  0  0  0
    9.8774   -2.6824    1.7376 H   0  0  0  0  0  0  0  0  0  0  0  0
   11.4106   -1.7743    1.6341 H   0  0  0  0  0  0  0  0  0  0  0  0
    9.3737   -2.6239   -2.0648 H   0  0  0  0  0  0  0  0  0  0  0  0
    8.1115   -5.5740    0.4478 H   0  0  0  0  0  0  0  0  0  0  0  0
    6.2335   -3.9089    1.0138 H   0  0  0  0  0  0  0  0  0  0  0  0
    7.2826   -2.6267    0.3608 H   0  0  0  0  0  0  0  0  0  0  0  0
    7.8099   -3.6156    1.7764 H   0  0  0  0  0  0  0  0  0  0  0  0
    6.8039   -4.1005   -1.8804 H   0  0  0  0  0  0  0  0  0  0  0  0
    6.7295   -8.2489   -1.1909 H   0  0  0  0  0  0  0  0  0  0  0  0
    7.1788   -7.4440    0.9717 H   0  0  0  0  0  0  0  0  0  0  0  0
    5.7810   -6.2643    0.9311 H   0  0  0  0  0  0  0  0  0  0  0  0
    5.5178   -8.0321    1.0436 H   0  0  0  0  0  0  0  0  0  0  0  0
    4.5416   -8.6752   -1.5696 H   0  0  0  0  0  0  0  0  0  0  0  0
    3.7903   -5.1699   -1.9284 H   0  0  0  0  0  0  0  0  0  0  0  0
    3.0368   -6.3029   -3.7663 H   0  0  0  0  0  0  0  0  0  0  0  0
    1.3863   -5.8392   -3.2130 H   0  0  0  0  0  0  0  0  0  0  0  0
    2.0569   -7.4659   -2.8315 H   0  0  0  0  0  0  0  0  0  0  0  0
    1.9146   -4.0014   -1.1747 H   0  0  0  0  0  0  0  0  0  0  0  0
    0.6014   -7.2353   -0.6761 H   0  0  0  0  0  0  0  0  0  0  0  0
   -1.0830   -7.5479    1.5046 H   0  0  0  0  0  0  0  0  0  0  0  0
    0.3248   -6.8058    2.3393 H   0  0  0  0  0  0  0  0  0  0  0  0
    0.4674   -8.3430    1.3593 H   0  0  0  0  0  0  0  0  0  0  0  0
   -1.7562   -6.6694   -0.7445 H   0  0  0  0  0  0  0  0  0  0  0  0
   -2.7669   -4.4547    0.7801 H   0  0  0  0  0  0  0  0  0  0  0  0
   -0.8677   -3.0540    1.4878 H   0  0  0  0  0  0  0  0  0  0  0  0
   -2.4281   -2.1960    1.4509 H   0  0  0  0  0  0  0  0  0  0  0  0
   -1.7859    0.3556    1.0693 H   0  0  0  0  0  0  0  0  0  0  0  0
   -3.0648   -0.5126    0.1639 H   0  0  0  0  0  0  0  0  0  0  0  0
   -2.9738   -2.6528   -1.6839 H   0  0  0  0  0  0  0  0  0  0  0  0
   -6.4379   -4.6530   -0.4622 H   0  0  0  0  0  0  0  0  0  0  0  0
   -4.2413   -6.1417   -0.6894 H   0  0  0  0  0  0  0  0  0  0  0  0
   -5.6471   -6.6655    0.2255 H   0  0  0  0  0  0  0  0  0  0  0  0
   -4.2815   -5.9693    1.1576 H   0  0  0  0  0  0  0  0  0  0  0  0
   -5.3208   -2.8437    1.3827 H   0  0  0  0  0  0  0  0  0  0  0  0
   -7.5655   -5.7803    1.0639 H   0  0  0  0  0  0  0  0  0  0  0  0
   -6.5765   -7.0323    2.7360 H   0  0  0  0  0  0  0  0  0  0  0  0
   -7.2398   -6.0193    4.0638 H   0  0  0  0  0  0  0  0  0  0  0  0
   -8.3140   -7.0794    3.1209 H   0  0  0  0  0  0  0  0  0  0  0  0
   -9.7467   -5.4181    2.6887 H   0  0  0  0  0  0  0  0  0  0  0  0
   -8.0423   -3.1312    0.1823 H   0  0  0  0  0  0  0  0  0  0  0  0
  -10.0664   -4.7655   -1.4735 H   0  0  0  0  0  0  0  0  0  0  0  0
   -8.5471   -5.4087   -0.8245 H   0  0  0  0  0  0  0  0  0  0  0  0
   -8.5095   -4.0854   -2.0245 H   0  0  0  0  0  0  0  0  0  0  0  0
  -10.6045   -2.3537   -1.1826 H   0  0  0  0  0  0  0  0  0  0  0  0
   -9.5049    1.1950   -0.6498 H   0  0  0  0  0  0  0  0  0  0  0  0
  -11.6502    1.2971   -1.6827 H   0  0  0  0  0  0  0  0  0  0  0  0
  -10.5921    0.1859   -2.5906 H   0  0  0  0  0  0  0  0  0  0  0  0
  -11.9112   -0.4656   -1.5201 H   0  0  0  0  0  0  0  0  0  0  0  0
  -11.2528   -0.4090    1.2330 H   0  0  0  0  0  0  0  0  0  0  0  0
  -10.2479    3.0466    0.0666 H   0  0  0  0  0  0  0  0  0  0  0  0
  -12.5682    3.7124    0.4757 H   0  0  0  0  0  0  0  0  0  0  0  0
  -12.1600    4.1147    2.2008 H   0  0  0  0  0  0  0  0  0  0  0  0
  -11.4235    5.0513    0.8479 H   0  0  0  0  0  0  0  0  0  0  0  0
   -9.6735    3.4530    3.0099 H   0  0  0  0  0  0  0  0  0  0  0  0
  1  2  1  0
  2  3  2  0
  2  4  1  0
  4  5  1  0
  5  6  1  0
  6  7  1  0
  7  8  1  0
  8  9  1  0
  9 10  1  0
 10 11  2  0
 11 12  1  0
 12 13  2  0
 13 14  1  0
 13 15  1  0
 15 16  1  0
 16 17  1  0
 17 18  1  0
 18 19  1  0
 19 20  1  0
 19 21  2  0
 18 22  1  0
 22 23  1  0
 23 24  2  0
 23 25  1  0
 25 26  1  0
 25 27  1  0
 27 28  1  0
 28 29  2  0
 28 30  1  0
 30 31  1  0
 30 32  1  0
 32 33  1  0
 33 34  2  0
 33 35  1  0
 35 36  1  0
 35 37  1  0
 37 38  1  0
 38 39  2  0
 38 40  1  0
 40 41  1  0
 40 42  1  0
 42 43  1  0
 43 44  2  0
 43 45  1  0
 45 46  1  0
 45 47  1  0
 47 48  1  0
 48 49  2  0
 48 50  1  0
 50 51  1  0
 50 52  1  0
 52 53  1  0
 53 54  2  0
 53 55  1  0
 55 56  1  0
 55 57  1  0
 57 58  1  0
 58 59  2  0
 58 60  1  0
 60 61  1  0
 60 62  1  0
 62 63  1  0
 63 64  2  0
 63 65  1  0
 65 66  1  0
 65 67  1  0
 67 68  1  0
 68 69  2  0
 68 70  1  0
 70 71  1  0
 71 72  1  0
 72 73  1  0
 70 74  1  0
 74 75  1  0
 75 76  2  0
 75 77  1  0
 77 78  1  0
 77 79  1  0
 79 80  1  0
 80 81  2  0
 80 82  1  0
 82 83  1  0
 82 84  1  0
 84 85  1  0
 85 86  2  0
 85 87  1  0
 87 88  1  0
 87 89  1  0
 89 90  1  0
 90 91  2  0
 90 92  1  0
 92 93  1  0
 92 94  1  0
 94 95  1  0
 95 96  2  0
 95 97  1  0
 97 98  1  0
 97 99  1  0
 99100  1  0
100101  2  0
100  5  1  0
 14  9  2  0
 73 11  1  0
  1102  1  0
  1103  1  0
  1104  1  0
  4105  1  0
  5106  1  1
  6107  1  0
  6108  1  0
  8109  1  0
  8110  1  0
 10111  1  0
 12112  1  0
 14113  1  0
 15114  1  0
 15115  1  0
 17116  1  0
 17117  1  0
 18118  1  6
 20119  1  0
 20120  1  0
 22121  1  0
 25122  1  6
 26123  1  0
 26124  1  0
 26125  1  0
 27126  1  0
 30127  1  6
 31128  1  0
 31129  1  0
 31130  1  0
 32131  1  0
 35132  1  6
 36133  1  0
 36134  1  0
 36135  1  0
 37136  1  0
 40137  1  6
 41138  1  0
 41139  1  0
 41140  1  0
 42141  1  0
 45142  1  6
 46143  1  0
 46144  1  0
 46145  1  0
 47146  1  0
 50147  1  1
 51148  1  0
 51149  1  0
 51150  1  0
 52151  1  0
 55152  1  6
 56153  1  0
 56154  1  0
 56155  1  0
 57156  1  0
 60157  1  6
 61158  1  0
 61159  1  0
 61160  1  0
 62161  1  0
 65162  1  6
 66163  1  0
 66164  1  0
 66165  1  0
 67166  1  0
 70167  1  1
 71168  1  0
 71169  1  0
 73170  1  0
 73171  1  0
 74172  1  0
 77173  1  6
 78174  1  0
 78175  1  0
 78176  1  0
 79177  1  0
 82178  1  6
 83179  1  0
 83180  1  0
 83181  1  0
 84182  1  0
 87183  1  1
 88184  1  0
 88185  1  0
 88186  1  0
 89187  1  0
 92188  1  6
 93189  1  0
 93190  1  0
 93191  1  0
 94192  1  0
 97193  1  6
 98194  1  0
 98195  1  0
 98196  1  0
 99197  1  0
M  END
