
     RDKit          3D

147149  0  0  0  0  0  0  0  0999 V2000
   -4.4694    5.8842    3.1067 C   0  0  0  0  0  0  0  0  0  0  0  0
   -4.7841    5.6072    1.6932 C   0  0  0  0  0  0  0  0  0  0  0  0
   -5.1925    6.5370    0.9354 O   0  0  0  0  0  0  0  0  0  0  0  0
   -4.6178    4.2766    1.1799 N   0  0  0  0  0  0  0  0  0  0  0  0
   -4.7560    3.9586   -0.2286 C   0  0  1  0  0  0  0  0  0  0  0  0
   -4.0169    2.6694   -0.5891 C   0  0  0  0  0  0  0  0  0  0  0  0
   -2.3078    2.6459    0.0527 S   0  0  0  0  0  0  0  0  0  0  0  0
   -1.6131    4.0379   -0.9561 C   0  0  0  0  0  0  0  0  0  0  0  0
   -0.3283    3.6210   -1.5980 C   0  0  0  0  0  0  0  0  0  0  0  0
    0.7706    4.4973   -1.5212 C   0  0  0  0  0  0  0  0  0  0  0  0
    2.0690    4.0775   -1.8880 C   0  0  0  0  0  0  0  0  0  0  0  0
    2.2301    2.7541   -2.3470 C   0  0  0  0  0  0  0  0  0  0  0  0
    1.1724    1.8575   -2.3269 C   0  0  0  0  0  0  0  0  0  0  0  0
   -0.1193    2.3133   -2.0814 C   0  0  0  0  0  0  0  0  0  0  0  0
    1.5323    0.5500   -1.6452 C   0  0  0  0  0  0  0  0  0  0  0  0
    0.3361   -0.8077   -1.9157 S   0  0  0  0  0  0  0  0  0  0  0  0
    0.3049   -1.5017   -0.2087 C   0  0  0  0  0  0  0  0  0  0  0  0
    1.1178   -2.7746   -0.0364 C   0  0  2  0  0  0  0  0  0  0  0  0
    0.6229   -3.5058    1.1742 N   0  0  0  0  0  0  0  0  0  0  0  0
   -0.6304   -4.1756    1.3195 C   0  0  0  0  0  0  0  0  0  0  0  0
   -1.1202   -4.2310    2.5211 O   0  0  0  0  0  0  0  0  0  0  0  0
   -1.5302   -4.6286    0.1713 C   0  0  1  0  0  0  0  0  0  0  0  0
   -0.8140   -5.3860   -0.9717 C   0  0  0  0  0  0  0  0  0  0  0  0
   -2.6019   -5.5054    0.6920 N   0  0  0  0  0  0  0  0  0  0  0  0
   -3.9808   -5.3886    0.2152 C   0  0  0  0  0  0  0  0  0  0  0  0
   -4.9114   -5.8877    0.9314 O   0  0  0  0  0  0  0  0  0  0  0  0
   -4.2696   -4.9477   -1.2183 C   0  0  1  0  0  0  0  0  0  0  0  0
   -4.5877   -6.1667   -2.0853 C   0  0  0  0  0  0  0  0  0  0  0  0
   -5.3685   -3.9484   -1.2813 N   0  0  0  0  0  0  0  0  0  0  0  0
   -5.5212   -2.9290   -0.2686 C   0  0  0  0  0  0  0  0  0  0  0  0
   -5.5165   -3.2751    0.9556 O   0  0  0  0  0  0  0  0  0  0  0  0
   -6.2663   -1.6243   -0.5497 C   0  0  1  0  0  0  0  0  0  0  0  0
   -5.8050   -0.9223   -1.8257 C   0  0  0  0  0  0  0  0  0  0  0  0
   -7.7140   -1.8790   -0.5914 N   0  0  0  0  0  0  0  0  0  0  0  0
   -8.5853   -1.7877    0.5336 C   0  0  0  0  0  0  0  0  0  0  0  0
   -9.1946   -2.8390    0.8784 O   0  0  0  0  0  0  0  0  0  0  0  0
   -9.0382   -0.4430    1.0688 C   0  0  1  0  0  0  0  0  0  0  0  0
  -10.0056   -0.5657    2.2387 C   0  0  0  0  0  0  0  0  0  0  0  0
   -7.8819    0.3664    1.4763 N   0  0  0  0  0  0  0  0  0  0  0  0
   -7.6520    1.6816    0.9703 C   0  0  0  0  0  0  0  0  0  0  0  0
   -7.2595    2.5970    1.7589 O   0  0  0  0  0  0  0  0  0  0  0  0
   -7.9501    2.0255   -0.4889 C   0  0  1  0  0  0  0  0  0  0  0  0
   -9.2076    2.8663   -0.6366 C   0  0  0  0  0  0  0  0  0  0  0  0
   -6.8000    2.7136   -1.0858 N   0  0  0  0  0  0  0  0  0  0  0  0
   -6.2247    3.9064   -0.6107 C   0  0  0  0  0  0  0  0  0  0  0  0
   -6.9347    4.9772   -0.4990 O   0  0  0  0  0  0  0  0  0  0  0  0
    2.6135   -2.5577    0.0608 C   0  0  0  0  0  0  0  0  0  0  0  0
    3.0364   -1.3439    0.0299 O   0  0  0  0  0  0  0  0  0  0  0  0
    3.5543   -3.5379   -0.3738 N   0  0  0  0  0  0  0  0  0  0  0  0
    3.8821   -4.7411    0.4113 C   0  0  2  0  0  0  0  0  0  0  0  0
    2.7946   -5.7132    0.1913 C   0  0  0  0  0  0  0  0  0  0  0  0
    4.1374   -4.3618    1.8731 C   0  0  0  0  0  0  0  0  0  0  0  0
    3.2093   -4.3944    2.7132 O   0  0  0  0  0  0  0  0  0  0  0  0
    5.4024   -3.7592    2.2492 N   0  0  0  0  0  0  0  0  0  0  0  0
    6.4631   -3.3171    1.2956 C   0  0  2  0  0  0  0  0  0  0  0  0
    7.4571   -4.4467    1.0671 C   0  0  0  0  0  0  0  0  0  0  0  0
    7.2170   -2.1105    1.7965 C   0  0  0  0  0  0  0  0  0  0  0  0
    7.0244   -1.7099    2.9841 O   0  0  0  0  0  0  0  0  0  0  0  0
    8.1016   -1.3573    0.9354 N   0  0  0  0  0  0  0  0  0  0  0  0
    8.0999   -1.3570   -0.5450 C   0  0  2  0  0  0  0  0  0  0  0  0
    9.5589   -1.3793   -1.0586 C   0  0  0  0  0  0  0  0  0  0  0  0
    7.3063   -0.2286   -1.1208 C   0  0  0  0  0  0  0  0  0  0  0  0
    7.1559   -0.1504   -2.3934 O   0  0  0  0  0  0  0  0  0  0  0  0
    6.6292    0.6852   -0.2856 N   0  0  0  0  0  0  0  0  0  0  0  0
    7.0971    2.0488    0.0220 C   0  0  2  0  0  0  0  0  0  0  0  0
    8.6300    2.1536   -0.0301 C   0  0  0  0  0  0  0  0  0  0  0  0
    6.6044    2.4680    1.3803 C   0  0  0  0  0  0  0  0  0  0  0  0
    6.6001    1.5985    2.3132 O   0  0  0  0  0  0  0  0  0  0  0  0
    6.0715    3.7631    1.7020 N   0  0  0  0  0  0  0  0  0  0  0  0
    5.8697    4.8593    0.7486 C   0  0  2  0  0  0  0  0  0  0  0  0
    7.0403    5.8042    0.7518 C   0  0  0  0  0  0  0  0  0  0  0  0
    7.1439    6.8393   -0.2162 N   0  0  0  0  0  0  0  0  0  0  0  0
    7.9628    5.6765    1.6193 O   0  0  0  0  0  0  0  0  0  0  0  0
    4.5612    5.5878    1.0413 C   0  0  0  0  0  0  0  0  0  0  0  0
    3.1192    4.5941    0.5595 S   0  0  0  0  0  0  0  0  0  0  0  0
    3.2503    4.7880   -1.2685 C   0  0  0  0  0  0  0  0  0  0  0  0
   -5.1358    5.2574    3.7647 H   0  0  0  0  0  0  0  0  0  0  0  0
   -4.6552    6.9496    3.3418 H   0  0  0  0  0  0  0  0  0  0  0  0
   -3.4019    5.6413    3.2947 H   0  0  0  0  0  0  0  0  0  0  0  0
   -4.3272    3.5221    1.8679 H   0  0  0  0  0  0  0  0  0  0  0  0
   -4.2988    4.8141   -0.8257 H   0  0  0  0  0  0  0  0  0  0  0  0
   -4.0009    2.5248   -1.6979 H   0  0  0  0  0  0  0  0  0  0  0  0
   -4.5335    1.8068   -0.1022 H   0  0  0  0  0  0  0  0  0  0  0  0
   -2.2984    4.3803   -1.7606 H   0  0  0  0  0  0  0  0  0  0  0  0
   -1.4267    4.8792   -0.2219 H   0  0  0  0  0  0  0  0  0  0  0  0
    0.6847    5.4463   -1.0124 H   0  0  0  0  0  0  0  0  0  0  0  0
    3.2726    2.3620   -2.3933 H   0  0  0  0  0  0  0  0  0  0  0  0
   -0.9378    1.6156   -2.0339 H   0  0  0  0  0  0  0  0  0  0  0  0
    1.5901    0.8148   -0.5673 H   0  0  0  0  0  0  0  0  0  0  0  0
    2.5400    0.1775   -1.9752 H   0  0  0  0  0  0  0  0  0  0  0  0
   -0.7416   -1.6875    0.1319 H   0  0  0  0  0  0  0  0  0  0  0  0
    0.6767   -0.7776    0.5565 H   0  0  0  0  0  0  0  0  0  0  0  0
    0.9566   -3.4196   -0.9319 H   0  0  0  0  0  0  0  0  0  0  0  0
    1.1257   -3.2698    2.0429 H   0  0  0  0  0  0  0  0  0  0  0  0
   -1.9850   -3.6627   -0.2024 H   0  0  0  0  0  0  0  0  0  0  0  0
   -0.6752   -4.5812   -1.7250 H   0  0  0  0  0  0  0  0  0  0  0  0
   -1.3069   -6.2516   -1.3862 H   0  0  0  0  0  0  0  0  0  0  0  0
    0.1541   -5.6908   -0.5787 H   0  0  0  0  0  0  0  0  0  0  0  0
   -2.3974   -6.1395    1.4910 H   0  0  0  0  0  0  0  0  0  0  0  0
   -3.3461   -4.4372   -1.6512 H   0  0  0  0  0  0  0  0  0  0  0  0
   -4.1355   -5.9959   -3.1125 H   0  0  0  0  0  0  0  0  0  0  0  0
   -4.1193   -7.1249   -1.6999 H   0  0  0  0  0  0  0  0  0  0  0  0
   -5.6907   -6.3379   -2.2304 H   0  0  0  0  0  0  0  0  0  0  0  0
   -5.3153   -3.4515   -2.2439 H   0  0  0  0  0  0  0  0  0  0  0  0
   -6.0472   -0.9144    0.2961 H   0  0  0  0  0  0  0  0  0  0  0  0
   -4.7253   -0.6536   -1.7431 H   0  0  0  0  0  0  0  0  0  0  0  0
   -6.3725    0.0134   -1.9314 H   0  0  0  0  0  0  0  0  0  0  0  0
   -6.0563   -1.5163   -2.7215 H   0  0  0  0  0  0  0  0  0  0  0  0
   -8.0232   -2.4784   -1.4012 H   0  0  0  0  0  0  0  0  0  0  0  0
   -9.6020    0.0449    0.2429 H   0  0  0  0  0  0  0  0  0  0  0  0
   -9.4946   -1.0908    3.0965 H   0  0  0  0  0  0  0  0  0  0  0  0
  -10.3072    0.4414    2.5578 H   0  0  0  0  0  0  0  0  0  0  0  0
  -10.8989   -1.1518    1.9537 H   0  0  0  0  0  0  0  0  0  0  0  0
   -7.3870    0.0934    2.3556 H   0  0  0  0  0  0  0  0  0  0  0  0
   -8.0890    1.0941   -1.0570 H   0  0  0  0  0  0  0  0  0  0  0  0
   -9.1137    3.5800   -1.4746 H   0  0  0  0  0  0  0  0  0  0  0  0
   -9.4383    3.4370    0.3002 H   0  0  0  0  0  0  0  0  0  0  0  0
  -10.0756    2.2024   -0.8611 H   0  0  0  0  0  0  0  0  0  0  0  0
   -6.7855    2.6849   -2.1455 H   0  0  0  0  0  0  0  0  0  0  0  0
    3.9434   -3.5311   -1.3666 H   0  0  0  0  0  0  0  0  0  0  0  0
    4.8160   -5.1799   -0.0232 H   0  0  0  0  0  0  0  0  0  0  0  0
    2.3372   -5.4300   -0.8164 H   0  0  0  0  0  0  0  0  0  0  0  0
    1.9499   -5.6116    0.8431 H   0  0  0  0  0  0  0  0  0  0  0  0
    3.1282   -6.7806   -0.0251 H   0  0  0  0  0  0  0  0  0  0  0  0
    5.3140   -3.2381    3.1824 H   0  0  0  0  0  0  0  0  0  0  0  0
    5.9561   -3.0322    0.3667 H   0  0  0  0  0  0  0  0  0  0  0  0
    7.8015   -4.9088    2.0634 H   0  0  0  0  0  0  0  0  0  0  0  0
    6.8761   -5.3073    0.6430 H   0  0  0  0  0  0  0  0  0  0  0  0
    8.1512   -4.2052    0.2375 H   0  0  0  0  0  0  0  0  0  0  0  0
    8.4956   -0.5146    1.3707 H   0  0  0  0  0  0  0  0  0  0  0  0
    7.6239   -2.3107   -0.9264 H   0  0  0  0  0  0  0  0  0  0  0  0
    9.5768   -1.4154   -2.1677 H   0  0  0  0  0  0  0  0  0  0  0  0
   10.0858   -0.4380   -0.7515 H   0  0  0  0  0  0  0  0  0  0  0  0
   10.0986   -2.2318   -0.6531 H   0  0  0  0  0  0  0  0  0  0  0  0
    5.5768    0.6045   -0.2924 H   0  0  0  0  0  0  0  0  0  0  0  0
    6.7071    2.6909   -0.7683 H   0  0  0  0  0  0  0  0  0  0  0  0
    8.9354    3.2053    0.1522 H   0  0  0  0  0  0  0  0  0  0  0  0
    9.0024    1.8860   -1.0249 H   0  0  0  0  0  0  0  0  0  0  0  0
    9.1137    1.5337    0.7545 H   0  0  0  0  0  0  0  0  0  0  0  0
    5.9234    3.9730    2.7022 H   0  0  0  0  0  0  0  0  0  0  0  0
    5.8120    4.4878   -0.2869 H   0  0  0  0  0  0  0  0  0  0  0  0
    6.3138    7.0984   -0.8159 H   0  0  0  0  0  0  0  0  0  0  0  0
    8.0580    7.3167   -0.4048 H   0  0  0  0  0  0  0  0  0  0  0  0
    4.4770    5.7347    2.1574 H   0  0  0  0  0  0  0  0  0  0  0  0
    4.4921    6.5974    0.6018 H   0  0  0  0  0  0  0  0  0  0  0  0
    3.2304    5.8622   -1.5771 H   0  0  0  0  0  0  0  0  0  0  0  0
    4.1754    4.2929   -1.6524 H   0  0  0  0  0  0  0  0  0  0  0  0
  1  2  1  0
  2  3  2  0
  2  4  1  0
  4  5  1  0
  5  6  1  0
  6  7  1  0
  7  8  1  0
  8  9  1  0
  9 10  1  0
 10 11  2  0
 11 12  1  0
 12 13  2  0
 13 14  1  0
 13 15  1  0
 15 16  1  0
 16 17  1  0
 17 18  1  0
 18 19  1  0
 19 20  1  0
 20 21  2  0
 20 22  1  0
 22 23  1  0
 22 24  1  0
 24 25  1  0
 25 26  2  0
 25 27  1  0
 27 28  1  0
 27 29  1  0
 29 30  1  0
 30 31  2  0
 30 32  1  0
 32 33  1  0
 32 34  1  0
 34 35  1  0
 35 36  2  0
 35 37  1  0
 37 38  1  0
 37 39  1  0
 39 40  1  0
 40 41  2  0
 40 42  1  0
 42 43  1  0
 42 44  1  0
 44 45  1  0
 45 46  2  0
 18 47  1  0
 47 48  2  0
 47 49  1  0
 49 50  1  0
 50 51  1  0
 50 52  1  0
 52 53  2  0
 52 54  1  0
 54 55  1  0
 55 56  1  0
 55 57  1  0
 57 58  2  0
 57 59  1  0
 59 60  1  0
 60 61  1  0
 60 62  1  0
 62 63  2  0
 62 64  1  0
 64 65  1  0
 65 66  1  0
 65 67  1  0
 67 68  2  0
 67 69  1  0
 69 70  1  0
 70 71  1  0
 71 72  1  0
 71 73  2  0
 70 74  1  0
 74 75  1  0
 75 76  1  0
 45  5  1  0
 14  9  2  0
 76 11  1  0
  1 77  1  0
  1 78  1  0
  1 79  1  0
  4 80  1  0
  5 81  1  6
  6 82  1  0
  6 83  1  0
  8 84  1  0
  8 85  1  0
 10 86  1  0
 12 87  1  0
 14 88  1  0
 15 89  1  0
 15 90  1  0
 17 91  1  0
 17 92  1  0
 18 93  1  6
 19 94  1  0
 22 95  1  6
 23 96  1  0
 23 97  1  0
 23 98  1  0
 24 99  1  0
 27100  1  6
 28101  1  0
 28102  1  0
 28103  1  0
 29104  1  0
 32105  1  1
 33106  1  0
 33107  1  0
 33108  1  0
 34109  1  0
 37110  1  6
 38111  1  0
 38112  1  0
 38113  1  0
 39114  1  0
 42115  1  6
 43116  1  0
 43117  1  0
 43118  1  0
 44119  1  0
 49120  1  0
 50121  1  6
 51122  1  0
 51123  1  0
 51124  1  0
 54125  1  0
 55126  1  6
 56127  1  0
 56128  1  0
 56129  1  0
 59130  1  0
 60131  1  6
 61132  1  0
 61133  1  0
 61134  1  0
 64135  1  0
 65136  1  6
 66137  1  0
 66138  1  0
 66139  1  0
 69140  1  0
 70141  1  6
 72142  1  0
 72143  1  0
 74144  1  0
 74145  1  0
 76146  1  0
 76147  1  0
M  END
