
     RDKit          3D

137139  0  0  0  0  0  0  0  0999 V2000
   -5.7200    8.1940   -0.9264 C   0  0  0  0  0  0  0  0  0  0  0  0
   -4.9401    6.9367   -1.1389 C   0  0  0  0  0  0  0  0  0  0  0  0
   -4.7158    6.5512   -2.3185 O   0  0  0  0  0  0  0  0  0  0  0  0
   -4.4625    6.1832   -0.0142 N   0  0  0  0  0  0  0  0  0  0  0  0
   -3.8459    4.8565   -0.1108 C   0  0  2  0  0  0  0  0  0  0  0  0
   -2.4151    4.9718   -0.6754 C   0  0  0  0  0  0  0  0  0  0  0  0
   -1.2932    5.7937    0.5183 S   0  0  0  0  0  0  0  0  0  0  0  0
   -0.8778    4.3022    1.4879 C   0  0  0  0  0  0  0  0  0  0  0  0
    0.2848    3.5655    0.8765 C   0  0  0  0  0  0  0  0  0  0  0  0
    1.6005    4.0097    1.0789 C   0  0  0  0  0  0  0  0  0  0  0  0
    2.6873    3.2621    0.5963 C   0  0  0  0  0  0  0  0  0  0  0  0
    2.4513    2.0661   -0.0978 C   0  0  0  0  0  0  0  0  0  0  0  0
    1.1374    1.6224   -0.3189 C   0  0  0  0  0  0  0  0  0  0  0  0
    0.0615    2.3854    0.1593 C   0  0  0  0  0  0  0  0  0  0  0  0
    0.8654    0.2956   -0.9697 C   0  0  0  0  0  0  0  0  0  0  0  0
    0.0765   -0.7958    0.2649 S   0  0  0  0  0  0  0  0  0  0  0  0
   -0.0549   -2.2769   -0.7928 C   0  0  0  0  0  0  0  0  0  0  0  0
    1.1443   -3.2181   -0.5847 C   0  0  2  0  0  0  0  0  0  0  0  0
    1.0260   -4.3604   -1.5030 N   0  0  0  0  0  0  0  0  0  0  0  0
    1.0103   -5.7341   -1.0906 C   0  0  0  0  0  0  0  0  0  0  0  0
    2.0917   -6.3806   -1.0776 O   0  0  0  0  0  0  0  0  0  0  0  0
   -0.2757   -6.4468   -0.7537 C   0  0  1  0  0  0  0  0  0  0  0  0
   -0.2275   -7.0072    0.6758 C   0  0  0  0  0  0  0  0  0  0  0  0
   -1.4474   -5.5886   -1.0131 N   0  0  0  0  0  0  0  0  0  0  0  0
   -2.4464   -5.2212   -0.0445 C   0  0  0  0  0  0  0  0  0  0  0  0
   -2.0913   -4.7825    1.0862 O   0  0  0  0  0  0  0  0  0  0  0  0
   -3.9087   -5.2463   -0.4204 C   0  0  1  0  0  0  0  0  0  0  0  0
   -4.2789   -6.6165   -0.9995 C   0  0  0  0  0  0  0  0  0  0  0  0
   -4.7489   -4.9784    0.7553 N   0  0  0  0  0  0  0  0  0  0  0  0
   -5.8489   -4.0553    0.8060 C   0  0  0  0  0  0  0  0  0  0  0  0
   -6.2222   -3.6342    1.9347 O   0  0  0  0  0  0  0  0  0  0  0  0
   -6.6478   -3.6602   -0.4225 C   0  0  1  0  0  0  0  0  0  0  0  0
   -7.7957   -4.6542   -0.6282 C   0  0  0  0  0  0  0  0  0  0  0  0
   -7.1784   -2.3027   -0.2533 N   0  0  0  0  0  0  0  0  0  0  0  0
   -6.3130   -1.1594   -0.1418 C   0  0  0  0  0  0  0  0  0  0  0  0
   -5.1427   -1.2239   -0.6150 O   0  0  0  0  0  0  0  0  0  0  0  0
   -6.7760    0.1359    0.4890 C   0  0  1  0  0  0  0  0  0  0  0  0
   -7.9869   -0.0660    1.4130 C   0  0  0  0  0  0  0  0  0  0  0  0
   -5.6782    0.7232    1.2664 N   0  0  0  0  0  0  0  0  0  0  0  0
   -5.5106    2.1299    1.5232 C   0  0  0  0  0  0  0  0  0  0  0  0
   -4.5682    2.4909    2.2784 O   0  0  0  0  0  0  0  0  0  0  0  0
   -6.4229    3.1771    0.9142 C   0  0  1  0  0  0  0  0  0  0  0  0
   -6.5729    4.4328    1.7843 C   0  0  0  0  0  0  0  0  0  0  0  0
   -6.0287    3.5010   -0.4650 N   0  0  0  0  0  0  0  0  0  0  0  0
   -4.7251    3.9159   -0.9146 C   0  0  0  0  0  0  0  0  0  0  0  0
   -4.3464    3.5509   -2.0624 O   0  0  0  0  0  0  0  0  0  0  0  0
    1.2910   -3.6655    0.8657 C   0  0  0  0  0  0  0  0  0  0  0  0
    0.3209   -3.5402    1.6635 O   0  0  0  0  0  0  0  0  0  0  0  0
    2.4991   -4.2737    1.3538 N   0  0  0  0  0  0  0  0  0  0  0  0
    3.8180   -4.0637    0.7466 C   0  0  2  0  0  0  0  0  0  0  0  0
    4.7846   -5.1711    1.1870 C   0  0  0  0  0  0  0  0  0  0  0  0
    4.3398   -2.7136    1.1550 C   0  0  0  0  0  0  0  0  0  0  0  0
    4.5399   -2.4612    2.3753 O   0  0  0  0  0  0  0  0  0  0  0  0
    4.5459   -1.6850    0.1814 N   0  0  0  0  0  0  0  0  0  0  0  0
    5.8253   -1.4726   -0.4990 C   0  0  2  0  0  0  0  0  0  0  0  0
    6.0426   -2.5305   -1.5858 C   0  0  0  0  0  0  0  0  0  0  0  0
    6.9628   -1.4530    0.4985 C   0  0  0  0  0  0  0  0  0  0  0  0
    7.4209   -2.5459    0.9324 O   0  0  0  0  0  0  0  0  0  0  0  0
    7.4774   -0.2285    1.0482 N   0  0  0  0  0  0  0  0  0  0  0  0
    7.6604    1.0082    0.2742 C   0  0  2  0  0  0  0  0  0  0  0  0
    8.7156    0.7905   -0.8152 C   0  0  0  0  0  0  0  0  0  0  0  0
    8.0833    2.1373    1.1822 C   0  0  0  0  0  0  0  0  0  0  0  0
    9.0177    1.9590    2.0086 O   0  0  0  0  0  0  0  0  0  0  0  0
    7.4359    3.4151    1.1275 N   0  0  0  0  0  0  0  0  0  0  0  0
    7.3835    4.1815   -0.1204 C   0  0  2  0  0  0  0  0  0  0  0  0
    8.7056    4.8774   -0.3327 C   0  0  0  0  0  0  0  0  0  0  0  0
    9.1437    5.8986    0.5648 N   0  0  0  0  0  0  0  0  0  0  0  0
    9.4395    4.5421   -1.3000 O   0  0  0  0  0  0  0  0  0  0  0  0
    6.2292    5.2026   -0.0935 C   0  0  0  0  0  0  0  0  0  0  0  0
    4.6827    4.4951   -0.7655 S   0  0  0  0  0  0  0  0  0  0  0  0
    4.0966    3.7484    0.7935 C   0  0  0  0  0  0  0  0  0  0  0  0
   -6.7154    8.1086   -1.4155 H   0  0  0  0  0  0  0  0  0  0  0  0
   -5.1683    9.0538   -1.3683 H   0  0  0  0  0  0  0  0  0  0  0  0
   -5.8702    8.3944    0.1562 H   0  0  0  0  0  0  0  0  0  0  0  0
   -4.5925    6.5862    0.9424 H   0  0  0  0  0  0  0  0  0  0  0  0
   -3.7496    4.4329    0.9020 H   0  0  0  0  0  0  0  0  0  0  0  0
   -2.4142    5.5703   -1.6061 H   0  0  0  0  0  0  0  0  0  0  0  0
   -2.0169    3.9699   -0.9354 H   0  0  0  0  0  0  0  0  0  0  0  0
   -0.6081    4.6166    2.5193 H   0  0  0  0  0  0  0  0  0  0  0  0
   -1.7576    3.6296    1.5877 H   0  0  0  0  0  0  0  0  0  0  0  0
    1.7766    4.9225    1.6355 H   0  0  0  0  0  0  0  0  0  0  0  0
    3.2905    1.4780   -0.4518 H   0  0  0  0  0  0  0  0  0  0  0  0
   -0.9522    2.0303    0.0016 H   0  0  0  0  0  0  0  0  0  0  0  0
    1.8014   -0.1755   -1.3405 H   0  0  0  0  0  0  0  0  0  0  0  0
    0.1805    0.4441   -1.8299 H   0  0  0  0  0  0  0  0  0  0  0  0
   -0.1343   -1.9897   -1.8638 H   0  0  0  0  0  0  0  0  0  0  0  0
   -0.9942   -2.8014   -0.5336 H   0  0  0  0  0  0  0  0  0  0  0  0
    2.0490   -2.6418   -0.8655 H   0  0  0  0  0  0  0  0  0  0  0  0
    1.0535   -4.1663   -2.5294 H   0  0  0  0  0  0  0  0  0  0  0  0
   -0.3560   -7.3189   -1.4374 H   0  0  0  0  0  0  0  0  0  0  0  0
   -1.2001   -7.4769    0.9394 H   0  0  0  0  0  0  0  0  0  0  0  0
    0.0081   -6.2125    1.4128 H   0  0  0  0  0  0  0  0  0  0  0  0
    0.5509   -7.7927    0.7405 H   0  0  0  0  0  0  0  0  0  0  0  0
   -1.6604   -5.3845   -2.0159 H   0  0  0  0  0  0  0  0  0  0  0  0
   -4.0471   -4.4716   -1.1984 H   0  0  0  0  0  0  0  0  0  0  0  0
   -3.6498   -6.8532   -1.8809 H   0  0  0  0  0  0  0  0  0  0  0  0
   -4.1509   -7.4110   -0.2327 H   0  0  0  0  0  0  0  0  0  0  0  0
   -5.3332   -6.6070   -1.3361 H   0  0  0  0  0  0  0  0  0  0  0  0
   -4.5242   -5.4952    1.6393 H   0  0  0  0  0  0  0  0  0  0  0  0
   -6.0188   -3.6662   -1.3309 H   0  0  0  0  0  0  0  0  0  0  0  0
   -7.4098   -5.6925   -0.7095 H   0  0  0  0  0  0  0  0  0  0  0  0
   -8.3370   -4.4126   -1.5698 H   0  0  0  0  0  0  0  0  0  0  0  0
   -8.5105   -4.6087    0.2190 H   0  0  0  0  0  0  0  0  0  0  0  0
   -8.2132   -2.1457   -0.3290 H   0  0  0  0  0  0  0  0  0  0  0  0
   -7.0607    0.8168   -0.3422 H   0  0  0  0  0  0  0  0  0  0  0  0
   -8.9001   -0.2662    0.8161 H   0  0  0  0  0  0  0  0  0  0  0  0
   -7.8066   -0.9082    2.1157 H   0  0  0  0  0  0  0  0  0  0  0  0
   -8.1700    0.8459    2.0160 H   0  0  0  0  0  0  0  0  0  0  0  0
   -5.0599    0.0724    1.8011 H   0  0  0  0  0  0  0  0  0  0  0  0
   -7.4439    2.7500    0.8727 H   0  0  0  0  0  0  0  0  0  0  0  0
   -7.1202    5.2213    1.2230 H   0  0  0  0  0  0  0  0  0  0  0  0
   -5.6012    4.8347    2.1251 H   0  0  0  0  0  0  0  0  0  0  0  0
   -7.1661    4.1856    2.6951 H   0  0  0  0  0  0  0  0  0  0  0  0
   -6.6796    3.1775   -1.2107 H   0  0  0  0  0  0  0  0  0  0  0  0
    2.4557   -4.7114    2.3045 H   0  0  0  0  0  0  0  0  0  0  0  0
    3.7383   -4.1184   -0.3587 H   0  0  0  0  0  0  0  0  0  0  0  0
    4.8466   -5.2199    2.2963 H   0  0  0  0  0  0  0  0  0  0  0  0
    4.4316   -6.1526    0.8052 H   0  0  0  0  0  0  0  0  0  0  0  0
    5.8010   -4.9754    0.7879 H   0  0  0  0  0  0  0  0  0  0  0  0
    3.7712   -1.0091    0.0189 H   0  0  0  0  0  0  0  0  0  0  0  0
    5.7726   -0.4989   -1.0243 H   0  0  0  0  0  0  0  0  0  0  0  0
    6.9702   -2.3019   -2.1540 H   0  0  0  0  0  0  0  0  0  0  0  0
    5.1834   -2.5220   -2.2929 H   0  0  0  0  0  0  0  0  0  0  0  0
    6.1307   -3.5458   -1.1498 H   0  0  0  0  0  0  0  0  0  0  0  0
    7.9090   -0.2984    1.9981 H   0  0  0  0  0  0  0  0  0  0  0  0
    6.6970    1.2966   -0.1988 H   0  0  0  0  0  0  0  0  0  0  0  0
    8.8771    1.7253   -1.3920 H   0  0  0  0  0  0  0  0  0  0  0  0
    8.3743    0.0053   -1.5254 H   0  0  0  0  0  0  0  0  0  0  0  0
    9.6761    0.4738   -0.3640 H   0  0  0  0  0  0  0  0  0  0  0  0
    7.3958    3.9540    2.0239 H   0  0  0  0  0  0  0  0  0  0  0  0
    7.2166    3.4929   -0.9770 H   0  0  0  0  0  0  0  0  0  0  0  0
    8.5934    6.1454    1.4187 H   0  0  0  0  0  0  0  0  0  0  0  0
   10.0291    6.4241    0.3674 H   0  0  0  0  0  0  0  0  0  0  0  0
    6.0758    5.6195    0.9271 H   0  0  0  0  0  0  0  0  0  0  0  0
    6.4791    6.0740   -0.7474 H   0  0  0  0  0  0  0  0  0  0  0  0
    4.7473    2.8977    1.0831 H   0  0  0  0  0  0  0  0  0  0  0  0
    4.1262    4.5066    1.6071 H   0  0  0  0  0  0  0  0  0  0  0  0
  1  2  1  0
  2  3  2  0
  2  4  1  0
  4  5  1  0
  5  6  1  0
  6  7  1  0
  7  8  1  0
  8  9  1  0
  9 10  1  0
 10 11  2  0
 11 12  1  0
 12 13  2  0
 13 14  1  0
 13 15  1  0
 15 16  1  0
 16 17  1  0
 17 18  1  0
 18 19  1  0
 19 20  1  0
 20 21  2  0
 20 22  1  0
 22 23  1  0
 22 24  1  0
 24 25  1  0
 25 26  2  0
 25 27  1  0
 27 28  1  0
 27 29  1  0
 29 30  1  0
 30 31  2  0
 30 32  1  0
 32 33  1  0
 32 34  1  0
 34 35  1  0
 35 36  2  0
 35 37  1  0
 37 38  1  0
 37 39  1  0
 39 40  1  0
 40 41  2  0
 40 42  1  0
 42 43  1  0
 42 44  1  0
 44 45  1  0
 45 46  2  0
 18 47  1  0
 47 48  2  0
 47 49  1  0
 49 50  1  0
 50 51  1  0
 50 52  1  0
 52 53  2  0
 52 54  1  0
 54 55  1  0
 55 56  1  0
 55 57  1  0
 57 58  2  0
 57 59  1  0
 59 60  1  0
 60 61  1  0
 60 62  1  0
 62 63  2  0
 62 64  1  0
 64 65  1  0
 65 66  1  0
 66 67  1  0
 66 68  2  0
 65 69  1  0
 69 70  1  0
 70 71  1  0
 45  5  1  0
 14  9  2  0
 71 11  1  0
  1 72  1  0
  1 73  1  0
  1 74  1  0
  4 75  1  0
  5 76  1  1
  6 77  1  0
  6 78  1  0
  8 79  1  0
  8 80  1  0
 10 81  1  0
 12 82  1  0
 14 83  1  0
 15 84  1  0
 15 85  1  0
 17 86  1  0
 17 87  1  0
 18 88  1  6
 19 89  1  0
 22 90  1  6
 23 91  1  0
 23 92  1  0
 23 93  1  0
 24 94  1  0
 27 95  1  6
 28 96  1  0
 28 97  1  0
 28 98  1  0
 29 99  1  0
 32100  1  6
 33101  1  0
 33102  1  0
 33103  1  0
 34104  1  0
 37105  1  6
 38106  1  0
 38107  1  0
 38108  1  0
 39109  1  0
 42110  1  6
 43111  1  0
 43112  1  0
 43113  1  0
 44114  1  0
 49115  1  0
 50116  1  6
 51117  1  0
 51118  1  0
 51119  1  0
 54120  1  0
 55121  1  6
 56122  1  0
 56123  1  0
 56124  1  0
 59125  1  0
 60126  1  6
 61127  1  0
 61128  1  0
 61129  1  0
 64130  1  0
 65131  1  6
 67132  1  0
 67133  1  0
 69134  1  0
 69135  1  0
 71136  1  0
 71137  1  0
M  END
