
     RDKit          3D

147149  0  0  0  0  0  0  0  0999 V2000
   -5.7045    8.3127   -0.3260 C   0  0  0  0  0  0  0  0  0  0  0  0
   -4.4533    7.5059   -0.1962 C   0  0  0  0  0  0  0  0  0  0  0  0
   -3.3653    7.9901   -0.6127 O   0  0  0  0  0  0  0  0  0  0  0  0
   -4.4851    6.2299    0.4546 N   0  0  0  0  0  0  0  0  0  0  0  0
   -4.0132    4.9808   -0.1650 C   0  0  2  0  0  0  0  0  0  0  0  0
   -2.5081    5.0072   -0.5047 C   0  0  0  0  0  0  0  0  0  0  0  0
   -1.4946    5.0576    1.0173 S   0  0  0  0  0  0  0  0  0  0  0  0
   -1.4136    3.2467    1.3003 C   0  0  0  0  0  0  0  0  0  0  0  0
   -0.2763    2.6489    0.5162 C   0  0  0  0  0  0  0  0  0  0  0  0
    1.0437    2.8683    0.9337 C   0  0  0  0  0  0  0  0  0  0  0  0
    2.1257    2.4217    0.1548 C   0  0  0  0  0  0  0  0  0  0  0  0
    1.8776    1.7343   -1.0393 C   0  0  0  0  0  0  0  0  0  0  0  0
    0.5631    1.4622   -1.4398 C   0  0  0  0  0  0  0  0  0  0  0  0
   -0.5083    1.9263   -0.6588 C   0  0  0  0  0  0  0  0  0  0  0  0
    0.3109    0.6649   -2.6925 C   0  0  0  0  0  0  0  0  0  0  0  0
    0.7229   -1.0975   -2.4389 S   0  0  0  0  0  0  0  0  0  0  0  0
   -0.6863   -1.4958   -1.3482 C   0  0  0  0  0  0  0  0  0  0  0  0
   -0.4868   -2.8312   -0.6062 C   0  0  2  0  0  0  0  0  0  0  0  0
   -1.6351   -3.0840    0.2725 N   0  0  0  0  0  0  0  0  0  0  0  0
   -1.6417   -4.1549    1.2263 C   0  0  0  0  0  0  0  0  0  0  0  0
   -1.1357   -5.2742    0.9156 O   0  0  0  0  0  0  0  0  0  0  0  0
   -2.1593   -3.9373    2.6254 C   0  0  1  0  0  0  0  0  0  0  0  0
   -2.9581   -2.6423    2.8077 C   0  0  0  0  0  0  0  0  0  0  0  0
   -2.9232   -5.0968    3.1029 N   0  0  0  0  0  0  0  0  0  0  0  0
   -4.2365   -5.4892    2.6640 C   0  0  0  0  0  0  0  0  0  0  0  0
   -4.9955   -6.0752    3.4850 O   0  0  0  0  0  0  0  0  0  0  0  0
   -4.6874   -5.3508    1.2216 C   0  0  1  0  0  0  0  0  0  0  0  0
   -4.2949   -6.6041    0.4429 C   0  0  0  0  0  0  0  0  0  0  0  0
   -6.1412   -5.1779    1.1410 N   0  0  0  0  0  0  0  0  0  0  0  0
   -6.8093   -4.3426    0.1779 C   0  0  0  0  0  0  0  0  0  0  0  0
   -7.9588   -4.6696   -0.2169 O   0  0  0  0  0  0  0  0  0  0  0  0
   -6.1768   -3.0917   -0.3855 C   0  0  1  0  0  0  0  0  0  0  0  0
   -5.4490   -3.4005   -1.6991 C   0  0  0  0  0  0  0  0  0  0  0  0
   -7.1953   -2.0613   -0.6088 N   0  0  0  0  0  0  0  0  0  0  0  0
   -7.8295   -1.3835    0.4788 C   0  0  0  0  0  0  0  0  0  0  0  0
   -8.9683   -1.7644    0.8665 O   0  0  0  0  0  0  0  0  0  0  0  0
   -7.1983   -0.1632    1.1023 C   0  0  1  0  0  0  0  0  0  0  0  0
   -6.0984   -0.5940    2.0918 C   0  0  0  0  0  0  0  0  0  0  0  0
   -6.6814    0.7074    0.0316 N   0  0  0  0  0  0  0  0  0  0  0  0
   -5.5824    1.6132    0.1763 C   0  0  0  0  0  0  0  0  0  0  0  0
   -5.3058    2.0865    1.3151 O   0  0  0  0  0  0  0  0  0  0  0  0
   -4.8101    2.0981   -1.0249 C   0  0  1  0  0  0  0  0  0  0  0  0
   -4.7002    1.0384   -2.1287 C   0  0  0  0  0  0  0  0  0  0  0  0
   -5.4189    3.3190   -1.5533 N   0  0  0  0  0  0  0  0  0  0  0  0
   -4.8605    4.6300   -1.3748 C   0  0  0  0  0  0  0  0  0  0  0  0
   -5.0906    5.5153   -2.2406 O   0  0  0  0  0  0  0  0  0  0  0  0
    0.7721   -2.7894    0.2359 C   0  0  0  0  0  0  0  0  0  0  0  0
    0.8947   -1.9095    1.1327 O   0  0  0  0  0  0  0  0  0  0  0  0
    1.7468   -3.8378    0.1581 N   0  0  0  0  0  0  0  0  0  0  0  0
    2.4687   -4.1546   -1.0802 C   0  0  2  0  0  0  0  0  0  0  0  0
    3.2215   -5.4767   -0.9435 C   0  0  0  0  0  0  0  0  0  0  0  0
    3.4127   -3.0386   -1.4754 C   0  0  0  0  0  0  0  0  0  0  0  0
    3.6238   -2.8479   -2.7026 O   0  0  0  0  0  0  0  0  0  0  0  0
    4.0346   -2.1505   -0.5269 N   0  0  0  0  0  0  0  0  0  0  0  0
    4.6160   -2.5728    0.7515 C   0  0  2  0  0  0  0  0  0  0  0  0
    4.5744   -1.4333    1.7781 C   0  0  0  0  0  0  0  0  0  0  0  0
    6.0015   -3.1589    0.5810 C   0  0  0  0  0  0  0  0  0  0  0  0
    6.1655   -4.3691    0.9019 O   0  0  0  0  0  0  0  0  0  0  0  0
    7.1598   -2.4158    0.1445 N   0  0  0  0  0  0  0  0  0  0  0  0
    7.1658   -1.1876   -0.6575 C   0  0  2  0  0  0  0  0  0  0  0  0
    7.0700   -1.5574   -2.1395 C   0  0  0  0  0  0  0  0  0  0  0  0
    8.4287   -0.3905   -0.4104 C   0  0  0  0  0  0  0  0  0  0  0  0
    9.2781   -0.7859    0.4334 O   0  0  0  0  0  0  0  0  0  0  0  0
    8.7262    0.7800   -1.1779 N   0  0  0  0  0  0  0  0  0  0  0  0
    7.8930    1.9836   -1.1471 C   0  0  2  0  0  0  0  0  0  0  0  0
    7.6446    2.4646   -2.5823 C   0  0  0  0  0  0  0  0  0  0  0  0
    8.5877    3.0767   -0.3570 C   0  0  0  0  0  0  0  0  0  0  0  0
    9.8500    3.0744   -0.2645 O   0  0  0  0  0  0  0  0  0  0  0  0
    7.8657    4.1601    0.2440 N   0  0  0  0  0  0  0  0  0  0  0  0
    6.5141    4.0618    0.8016 C   0  0  1  0  0  0  0  0  0  0  0  0
    6.4212    4.9039    2.0451 C   0  0  0  0  0  0  0  0  0  0  0  0
    6.0866    4.3103    3.2992 N   0  0  0  0  0  0  0  0  0  0  0  0
    6.6625    6.1415    1.9898 O   0  0  0  0  0  0  0  0  0  0  0  0
    5.4870    4.5036   -0.2557 C   0  0  0  0  0  0  0  0  0  0  0  0
    3.7805    4.5634    0.3935 S   0  0  0  0  0  0  0  0  0  0  0  0
    3.5323    2.7534    0.5749 C   0  0  0  0  0  0  0  0  0  0  0  0
   -5.8904    8.5316   -1.4061 H   0  0  0  0  0  0  0  0  0  0  0  0
   -6.5797    7.7563    0.0699 H   0  0  0  0  0  0  0  0  0  0  0  0
   -5.5932    9.2688    0.2279 H   0  0  0  0  0  0  0  0  0  0  0  0
   -5.1057    6.1425    1.2919 H   0  0  0  0  0  0  0  0  0  0  0  0
   -4.1612    4.1871    0.5913 H   0  0  0  0  0  0  0  0  0  0  0  0
   -2.2431    4.1228   -1.1080 H   0  0  0  0  0  0  0  0  0  0  0  0
   -2.2612    5.8897   -1.1267 H   0  0  0  0  0  0  0  0  0  0  0  0
   -2.3802    2.7614    1.0642 H   0  0  0  0  0  0  0  0  0  0  0  0
   -1.2458    3.0657    2.3855 H   0  0  0  0  0  0  0  0  0  0  0  0
    1.2352    3.4104    1.8503 H   0  0  0  0  0  0  0  0  0  0  0  0
    2.7013    1.4090   -1.6608 H   0  0  0  0  0  0  0  0  0  0  0  0
   -1.5235    1.7437   -0.9887 H   0  0  0  0  0  0  0  0  0  0  0  0
    0.9448    1.0664   -3.5116 H   0  0  0  0  0  0  0  0  0  0  0  0
   -0.7472    0.7603   -3.0242 H   0  0  0  0  0  0  0  0  0  0  0  0
   -0.8304   -0.7047   -0.5792 H   0  0  0  0  0  0  0  0  0  0  0  0
   -1.6156   -1.5407   -1.9613 H   0  0  0  0  0  0  0  0  0  0  0  0
   -0.4247   -3.6536   -1.3480 H   0  0  0  0  0  0  0  0  0  0  0  0
   -2.5476   -2.6139    0.0545 H   0  0  0  0  0  0  0  0  0  0  0  0
   -1.2509   -3.8378    3.2695 H   0  0  0  0  0  0  0  0  0  0  0  0
   -2.3463   -1.7675    2.5070 H   0  0  0  0  0  0  0  0  0  0  0  0
   -3.2349   -2.5194    3.8722 H   0  0  0  0  0  0  0  0  0  0  0  0
   -3.8719   -2.6630    2.2016 H   0  0  0  0  0  0  0  0  0  0  0  0
   -2.5502   -5.5813    3.9548 H   0  0  0  0  0  0  0  0  0  0  0  0
   -4.1775   -4.4898    0.7554 H   0  0  0  0  0  0  0  0  0  0  0  0
   -4.7955   -7.5049    0.8803 H   0  0  0  0  0  0  0  0  0  0  0  0
   -4.5947   -6.5023   -0.6167 H   0  0  0  0  0  0  0  0  0  0  0  0
   -3.1954   -6.7575    0.4721 H   0  0  0  0  0  0  0  0  0  0  0  0
   -6.7416   -5.8977    1.6147 H   0  0  0  0  0  0  0  0  0  0  0  0
   -5.4285   -2.6942    0.3280 H   0  0  0  0  0  0  0  0  0  0  0  0
   -4.9585   -2.4759   -2.0680 H   0  0  0  0  0  0  0  0  0  0  0  0
   -4.6552   -4.1662   -1.5501 H   0  0  0  0  0  0  0  0  0  0  0  0
   -6.1577   -3.7568   -2.4744 H   0  0  0  0  0  0  0  0  0  0  0  0
   -7.5847   -1.9119   -1.5737 H   0  0  0  0  0  0  0  0  0  0  0  0
   -7.9793    0.3965    1.6667 H   0  0  0  0  0  0  0  0  0  0  0  0
   -6.3887   -1.5251    2.6320 H   0  0  0  0  0  0  0  0  0  0  0  0
   -5.1389   -0.7712    1.5689 H   0  0  0  0  0  0  0  0  0  0  0  0
   -5.9478    0.1910    2.8581 H   0  0  0  0  0  0  0  0  0  0  0  0
   -7.2267    0.7590   -0.8643 H   0  0  0  0  0  0  0  0  0  0  0  0
   -3.7732    2.2981   -0.6936 H   0  0  0  0  0  0  0  0  0  0  0  0
   -4.0065    1.3984   -2.9199 H   0  0  0  0  0  0  0  0  0  0  0  0
   -5.6848    0.8385   -2.5989 H   0  0  0  0  0  0  0  0  0  0  0  0
   -4.2828    0.0951   -1.7199 H   0  0  0  0  0  0  0  0  0  0  0  0
   -6.2746    3.2400   -2.1532 H   0  0  0  0  0  0  0  0  0  0  0  0
    1.9589   -4.3567    1.0412 H   0  0  0  0  0  0  0  0  0  0  0  0
    1.7309   -4.2846   -1.8915 H   0  0  0  0  0  0  0  0  0  0  0  0
    2.4965   -6.3027   -0.7656 H   0  0  0  0  0  0  0  0  0  0  0  0
    3.7836   -5.7027   -1.8708 H   0  0  0  0  0  0  0  0  0  0  0  0
    3.9255   -5.4439   -0.0886 H   0  0  0  0  0  0  0  0  0  0  0  0
    4.2159   -1.1717   -0.8631 H   0  0  0  0  0  0  0  0  0  0  0  0
    3.9816   -3.3634    1.1910 H   0  0  0  0  0  0  0  0  0  0  0  0
    4.9459   -1.7920    2.7617 H   0  0  0  0  0  0  0  0  0  0  0  0
    3.5297   -1.0857    1.9094 H   0  0  0  0  0  0  0  0  0  0  0  0
    5.1878   -0.5640    1.4702 H   0  0  0  0  0  0  0  0  0  0  0  0
    8.0570   -2.9505    0.1844 H   0  0  0  0  0  0  0  0  0  0  0  0
    6.3068   -0.5430   -0.4027 H   0  0  0  0  0  0  0  0  0  0  0  0
    6.1871   -2.2067   -2.3263 H   0  0  0  0  0  0  0  0  0  0  0  0
    6.9584   -0.6462   -2.7681 H   0  0  0  0  0  0  0  0  0  0  0  0
    7.9814   -2.1136   -2.4676 H   0  0  0  0  0  0  0  0  0  0  0  0
    9.6983    0.8604   -1.5638 H   0  0  0  0  0  0  0  0  0  0  0  0
    6.9171    1.7440   -0.6835 H   0  0  0  0  0  0  0  0  0  0  0  0
    8.5949    2.5019   -3.1536 H   0  0  0  0  0  0  0  0  0  0  0  0
    6.9422    1.7743   -3.0918 H   0  0  0  0  0  0  0  0  0  0  0  0
    7.1975    3.4812   -2.5893 H   0  0  0  0  0  0  0  0  0  0  0  0
    8.3882    5.0723    0.3316 H   0  0  0  0  0  0  0  0  0  0  0  0
    6.3077    3.0078    1.0895 H   0  0  0  0  0  0  0  0  0  0  0  0
    6.2669    4.8370    4.1793 H   0  0  0  0  0  0  0  0  0  0  0  0
    5.7754    3.3191    3.3568 H   0  0  0  0  0  0  0  0  0  0  0  0
    5.7538    5.5104   -0.6459 H   0  0  0  0  0  0  0  0  0  0  0  0
    5.5003    3.8024   -1.1231 H   0  0  0  0  0  0  0  0  0  0  0  0
    4.2622    2.1660   -0.0347 H   0  0  0  0  0  0  0  0  0  0  0  0
    3.6706    2.4699    1.6394 H   0  0  0  0  0  0  0  0  0  0  0  0
  1  2  1  0
  2  3  2  0
  2  4  1  0
  4  5  1  0
  5  6  1  0
  6  7  1  0
  7  8  1  0
  8  9  1  0
  9 10  1  0
 10 11  2  0
 11 12  1  0
 12 13  2  0
 13 14  1  0
 13 15  1  0
 15 16  1  0
 16 17  1  0
 17 18  1  0
 18 19  1  0
 19 20  1  0
 20 21  2  0
 20 22  1  0
 22 23  1  0
 22 24  1  0
 24 25  1  0
 25 26  2  0
 25 27  1  0
 27 28  1  0
 27 29  1  0
 29 30  1  0
 30 31  2  0
 30 32  1  0
 32 33  1  0
 32 34  1  0
 34 35  1  0
 35 36  2  0
 35 37  1  0
 37 38  1  0
 37 39  1  0
 39 40  1  0
 40 41  2  0
 40 42  1  0
 42 43  1  0
 42 44  1  0
 44 45  1  0
 45 46  2  0
 18 47  1  0
 47 48  2  0
 47 49  1  0
 49 50  1  0
 50 51  1  0
 50 52  1  0
 52 53  2  0
 52 54  1  0
 54 55  1  0
 55 56  1  0
 55 57  1  0
 57 58  2  0
 57 59  1  0
 59 60  1  0
 60 61  1  0
 60 62  1  0
 62 63  2  0
 62 64  1  0
 64 65  1  0
 65 66  1  0
 65 67  1  0
 67 68  2  0
 67 69  1  0
 69 70  1  0
 70 71  1  0
 71 72  1  0
 71 73  2  0
 70 74  1  0
 74 75  1  0
 75 76  1  0
 45  5  1  0
 14  9  2  0
 76 11  1  0
  1 77  1  0
  1 78  1  0
  1 79  1  0
  4 80  1  0
  5 81  1  1
  6 82  1  0
  6 83  1  0
  8 84  1  0
  8 85  1  0
 10 86  1  0
 12 87  1  0
 14 88  1  0
 15 89  1  0
 15 90  1  0
 17 91  1  0
 17 92  1  0
 18 93  1  6
 19 94  1  0
 22 95  1  1
 23 96  1  0
 23 97  1  0
 23 98  1  0
 24 99  1  0
 27100  1  6
 28101  1  0
 28102  1  0
 28103  1  0
 29104  1  0
 32105  1  1
 33106  1  0
 33107  1  0
 33108  1  0
 34109  1  0
 37110  1  1
 38111  1  0
 38112  1  0
 38113  1  0
 39114  1  0
 42115  1  1
 43116  1  0
 43117  1  0
 43118  1  0
 44119  1  0
 49120  1  0
 50121  1  6
 51122  1  0
 51123  1  0
 51124  1  0
 54125  1  0
 55126  1  1
 56127  1  0
 56128  1  0
 56129  1  0
 59130  1  0
 60131  1  1
 61132  1  0
 61133  1  0
 61134  1  0
 64135  1  0
 65136  1  1
 66137  1  0
 66138  1  0
 66139  1  0
 69140  1  0
 70141  1  1
 72142  1  0
 72143  1  0
 74144  1  0
 74145  1  0
 76146  1  0
 76147  1  0
M  END
