
     RDKit          3D

157159  0  0  0  0  0  0  0  0999 V2000
    4.3994    7.9820    0.8947 C   0  0  0  0  0  0  0  0  0  0  0  0
    4.9652    6.6738    0.4563 C   0  0  0  0  0  0  0  0  0  0  0  0
    5.8426    6.1160    1.1677 O   0  0  0  0  0  0  0  0  0  0  0  0
    4.5014    6.0432   -0.7486 N   0  0  0  0  0  0  0  0  0  0  0  0
    4.9958    4.7238   -1.1633 C   0  0  1  0  0  0  0  0  0  0  0  0
    4.1710    4.1510   -2.3425 C   0  0  0  0  0  0  0  0  0  0  0  0
    2.9840    2.8778   -1.7912 S   0  0  0  0  0  0  0  0  0  0  0  0
    1.8340    4.0132   -0.9441 C   0  0  0  0  0  0  0  0  0  0  0  0
    0.6035    3.2474   -0.5675 C   0  0  0  0  0  0  0  0  0  0  0  0
   -0.5708    3.3870   -1.3198 C   0  0  0  0  0  0  0  0  0  0  0  0
   -1.7120    2.6368   -1.0014 C   0  0  0  0  0  0  0  0  0  0  0  0
   -1.6609    1.7066    0.0517 C   0  0  0  0  0  0  0  0  0  0  0  0
   -0.4772    1.5354    0.7890 C   0  0  0  0  0  0  0  0  0  0  0  0
    0.6383    2.3356    0.4969 C   0  0  0  0  0  0  0  0  0  0  0  0
   -0.3870    0.4919    1.8694 C   0  0  0  0  0  0  0  0  0  0  0  0
    0.9362   -0.6907    1.4457 S   0  0  0  0  0  0  0  0  0  0  0  0
    0.4921   -1.9955    2.6540 C   0  0  0  0  0  0  0  0  0  0  0  0
   -0.3625   -3.1355    2.0424 C   0  0  2  0  0  0  0  0  0  0  0  0
   -0.0324   -3.3450    0.6246 N   0  0  0  0  0  0  0  0  0  0  0  0
    1.0776   -4.1028    0.1212 C   0  0  0  0  0  0  0  0  0  0  0  0
    1.1758   -4.2561   -1.1278 O   0  0  0  0  0  0  0  0  0  0  0  0
    2.1463   -4.7044    0.9994 C   0  0  1  0  0  0  0  0  0  0  0  0
    2.0567   -6.2367    0.9049 C   0  0  0  0  0  0  0  0  0  0  0  0
    3.4555   -4.1749    0.5695 N   0  0  0  0  0  0  0  0  0  0  0  0
    4.6813   -4.9299    0.5059 C   0  0  0  0  0  0  0  0  0  0  0  0
    4.9419   -5.8045    1.3763 O   0  0  0  0  0  0  0  0  0  0  0  0
    5.6845   -4.6498   -0.5817 C   0  0  1  0  0  0  0  0  0  0  0  0
    5.0006   -4.5466   -1.9473 C   0  0  0  0  0  0  0  0  0  0  0  0
    6.4444   -3.4346   -0.2847 N   0  0  0  0  0  0  0  0  0  0  0  0
    7.7260   -3.2039   -0.8760 C   0  0  0  0  0  0  0  0  0  0  0  0
    7.8236   -3.0429   -2.1267 O   0  0  0  0  0  0  0  0  0  0  0  0
    8.9603   -3.2321   -0.0172 C   0  0  1  0  0  0  0  0  0  0  0  0
    9.3325   -4.6849    0.2879 C   0  0  0  0  0  0  0  0  0  0  0  0
   10.0769   -2.5550   -0.6937 N   0  0  0  0  0  0  0  0  0  0  0  0
   10.1853   -1.1296   -0.8392 C   0  0  0  0  0  0  0  0  0  0  0  0
   11.0105   -0.6692   -1.6783 O   0  0  0  0  0  0  0  0  0  0  0  0
    9.4222   -0.1736    0.0426 C   0  0  1  0  0  0  0  0  0  0  0  0
   10.2015    0.0932    1.3307 C   0  0  0  0  0  0  0  0  0  0  0  0
    9.1671    1.0857   -0.6581 N   0  0  0  0  0  0  0  0  0  0  0  0
    7.8701    1.3645   -1.1900 C   0  0  0  0  0  0  0  0  0  0  0  0
    7.4284    0.6651   -2.1448 O   0  0  0  0  0  0  0  0  0  0  0  0
    7.0282    2.4792   -0.6313 C   0  0  1  0  0  0  0  0  0  0  0  0
    7.1872    2.5863    0.8870 C   0  0  0  0  0  0  0  0  0  0  0  0
    7.3900    3.7513   -1.2657 N   0  0  0  0  0  0  0  0  0  0  0  0
    6.4571    4.8128   -1.5455 C   0  0  0  0  0  0  0  0  0  0  0  0
    6.8642    5.8359   -2.1551 O   0  0  0  0  0  0  0  0  0  0  0  0
   -1.8442   -2.8731    2.2194 C   0  0  0  0  0  0  0  0  0  0  0  0
   -2.2991   -2.5965    3.3635 O   0  0  0  0  0  0  0  0  0  0  0  0
   -2.7577   -2.9891    1.1215 N   0  0  0  0  0  0  0  0  0  0  0  0
   -3.4660   -4.2357    0.7942 C   0  0  2  0  0  0  0  0  0  0  0  0
   -2.7081   -5.4847    1.2645 C   0  0  0  0  0  0  0  0  0  0  0  0
   -3.6630   -4.3269   -0.7024 C   0  0  0  0  0  0  0  0  0  0  0  0
   -2.7029   -4.0103   -1.4549 O   0  0  0  0  0  0  0  0  0  0  0  0
   -4.8428   -4.8947   -1.3005 N   0  0  0  0  0  0  0  0  0  0  0  0
   -6.2204   -4.6670   -0.8439 C   0  0  2  0  0  0  0  0  0  0  0  0
   -7.0448   -5.9416   -1.0762 C   0  0  0  0  0  0  0  0  0  0  0  0
   -6.8361   -3.4940   -1.5771 C   0  0  0  0  0  0  0  0  0  0  0  0
   -6.2884   -3.0630   -2.6314 O   0  0  0  0  0  0  0  0  0  0  0  0
   -8.0703   -2.8896   -1.1465 N   0  0  0  0  0  0  0  0  0  0  0  0
   -8.5969   -2.9671    0.2219 C   0  0  2  0  0  0  0  0  0  0  0  0
  -10.0304   -2.4262    0.3026 C   0  0  0  0  0  0  0  0  0  0  0  0
   -7.6885   -2.2707    1.2153 C   0  0  0  0  0  0  0  0  0  0  0  0
   -7.1915   -2.9627    2.1431 O   0  0  0  0  0  0  0  0  0  0  0  0
   -7.3809   -0.8628    1.1821 N   0  0  0  0  0  0  0  0  0  0  0  0
   -7.6212    0.0556    0.0668 C   0  0  2  0  0  0  0  0  0  0  0  0
   -6.2808    0.4240   -0.5863 C   0  0  0  0  0  0  0  0  0  0  0  0
   -8.3900    1.2552    0.5686 C   0  0  0  0  0  0  0  0  0  0  0  0
   -9.6075    1.1219    0.8722 O   0  0  0  0  0  0  0  0  0  0  0  0
   -7.7587    2.5254    0.7507 N   0  0  0  0  0  0  0  0  0  0  0  0
   -8.4440    3.7889    0.4172 C   0  0  2  0  0  0  0  0  0  0  0  0
   -9.0421    3.7380   -0.9973 C   0  0  0  0  0  0  0  0  0  0  0  0
   -7.4708    4.9369    0.4925 C   0  0  0  0  0  0  0  0  0  0  0  0
   -7.8080    6.0118    1.0657 O   0  0  0  0  0  0  0  0  0  0  0  0
   -6.1768    4.8125   -0.1142 N   0  0  0  0  0  0  0  0  0  0  0  0
   -4.9965    5.4728    0.4590 C   0  0  2  0  0  0  0  0  0  0  0  0
   -4.9450    6.9277    0.0617 C   0  0  0  0  0  0  0  0  0  0  0  0
   -4.9373    7.9457    1.0659 N   0  0  0  0  0  0  0  0  0  0  0  0
   -4.9199    7.2553   -1.1570 O   0  0  0  0  0  0  0  0  0  0  0  0
   -3.7185    4.7204    0.0609 C   0  0  0  0  0  0  0  0  0  0  0  0
   -3.5290    4.5753   -1.7630 S   0  0  0  0  0  0  0  0  0  0  0  0
   -2.9792    2.8272   -1.7928 C   0  0  0  0  0  0  0  0  0  0  0  0
    5.2175    8.7301    0.9609 H   0  0  0  0  0  0  0  0  0  0  0  0
    3.9273    7.8743    1.8940 H   0  0  0  0  0  0  0  0  0  0  0  0
    3.6371    8.3505    0.1743 H   0  0  0  0  0  0  0  0  0  0  0  0
    3.7501    6.5164   -1.3003 H   0  0  0  0  0  0  0  0  0  0  0  0
    4.8864    4.0522   -0.2870 H   0  0  0  0  0  0  0  0  0  0  0  0
    3.6469    4.9429   -2.9124 H   0  0  0  0  0  0  0  0  0  0  0  0
    4.8415    3.6426   -3.0711 H   0  0  0  0  0  0  0  0  0  0  0  0
    1.5763    4.8511   -1.6268 H   0  0  0  0  0  0  0  0  0  0  0  0
    2.3048    4.4388   -0.0342 H   0  0  0  0  0  0  0  0  0  0  0  0
   -0.6029    4.0726   -2.1559 H   0  0  0  0  0  0  0  0  0  0  0  0
   -2.5390    1.1164    0.2929 H   0  0  0  0  0  0  0  0  0  0  0  0
    1.5496    2.2219    1.0736 H   0  0  0  0  0  0  0  0  0  0  0  0
   -1.3515   -0.0425    1.9816 H   0  0  0  0  0  0  0  0  0  0  0  0
   -0.1447    0.9855    2.8325 H   0  0  0  0  0  0  0  0  0  0  0  0
    1.4464   -2.4278    3.0133 H   0  0  0  0  0  0  0  0  0  0  0  0
    0.0155   -1.5503    3.5564 H   0  0  0  0  0  0  0  0  0  0  0  0
   -0.1633   -4.0712    2.6060 H   0  0  0  0  0  0  0  0  0  0  0  0
   -0.5722   -2.8043   -0.0922 H   0  0  0  0  0  0  0  0  0  0  0  0
    1.9960   -4.4318    2.0623 H   0  0  0  0  0  0  0  0  0  0  0  0
    2.3686   -6.5852   -0.1041 H   0  0  0  0  0  0  0  0  0  0  0  0
    1.0127   -6.5728    1.0901 H   0  0  0  0  0  0  0  0  0  0  0  0
    2.6917   -6.7149    1.6775 H   0  0  0  0  0  0  0  0  0  0  0  0
    3.4924   -3.1814    0.2490 H   0  0  0  0  0  0  0  0  0  0  0  0
    6.3902   -5.5095   -0.6214 H   0  0  0  0  0  0  0  0  0  0  0  0
    5.7631   -4.4692   -2.7518 H   0  0  0  0  0  0  0  0  0  0  0  0
    4.3399   -3.6546   -1.9957 H   0  0  0  0  0  0  0  0  0  0  0  0
    4.3980   -5.4606   -2.1373 H   0  0  0  0  0  0  0  0  0  0  0  0
    6.1399   -2.7963    0.4926 H   0  0  0  0  0  0  0  0  0  0  0  0
    8.7558   -2.7373    0.9592 H   0  0  0  0  0  0  0  0  0  0  0  0
    8.5134   -5.1836    0.8523 H   0  0  0  0  0  0  0  0  0  0  0  0
   10.2511   -4.7133    0.9089 H   0  0  0  0  0  0  0  0  0  0  0  0
    9.5120   -5.2474   -0.6516 H   0  0  0  0  0  0  0  0  0  0  0  0
   10.7652   -3.1437   -1.2183 H   0  0  0  0  0  0  0  0  0  0  0  0
    8.4467   -0.6185    0.3211 H   0  0  0  0  0  0  0  0  0  0  0  0
   10.3276   -0.8525    1.9030 H   0  0  0  0  0  0  0  0  0  0  0  0
    9.6508    0.8147    1.9664 H   0  0  0  0  0  0  0  0  0  0  0  0
   11.2086    0.5081    1.1024 H   0  0  0  0  0  0  0  0  0  0  0  0
    9.8988    1.8356   -0.6827 H   0  0  0  0  0  0  0  0  0  0  0  0
    5.9723    2.2233   -0.8576 H   0  0  0  0  0  0  0  0  0  0  0  0
    6.4969    3.3536    1.2926 H   0  0  0  0  0  0  0  0  0  0  0  0
    8.2244    2.8800    1.1561 H   0  0  0  0  0  0  0  0  0  0  0  0
    6.9480    1.6150    1.3678 H   0  0  0  0  0  0  0  0  0  0  0  0
    8.3995    3.9397   -1.4695 H   0  0  0  0  0  0  0  0  0  0  0  0
   -3.1888   -2.0977    0.7849 H   0  0  0  0  0  0  0  0  0  0  0  0
   -4.4344   -4.2217    1.3290 H   0  0  0  0  0  0  0  0  0  0  0  0
   -2.5796   -5.4698    2.3665 H   0  0  0  0  0  0  0  0  0  0  0  0
   -1.7127   -5.5531    0.7732 H   0  0  0  0  0  0  0  0  0  0  0  0
   -3.2846   -6.3992    1.0109 H   0  0  0  0  0  0  0  0  0  0  0  0
   -4.7269   -5.2613   -2.2738 H   0  0  0  0  0  0  0  0  0  0  0  0
   -6.2323   -4.4524    0.2381 H   0  0  0  0  0  0  0  0  0  0  0  0
   -6.7361   -6.7154   -0.3416 H   0  0  0  0  0  0  0  0  0  0  0  0
   -8.1312   -5.7544   -0.9456 H   0  0  0  0  0  0  0  0  0  0  0  0
   -6.8714   -6.3389   -2.0954 H   0  0  0  0  0  0  0  0  0  0  0  0
   -8.6088   -2.3571   -1.8703 H   0  0  0  0  0  0  0  0  0  0  0  0
   -8.6640   -4.0356    0.5110 H   0  0  0  0  0  0  0  0  0  0  0  0
  -10.3759   -2.4076    1.3549 H   0  0  0  0  0  0  0  0  0  0  0  0
  -10.7067   -3.0822   -0.2833 H   0  0  0  0  0  0  0  0  0  0  0  0
  -10.1158   -1.4003   -0.1090 H   0  0  0  0  0  0  0  0  0  0  0  0
   -6.8308   -0.4860    1.9893 H   0  0  0  0  0  0  0  0  0  0  0  0
   -8.2286   -0.4046   -0.7256 H   0  0  0  0  0  0  0  0  0  0  0  0
   -5.8735   -0.4605   -1.1207 H   0  0  0  0  0  0  0  0  0  0  0  0
   -5.5289    0.7367    0.1708 H   0  0  0  0  0  0  0  0  0  0  0  0
   -6.4130    1.2434   -1.3227 H   0  0  0  0  0  0  0  0  0  0  0  0
   -6.7430    2.5340    0.9591 H   0  0  0  0  0  0  0  0  0  0  0  0
   -9.2722    3.9571    1.1441 H   0  0  0  0  0  0  0  0  0  0  0  0
   -8.2592    3.4957   -1.7483 H   0  0  0  0  0  0  0  0  0  0  0  0
   -9.8374    2.9650   -1.0512 H   0  0  0  0  0  0  0  0  0  0  0  0
   -9.5050    4.7128   -1.2617 H   0  0  0  0  0  0  0  0  0  0  0  0
   -6.0403    3.9936   -0.7429 H   0  0  0  0  0  0  0  0  0  0  0  0
   -5.0662    5.4110    1.5667 H   0  0  0  0  0  0  0  0  0  0  0  0
   -5.1707    7.7158    2.0564 H   0  0  0  0  0  0  0  0  0  0  0  0
   -4.7707    8.9439    0.8054 H   0  0  0  0  0  0  0  0  0  0  0  0
   -2.8261    5.2354    0.4817 H   0  0  0  0  0  0  0  0  0  0  0  0
   -3.7681    3.7123    0.5270 H   0  0  0  0  0  0  0  0  0  0  0  0
   -2.7889    2.5294   -2.8479 H   0  0  0  0  0  0  0  0  0  0  0  0
   -3.7976    2.1789   -1.4093 H   0  0  0  0  0  0  0  0  0  0  0  0
  1  2  1  0
  2  3  2  0
  2  4  1  0
  4  5  1  0
  5  6  1  0
  6  7  1  0
  7  8  1  0
  8  9  1  0
  9 10  2  0
 10 11  1  0
 11 12  2  0
 12 13  1  0
 13 14  2  0
 13 15  1  0
 15 16  1  0
 16 17  1  0
 17 18  1  0
 18 19  1  0
 19 20  1  0
 20 21  2  0
 20 22  1  0
 22 23  1  0
 22 24  1  0
 24 25  1  0
 25 26  2  0
 25 27  1  0
 27 28  1  0
 27 29  1  0
 29 30  1  0
 30 31  2  0
 30 32  1  0
 32 33  1  0
 32 34  1  0
 34 35  1  0
 35 36  2  0
 35 37  1  0
 37 38  1  0
 37 39  1  0
 39 40  1  0
 40 41  2  0
 40 42  1  0
 42 43  1  0
 42 44  1  0
 44 45  1  0
 45 46  2  0
 18 47  1  0
 47 48  2  0
 47 49  1  0
 49 50  1  0
 50 51  1  0
 50 52  1  0
 52 53  2  0
 52 54  1  0
 54 55  1  0
 55 56  1  0
 55 57  1  0
 57 58  2  0
 57 59  1  0
 59 60  1  0
 60 61  1  0
 60 62  1  0
 62 63  2  0
 62 64  1  0
 64 65  1  0
 65 66  1  0
 65 67  1  0
 67 68  2  0
 67 69  1  0
 69 70  1  0
 70 71  1  0
 70 72  1  0
 72 73  2  0
 72 74  1  0
 74 75  1  0
 75 76  1  0
 76 77  1  0
 76 78  2  0
 75 79  1  0
 79 80  1  0
 80 81  1  0
 45  5  1  0
 14  9  1  0
 81 11  1  0
  1 82  1  0
  1 83  1  0
  1 84  1  0
  4 85  1  0
  5 86  1  1
  6 87  1  0
  6 88  1  0
  8 89  1  0
  8 90  1  0
 10 91  1  0
 12 92  1  0
 14 93  1  0
 15 94  1  0
 15 95  1  0
 17 96  1  0
 17 97  1  0
 18 98  1  1
 19 99  1  0
 22100  1  1
 23101  1  0
 23102  1  0
 23103  1  0
 24104  1  0
 27105  1  6
 28106  1  0
 28107  1  0
 28108  1  0
 29109  1  0
 32110  1  1
 33111  1  0
 33112  1  0
 33113  1  0
 34114  1  0
 37115  1  1
 38116  1  0
 38117  1  0
 38118  1  0
 39119  1  0
 42120  1  1
 43121  1  0
 43122  1  0
 43123  1  0
 44124  1  0
 49125  1  0
 50126  1  1
 51127  1  0
 51128  1  0
 51129  1  0
 54130  1  0
 55131  1  1
 56132  1  0
 56133  1  0
 56134  1  0
 59135  1  0
 60136  1  1
 61137  1  0
 61138  1  0
 61139  1  0
 64140  1  0
 65141  1  6
 66142  1  0
 66143  1  0
 66144  1  0
 69145  1  0
 70146  1  1
 71147  1  0
 71148  1  0
 71149  1  0
 74150  1  0
 75151  1  1
 77152  1  0
 77153  1  0
 79154  1  0
 79155  1  0
 81156  1  0
 81157  1  0
M  END
