
     RDKit          3D

167169  0  0  0  0  0  0  0  0999 V2000
  -13.0816    1.4028   -0.8334 C   0  0  0  0  0  0  0  0  0  0  0  0
  -12.5315    0.4407    0.1806 C   0  0  0  0  0  0  0  0  0  0  0  0
  -13.3172   -0.3880    0.7129 O   0  0  0  0  0  0  0  0  0  0  0  0
  -11.1715    0.5147    0.6407 N   0  0  0  0  0  0  0  0  0  0  0  0
  -10.0434    0.9566   -0.1879 C   0  0  1  0  0  0  0  0  0  0  0  0
   -9.1038    1.8481    0.6505 C   0  0  0  0  0  0  0  0  0  0  0  0
   -8.2086    3.0345   -0.4136 S   0  0  0  0  0  0  0  0  0  0  0  0
   -7.0205    3.6074    0.8518 C   0  0  0  0  0  0  0  0  0  0  0  0
   -5.6319    3.3995    0.3235 C   0  0  0  0  0  0  0  0  0  0  0  0
   -4.9613    4.4303   -0.3508 C   0  0  0  0  0  0  0  0  0  0  0  0
   -3.6552    4.2310   -0.8299 C   0  0  0  0  0  0  0  0  0  0  0  0
   -3.0501    2.9715   -0.6848 C   0  0  0  0  0  0  0  0  0  0  0  0
   -3.7271    1.9184   -0.0463 C   0  0  0  0  0  0  0  0  0  0  0  0
   -5.0231    2.1449    0.4541 C   0  0  0  0  0  0  0  0  0  0  0  0
   -3.0810    0.5416   -0.0560 C   0  0  0  0  0  0  0  0  0  0  0  0
   -3.6115   -0.5597    1.3147 S   0  0  0  0  0  0  0  0  0  0  0  0
   -4.9627   -1.4369    0.4221 C   0  0  0  0  0  0  0  0  0  0  0  0
   -5.2884   -2.7649    1.1418 C   0  0  1  0  0  0  0  0  0  0  0  0
   -6.6789   -3.2145    0.9583 N   0  0  0  0  0  0  0  0  0  0  0  0
   -7.5996   -2.7113   -0.0291 C   0  0  0  0  0  0  0  0  0  0  0  0
   -7.2068   -2.5157   -1.2142 O   0  0  0  0  0  0  0  0  0  0  0  0
   -9.0738   -2.5827    0.2993 C   0  0  1  0  0  0  0  0  0  0  0  0
   -9.3022   -2.2336    1.7705 C   0  0  0  0  0  0  0  0  0  0  0  0
   -9.7498   -1.5851   -0.5490 N   0  0  0  0  0  0  0  0  0  0  0  0
   -9.2796   -0.2376   -0.7261 C   0  0  0  0  0  0  0  0  0  0  0  0
   -8.2285   -0.0309   -1.3979 O   0  0  0  0  0  0  0  0  0  0  0  0
   -4.3307   -3.8533    0.7279 C   0  0  0  0  0  0  0  0  0  0  0  0
   -3.2849   -4.0503    1.3999 O   0  0  0  0  0  0  0  0  0  0  0  0
   -4.6665   -4.7359   -0.3589 N   0  0  0  0  0  0  0  0  0  0  0  0
   -3.9307   -5.9842   -0.6143 C   0  0  2  0  0  0  0  0  0  0  0  0
   -4.5335   -6.6917   -1.8352 C   0  0  0  0  0  0  0  0  0  0  0  0
   -4.0059   -6.8904    0.6016 C   0  0  0  0  0  0  0  0  0  0  0  0
   -5.1434   -7.1355    1.0959 O   0  0  0  0  0  0  0  0  0  0  0  0
   -2.8437   -7.4119    1.2650 N   0  0  0  0  0  0  0  0  0  0  0  0
   -1.5747   -7.7410    0.5939 C   0  0  2  0  0  0  0  0  0  0  0  0
   -1.7452   -9.0447   -0.1925 C   0  0  0  0  0  0  0  0  0  0  0  0
   -0.4616   -7.9254    1.6013 C   0  0  0  0  0  0  0  0  0  0  0  0
   -0.6915   -8.6054    2.6382 O   0  0  0  0  0  0  0  0  0  0  0  0
    0.9035   -7.5292    1.3464 N   0  0  0  0  0  0  0  0  0  0  0  0
    1.3438   -6.5514    0.3404 C   0  0  2  0  0  0  0  0  0  0  0  0
    1.3750   -7.1700   -1.0664 C   0  0  0  0  0  0  0  0  0  0  0  0
    2.7367   -6.0652    0.6788 C   0  0  0  0  0  0  0  0  0  0  0  0
    2.9227   -4.8629    1.0120 O   0  0  0  0  0  0  0  0  0  0  0  0
    3.8505   -6.9707    0.6191 N   0  0  0  0  0  0  0  0  0  0  0  0
    5.1101   -6.5848   -0.0251 C   0  0  2  0  0  0  0  0  0  0  0  0
    5.8469   -7.8304   -0.5332 C   0  0  0  0  0  0  0  0  0  0  0  0
    5.9934   -5.8318    0.9448 C   0  0  0  0  0  0  0  0  0  0  0  0
    6.3117   -6.3970    2.0319 O   0  0  0  0  0  0  0  0  0  0  0  0
    6.5409   -4.5295    0.6653 N   0  0  0  0  0  0  0  0  0  0  0  0
    6.4089   -3.8015   -0.6066 C   0  0  2  0  0  0  0  0  0  0  0  0
    7.1995   -4.4889   -1.7293 C   0  0  0  0  0  0  0  0  0  0  0  0
    6.8962   -2.3809   -0.4444 C   0  0  0  0  0  0  0  0  0  0  0  0
    6.0610   -1.4316   -0.4538 O   0  0  0  0  0  0  0  0  0  0  0  0
    8.2952   -2.1095   -0.2708 N   0  0  0  0  0  0  0  0  0  0  0  0
    8.9208   -0.8749   -0.7568 C   0  0  2  0  0  0  0  0  0  0  0  0
    9.9884   -1.2131   -1.7993 C   0  0  0  0  0  0  0  0  0  0  0  0
    9.5396   -0.1260    0.4031 C   0  0  0  0  0  0  0  0  0  0  0  0
   10.4751   -0.6675    1.0543 O   0  0  0  0  0  0  0  0  0  0  0  0
    9.1650    1.2224    0.7365 N   0  0  0  0  0  0  0  0  0  0  0  0
    7.8373    1.7964    0.4891 C   0  0  2  0  0  0  0  0  0  0  0  0
    7.9184    2.7564   -0.6982 C   0  0  0  0  0  0  0  0  0  0  0  0
    7.3009    2.3893    1.7766 C   0  0  0  0  0  0  0  0  0  0  0  0
    7.2909    1.6583    2.7998 O   0  0  0  0  0  0  0  0  0  0  0  0
    6.6855    3.6830    1.8622 N   0  0  0  0  0  0  0  0  0  0  0  0
    7.4046    4.9510    1.6834 C   0  0  2  0  0  0  0  0  0  0  0  0
    8.6909    4.9583    2.5221 C   0  0  0  0  0  0  0  0  0  0  0  0
    6.5018    6.1197    2.0295 C   0  0  0  0  0  0  0  0  0  0  0  0
    6.6777    6.7432    3.1085 O   0  0  0  0  0  0  0  0  0  0  0  0
    5.3957    6.5057    1.1852 N   0  0  0  0  0  0  0  0  0  0  0  0
    5.0678    5.8680   -0.0975 C   0  0  2  0  0  0  0  0  0  0  0  0
    5.8195    6.5520   -1.2369 C   0  0  0  0  0  0  0  0  0  0  0  0
    3.5829    5.9103   -0.3439 C   0  0  0  0  0  0  0  0  0  0  0  0
    2.9175    4.8331   -0.3465 O   0  0  0  0  0  0  0  0  0  0  0  0
    2.9231    7.1514   -0.5752 N   0  0  0  0  0  0  0  0  0  0  0  0
    2.3170    7.4659   -1.8702 C   0  0  2  0  0  0  0  0  0  0  0  0
    2.3959    8.9719   -2.1337 C   0  0  0  0  0  0  0  0  0  0  0  0
    0.8947    6.9722   -1.9717 C   0  0  0  0  0  0  0  0  0  0  0  0
    0.2675    7.1103   -3.0565 O   0  0  0  0  0  0  0  0  0  0  0  0
    0.2638    6.2593   -0.8962 N   0  0  0  0  0  0  0  0  0  0  0  0
   -0.2484    6.8583    0.3417 C   0  0  1  0  0  0  0  0  0  0  0  0
   -0.1732    8.3700    0.3532 C   0  0  0  0  0  0  0  0  0  0  0  0
    0.5074    9.0520    1.4056 N   0  0  0  0  0  0  0  0  0  0  0  0
   -0.7362    9.0443   -0.5528 O   0  0  0  0  0  0  0  0  0  0  0  0
   -1.6867    6.3677    0.6183 C   0  0  0  0  0  0  0  0  0  0  0  0
   -2.8916    6.8891   -0.6621 S   0  0  0  0  0  0  0  0  0  0  0  0
   -2.9601    5.3213   -1.5999 C   0  0  0  0  0  0  0  0  0  0  0  0
  -12.4786    2.3250   -0.8938 H   0  0  0  0  0  0  0  0  0  0  0  0
  -13.1162    0.9180   -1.8400 H   0  0  0  0  0  0  0  0  0  0  0  0
  -14.1174    1.7011   -0.5534 H   0  0  0  0  0  0  0  0  0  0  0  0
  -10.9555    0.0842    1.5712 H   0  0  0  0  0  0  0  0  0  0  0  0
  -10.4193    1.5343   -1.0592 H   0  0  0  0  0  0  0  0  0  0  0  0
   -9.7092    2.4400    1.3699 H   0  0  0  0  0  0  0  0  0  0  0  0
   -8.3896    1.2169    1.2218 H   0  0  0  0  0  0  0  0  0  0  0  0
   -7.1321    3.0777    1.8133 H   0  0  0  0  0  0  0  0  0  0  0  0
   -7.2120    4.6859    1.0431 H   0  0  0  0  0  0  0  0  0  0  0  0
   -5.4642    5.3813   -0.5304 H   0  0  0  0  0  0  0  0  0  0  0  0
   -2.0627    2.7964   -1.1013 H   0  0  0  0  0  0  0  0  0  0  0  0
   -5.5687    1.3609    0.9521 H   0  0  0  0  0  0  0  0  0  0  0  0
   -3.2442    0.0641   -1.0519 H   0  0  0  0  0  0  0  0  0  0  0  0
   -1.9831    0.6601    0.0615 H   0  0  0  0  0  0  0  0  0  0  0  0
   -4.6751   -1.6316   -0.6386 H   0  0  0  0  0  0  0  0  0  0  0  0
   -5.8566   -0.7793    0.4274 H   0  0  0  0  0  0  0  0  0  0  0  0
   -5.1637   -2.5865    2.2289 H   0  0  0  0  0  0  0  0  0  0  0  0
   -7.0319   -3.9460    1.6154 H   0  0  0  0  0  0  0  0  0  0  0  0
   -9.5439   -3.5694    0.1136 H   0  0  0  0  0  0  0  0  0  0  0  0
   -8.9146   -3.0283    2.4403 H   0  0  0  0  0  0  0  0  0  0  0  0
  -10.3939   -2.1467    1.9744 H   0  0  0  0  0  0  0  0  0  0  0  0
   -8.8081   -1.2706    2.0205 H   0  0  0  0  0  0  0  0  0  0  0  0
  -10.7504   -1.7670   -0.7992 H   0  0  0  0  0  0  0  0  0  0  0  0
   -5.5278   -4.5368   -0.9133 H   0  0  0  0  0  0  0  0  0  0  0  0
   -2.8879   -5.7175   -0.8619 H   0  0  0  0  0  0  0  0  0  0  0  0
   -5.5896   -6.9869   -1.6436 H   0  0  0  0  0  0  0  0  0  0  0  0
   -4.5107   -6.0101   -2.7138 H   0  0  0  0  0  0  0  0  0  0  0  0
   -3.9510   -7.5958   -2.0960 H   0  0  0  0  0  0  0  0  0  0  0  0
   -3.0123   -7.8232    2.2083 H   0  0  0  0  0  0  0  0  0  0  0  0
   -1.3009   -6.9299   -0.1009 H   0  0  0  0  0  0  0  0  0  0  0  0
   -0.7857   -9.3481   -0.6720 H   0  0  0  0  0  0  0  0  0  0  0  0
   -2.0657   -9.8672    0.4825 H   0  0  0  0  0  0  0  0  0  0  0  0
   -2.5009   -8.9302   -0.9918 H   0  0  0  0  0  0  0  0  0  0  0  0
    1.6096   -7.8906    2.0324 H   0  0  0  0  0  0  0  0  0  0  0  0
    0.6630   -5.6719    0.3466 H   0  0  0  0  0  0  0  0  0  0  0  0
    1.9117   -6.5016   -1.7729 H   0  0  0  0  0  0  0  0  0  0  0  0
    0.3558   -7.3107   -1.4804 H   0  0  0  0  0  0  0  0  0  0  0  0
    1.8887   -8.1570   -1.0496 H   0  0  0  0  0  0  0  0  0  0  0  0
    3.6504   -7.9919    0.7703 H   0  0  0  0  0  0  0  0  0  0  0  0
    4.8556   -5.9543   -0.9044 H   0  0  0  0  0  0  0  0  0  0  0  0
    6.8195   -7.5519   -0.9969 H   0  0  0  0  0  0  0  0  0  0  0  0
    6.0484   -8.5370    0.3009 H   0  0  0  0  0  0  0  0  0  0  0  0
    5.2307   -8.3441   -1.2953 H   0  0  0  0  0  0  0  0  0  0  0  0
    7.0773   -4.0759    1.4393 H   0  0  0  0  0  0  0  0  0  0  0  0
    5.3306   -3.7565   -0.8786 H   0  0  0  0  0  0  0  0  0  0  0  0
    6.6968   -5.4111   -2.0691 H   0  0  0  0  0  0  0  0  0  0  0  0
    7.2770   -3.8249   -2.6151 H   0  0  0  0  0  0  0  0  0  0  0  0
    8.2181   -4.7464   -1.3784 H   0  0  0  0  0  0  0  0  0  0  0  0
    8.9136   -2.8813    0.0652 H   0  0  0  0  0  0  0  0  0  0  0  0
    8.1701   -0.2471   -1.2701 H   0  0  0  0  0  0  0  0  0  0  0  0
   10.4198   -0.2768   -2.2262 H   0  0  0  0  0  0  0  0  0  0  0  0
   10.8067   -1.8129   -1.3477 H   0  0  0  0  0  0  0  0  0  0  0  0
    9.5359   -1.8004   -2.6290 H   0  0  0  0  0  0  0  0  0  0  0  0
    9.8516    1.7932    1.2820 H   0  0  0  0  0  0  0  0  0  0  0  0
    7.1253    0.9911    0.2269 H   0  0  0  0  0  0  0  0  0  0  0  0
    8.7326    3.4918   -0.5473 H   0  0  0  0  0  0  0  0  0  0  0  0
    8.1508    2.1907   -1.6270 H   0  0  0  0  0  0  0  0  0  0  0  0
    6.9461    3.2667   -0.8588 H   0  0  0  0  0  0  0  0  0  0  0  0
    5.7621    3.7092    2.3528 H   0  0  0  0  0  0  0  0  0  0  0  0
    7.7051    5.0826    0.6260 H   0  0  0  0  0  0  0  0  0  0  0  0
    8.4584    4.7486    3.5922 H   0  0  0  0  0  0  0  0  0  0  0  0
    9.3968    4.1790    2.1622 H   0  0  0  0  0  0  0  0  0  0  0  0
    9.2072    5.9398    2.4499 H   0  0  0  0  0  0  0  0  0  0  0  0
    4.8799    7.3740    1.4500 H   0  0  0  0  0  0  0  0  0  0  0  0
    5.3686    4.8024   -0.0700 H   0  0  0  0  0  0  0  0  0  0  0  0
    5.5613    7.6324   -1.2891 H   0  0  0  0  0  0  0  0  0  0  0  0
    5.5682    6.0748   -2.2102 H   0  0  0  0  0  0  0  0  0  0  0  0
    6.9198    6.4755   -1.0849 H   0  0  0  0  0  0  0  0  0  0  0  0
    2.8561    7.8414    0.2130 H   0  0  0  0  0  0  0  0  0  0  0  0
    2.9062    6.9638   -2.6668 H   0  0  0  0  0  0  0  0  0  0  0  0
    3.4585    9.2950   -2.1609 H   0  0  0  0  0  0  0  0  0  0  0  0
    1.9326    9.2239   -3.1135 H   0  0  0  0  0  0  0  0  0  0  0  0
    1.8825    9.5439   -1.3349 H   0  0  0  0  0  0  0  0  0  0  0  0
    0.2039    5.2206   -1.0000 H   0  0  0  0  0  0  0  0  0  0  0  0
    0.3871    6.4742    1.1738 H   0  0  0  0  0  0  0  0  0  0  0  0
    0.9947    8.5166    2.1535 H   0  0  0  0  0  0  0  0  0  0  0  0
    0.5302   10.0961    1.4317 H   0  0  0  0  0  0  0  0  0  0  0  0
   -2.0264    6.7756    1.5948 H   0  0  0  0  0  0  0  0  0  0  0  0
   -1.6755    5.2574    0.7375 H   0  0  0  0  0  0  0  0  0  0  0  0
   -3.5447    5.5110   -2.5284 H   0  0  0  0  0  0  0  0  0  0  0  0
   -1.9425    5.0227   -1.9130 H   0  0  0  0  0  0  0  0  0  0  0  0
  1  2  1  0
  2  3  2  0
  2  4  1  0
  4  5  1  0
  5  6  1  0
  6  7  1  0
  7  8  1  0
  8  9  1  0
  9 10  1  0
 10 11  2  0
 11 12  1  0
 12 13  2  0
 13 14  1  0
 13 15  1  0
 15 16  1  0
 16 17  1  0
 17 18  1  0
 18 19  1  0
 19 20  1  0
 20 21  2  0
 20 22  1  0
 22 23  1  0
 22 24  1  0
 24 25  1  0
 25 26  2  0
 18 27  1  0
 27 28  2  0
 27 29  1  0
 29 30  1  0
 30 31  1  0
 30 32  1  0
 32 33  2  0
 32 34  1  0
 34 35  1  0
 35 36  1  0
 35 37  1  0
 37 38  2  0
 37 39  1  0
 39 40  1  0
 40 41  1  0
 40 42  1  0
 42 43  2  0
 42 44  1  0
 44 45  1  0
 45 46  1  0
 45 47  1  0
 47 48  2  0
 47 49  1  0
 49 50  1  0
 50 51  1  0
 50 52  1  0
 52 53  2  0
 52 54  1  0
 54 55  1  0
 55 56  1  0
 55 57  1  0
 57 58  2  0
 57 59  1  0
 59 60  1  0
 60 61  1  0
 60 62  1  0
 62 63  2  0
 62 64  1  0
 64 65  1  0
 65 66  1  0
 65 67  1  0
 67 68  2  0
 67 69  1  0
 69 70  1  0
 70 71  1  0
 70 72  1  0
 72 73  2  0
 72 74  1  0
 74 75  1  0
 75 76  1  0
 75 77  1  0
 77 78  2  0
 77 79  1  0
 79 80  1  0
 80 81  1  0
 81 82  1  0
 81 83  2  0
 80 84  1  0
 84 85  1  0
 85 86  1  0
 25  5  1  0
 14  9  2  0
 86 11  1  0
  1 87  1  0
  1 88  1  0
  1 89  1  0
  4 90  1  0
  5 91  1  6
  6 92  1  0
  6 93  1  0
  8 94  1  0
  8 95  1  0
 10 96  1  0
 12 97  1  0
 14 98  1  0
 15 99  1  0
 15100  1  0
 17101  1  0
 17102  1  0
 18103  1  1
 19104  1  0
 22105  1  1
 23106  1  0
 23107  1  0
 23108  1  0
 24109  1  0
 29110  1  0
 30111  1  6
 31112  1  0
 31113  1  0
 31114  1  0
 34115  1  0
 35116  1  6
 36117  1  0
 36118  1  0
 36119  1  0
 39120  1  0
 40121  1  6
 41122  1  0
 41123  1  0
 41124  1  0
 44125  1  0
 45126  1  6
 46127  1  0
 46128  1  0
 46129  1  0
 49130  1  0
 50131  1  6
 51132  1  0
 51133  1  0
 51134  1  0
 54135  1  0
 55136  1  6
 56137  1  0
 56138  1  0
 56139  1  0
 59140  1  0
 60141  1  6
 61142  1  0
 61143  1  0
 61144  1  0
 64145  1  0
 65146  1  6
 66147  1  0
 66148  1  0
 66149  1  0
 69150  1  0
 70151  1  1
 71152  1  0
 71153  1  0
 71154  1  0
 74155  1  0
 75156  1  6
 76157  1  0
 76158  1  0
 76159  1  0
 79160  1  0
 80161  1  1
 82162  1  0
 82163  1  0
 84164  1  0
 84165  1  0
 86166  1  0
 86167  1  0
M  END
