
     RDKit          3D

147149  0  0  0  0  0  0  0  0999 V2000
   -6.2475    6.8846   -1.9051 C   0  0  0  0  0  0  0  0  0  0  0  0
   -5.9971    6.9022   -0.4315 C   0  0  0  0  0  0  0  0  0  0  0  0
   -6.3726    7.9081    0.2358 O   0  0  0  0  0  0  0  0  0  0  0  0
   -5.3030    5.8389    0.2267 N   0  0  0  0  0  0  0  0  0  0  0  0
   -4.5314    4.8184   -0.4893 C   0  0  1  0  0  0  0  0  0  0  0  0
   -3.4780    4.1577    0.4263 C   0  0  0  0  0  0  0  0  0  0  0  0
   -1.8962    5.0607    0.2907 S   0  0  0  0  0  0  0  0  0  0  0  0
   -1.3629    4.3342   -1.3039 C   0  0  0  0  0  0  0  0  0  0  0  0
   -0.2968    3.3130   -1.0489 C   0  0  0  0  0  0  0  0  0  0  0  0
    1.0332    3.7277   -0.8959 C   0  0  0  0  0  0  0  0  0  0  0  0
    2.0086    2.7977   -0.5686 C   0  0  0  0  0  0  0  0  0  0  0  0
    1.6597    1.4641   -0.3118 C   0  0  0  0  0  0  0  0  0  0  0  0
    0.3591    1.0177   -0.5611 C   0  0  0  0  0  0  0  0  0  0  0  0
   -0.6190    1.9566   -0.9215 C   0  0  0  0  0  0  0  0  0  0  0  0
   -0.0310   -0.4014   -0.2656 C   0  0  0  0  0  0  0  0  0  0  0  0
    1.2516   -1.5802   -0.8753 S   0  0  0  0  0  0  0  0  0  0  0  0
    1.9393   -2.0983    0.7517 C   0  0  0  0  0  0  0  0  0  0  0  0
    1.3804   -3.4512    1.1880 C   0  0  2  0  0  0  0  0  0  0  0  0
   -0.0188   -3.2754    1.6150 N   0  0  0  0  0  0  0  0  0  0  0  0
   -1.1483   -3.9183    1.0242 C   0  0  0  0  0  0  0  0  0  0  0  0
   -2.1034   -4.2701    1.7714 O   0  0  0  0  0  0  0  0  0  0  0  0
   -1.2309   -4.2146   -0.4531 C   0  0  1  0  0  0  0  0  0  0  0  0
   -1.0557   -5.7057   -0.7174 C   0  0  0  0  0  0  0  0  0  0  0  0
   -2.4710   -3.6540   -1.0150 N   0  0  0  0  0  0  0  0  0  0  0  0
   -3.6053   -4.4213   -1.4433 C   0  0  0  0  0  0  0  0  0  0  0  0
   -3.6109   -4.9369   -2.5942 O   0  0  0  0  0  0  0  0  0  0  0  0
   -4.8204   -4.6016   -0.5648 C   0  0  1  0  0  0  0  0  0  0  0  0
   -4.8016   -5.9653    0.1451 C   0  0  0  0  0  0  0  0  0  0  0  0
   -4.9420   -3.5176    0.4210 N   0  0  0  0  0  0  0  0  0  0  0  0
   -6.1590   -3.2642    1.1320 C   0  0  0  0  0  0  0  0  0  0  0  0
   -6.1365   -3.2039    2.3916 O   0  0  0  0  0  0  0  0  0  0  0  0
   -7.4351   -2.9476    0.3899 C   0  0  1  0  0  0  0  0  0  0  0  0
   -8.5727   -3.8646    0.8623 C   0  0  0  0  0  0  0  0  0  0  0  0
   -7.7887   -1.5345    0.5986 N   0  0  0  0  0  0  0  0  0  0  0  0
   -8.5207   -0.8105   -0.3860 C   0  0  0  0  0  0  0  0  0  0  0  0
   -9.6062   -1.2871   -0.8332 O   0  0  0  0  0  0  0  0  0  0  0  0
   -8.0972    0.5866   -0.7701 C   0  0  1  0  0  0  0  0  0  0  0  0
   -8.0355    0.6837   -2.3017 C   0  0  0  0  0  0  0  0  0  0  0  0
   -9.0557    1.5668   -0.2508 N   0  0  0  0  0  0  0  0  0  0  0  0
   -8.7503    2.7993    0.4405 C   0  0  0  0  0  0  0  0  0  0  0  0
   -9.7183    3.5098    0.8547 O   0  0  0  0  0  0  0  0  0  0  0  0
   -7.3503    3.3698    0.5596 C   0  0  1  0  0  0  0  0  0  0  0  0
   -6.4342    2.4872    1.4283 C   0  0  0  0  0  0  0  0  0  0  0  0
   -6.8095    3.6278   -0.7865 N   0  0  0  0  0  0  0  0  0  0  0  0
   -5.4258    3.7840   -1.1255 C   0  0  0  0  0  0  0  0  0  0  0  0
   -4.9609    3.0841   -2.0753 O   0  0  0  0  0  0  0  0  0  0  0  0
    2.1890   -4.0120    2.3415 C   0  0  0  0  0  0  0  0  0  0  0  0
    1.6454   -4.1129    3.4775 O   0  0  0  0  0  0  0  0  0  0  0  0
    3.5716   -4.4170    2.2239 N   0  0  0  0  0  0  0  0  0  0  0  0
    4.3521   -4.6976    1.0135 C   0  0  2  0  0  0  0  0  0  0  0  0
    3.5880   -5.6223    0.0284 C   0  0  0  0  0  0  0  0  0  0  0  0
    5.6352   -5.3883    1.4280 C   0  0  0  0  0  0  0  0  0  0  0  0
    5.5506   -6.4447    2.1178 O   0  0  0  0  0  0  0  0  0  0  0  0
    6.9315   -4.9603    0.9851 N   0  0  0  0  0  0  0  0  0  0  0  0
    7.1933   -3.6927    0.2888 C   0  0  2  0  0  0  0  0  0  0  0  0
    6.9351   -3.8927   -1.2123 C   0  0  0  0  0  0  0  0  0  0  0  0
    8.6257   -3.2435    0.5746 C   0  0  0  0  0  0  0  0  0  0  0  0
    9.4095   -4.0221    1.1868 O   0  0  0  0  0  0  0  0  0  0  0  0
    9.1015   -1.9171    0.2460 N   0  0  0  0  0  0  0  0  0  0  0  0
    8.3021   -0.8825   -0.4141 C   0  0  2  0  0  0  0  0  0  0  0  0
    8.5430   -0.9483   -1.9361 C   0  0  0  0  0  0  0  0  0  0  0  0
    8.6329    0.4868    0.1502 C   0  0  0  0  0  0  0  0  0  0  0  0
    9.0534    1.3924   -0.6309 O   0  0  0  0  0  0  0  0  0  0  0  0
    8.2507    0.8203    1.5071 N   0  0  0  0  0  0  0  0  0  0  0  0
    7.3923    1.9916    1.7406 C   0  0  2  0  0  0  0  0  0  0  0  0
    6.0169    1.6761    1.1958 C   0  0  0  0  0  0  0  0  0  0  0  0
    7.9786    3.3172    1.2435 C   0  0  0  0  0  0  0  0  0  0  0  0
    9.2451    3.4014    1.0737 O   0  0  0  0  0  0  0  0  0  0  0  0
    7.2847    4.5953    1.2913 N   0  0  0  0  0  0  0  0  0  0  0  0
    6.0262    5.0250    0.6365 C   0  0  1  0  0  0  0  0  0  0  0  0
    5.9677    6.5385    0.5342 C   0  0  0  0  0  0  0  0  0  0  0  0
    4.7111    7.2187    0.5477 N   0  0  0  0  0  0  0  0  0  0  0  0
    7.0300    7.2270    0.4427 O   0  0  0  0  0  0  0  0  0  0  0  0
    5.8301    4.4603   -0.8078 C   0  0  0  0  0  0  0  0  0  0  0  0
    4.0747    4.5306   -1.4126 S   0  0  0  0  0  0  0  0  0  0  0  0
    3.4172    3.2242   -0.2981 C   0  0  0  0  0  0  0  0  0  0  0  0
   -6.7416    7.8270   -2.2196 H   0  0  0  0  0  0  0  0  0  0  0  0
   -5.3039    6.7931   -2.4753 H   0  0  0  0  0  0  0  0  0  0  0  0
   -6.9304    6.0464   -2.1694 H   0  0  0  0  0  0  0  0  0  0  0  0
   -5.2666    5.8630    1.2792 H   0  0  0  0  0  0  0  0  0  0  0  0
   -4.0014    5.3160   -1.3294 H   0  0  0  0  0  0  0  0  0  0  0  0
   -3.8117    4.1760    1.4805 H   0  0  0  0  0  0  0  0  0  0  0  0
   -3.3173    3.0842    0.1647 H   0  0  0  0  0  0  0  0  0  0  0  0
   -0.9675    5.1501   -1.9375 H   0  0  0  0  0  0  0  0  0  0  0  0
   -2.1980    3.8657   -1.8679 H   0  0  0  0  0  0  0  0  0  0  0  0
    1.2822    4.7763   -0.9426 H   0  0  0  0  0  0  0  0  0  0  0  0
    2.4048    0.7756    0.1012 H   0  0  0  0  0  0  0  0  0  0  0  0
   -1.6443    1.6469   -1.0592 H   0  0  0  0  0  0  0  0  0  0  0  0
   -0.9833   -0.6592   -0.7785 H   0  0  0  0  0  0  0  0  0  0  0  0
   -0.1971   -0.4896    0.8276 H   0  0  0  0  0  0  0  0  0  0  0  0
    3.0246   -2.1451    0.6130 H   0  0  0  0  0  0  0  0  0  0  0  0
    1.7484   -1.3357    1.5429 H   0  0  0  0  0  0  0  0  0  0  0  0
    1.4003   -4.1669    0.3554 H   0  0  0  0  0  0  0  0  0  0  0  0
   -0.1822   -2.6623    2.4445 H   0  0  0  0  0  0  0  0  0  0  0  0
   -0.3886   -3.7067   -0.9766 H   0  0  0  0  0  0  0  0  0  0  0  0
   -0.0732   -6.0536   -0.3409 H   0  0  0  0  0  0  0  0  0  0  0  0
   -1.1120   -5.9020   -1.8162 H   0  0  0  0  0  0  0  0  0  0  0  0
   -1.8546   -6.2743   -0.2057 H   0  0  0  0  0  0  0  0  0  0  0  0
   -2.3791   -2.7291   -1.4978 H   0  0  0  0  0  0  0  0  0  0  0  0
   -5.7064   -4.5961   -1.2287 H   0  0  0  0  0  0  0  0  0  0  0  0
   -5.7857   -6.1580    0.6297 H   0  0  0  0  0  0  0  0  0  0  0  0
   -4.6226   -6.7824   -0.5970 H   0  0  0  0  0  0  0  0  0  0  0  0
   -4.0131   -5.9974    0.9276 H   0  0  0  0  0  0  0  0  0  0  0  0
   -4.0826   -3.1264    0.8464 H   0  0  0  0  0  0  0  0  0  0  0  0
   -7.2848   -3.1295   -0.6938 H   0  0  0  0  0  0  0  0  0  0  0  0
   -8.8258   -3.6720    1.9248 H   0  0  0  0  0  0  0  0  0  0  0  0
   -8.2754   -4.9297    0.7344 H   0  0  0  0  0  0  0  0  0  0  0  0
   -9.4817   -3.6966    0.2505 H   0  0  0  0  0  0  0  0  0  0  0  0
   -7.4050   -1.0191    1.4346 H   0  0  0  0  0  0  0  0  0  0  0  0
   -7.0665    0.7730   -0.3893 H   0  0  0  0  0  0  0  0  0  0  0  0
   -9.0149    0.4414   -2.7585 H   0  0  0  0  0  0  0  0  0  0  0  0
   -7.7545    1.7111   -2.6119 H   0  0  0  0  0  0  0  0  0  0  0  0
   -7.2593   -0.0005   -2.6828 H   0  0  0  0  0  0  0  0  0  0  0  0
  -10.0762    1.3335   -0.3250 H   0  0  0  0  0  0  0  0  0  0  0  0
   -7.4372    4.3582    1.0733 H   0  0  0  0  0  0  0  0  0  0  0  0
   -7.0245    1.7342    1.9984 H   0  0  0  0  0  0  0  0  0  0  0  0
   -5.9078    3.1235    2.1776 H   0  0  0  0  0  0  0  0  0  0  0  0
   -5.6554    1.9676    0.8454 H   0  0  0  0  0  0  0  0  0  0  0  0
   -7.4859    3.6842   -1.5785 H   0  0  0  0  0  0  0  0  0  0  0  0
    4.0383   -4.5914    3.1456 H   0  0  0  0  0  0  0  0  0  0  0  0
    4.5452   -3.7503    0.4883 H   0  0  0  0  0  0  0  0  0  0  0  0
    4.2987   -6.2519   -0.5508 H   0  0  0  0  0  0  0  0  0  0  0  0
    3.0411   -5.0164   -0.7170 H   0  0  0  0  0  0  0  0  0  0  0  0
    2.8892   -6.2883    0.5809 H   0  0  0  0  0  0  0  0  0  0  0  0
    7.6408   -5.7170    0.8890 H   0  0  0  0  0  0  0  0  0  0  0  0
    6.5289   -2.9213    0.7069 H   0  0  0  0  0  0  0  0  0  0  0  0
    6.0133   -4.4881   -1.3714 H   0  0  0  0  0  0  0  0  0  0  0  0
    6.7432   -2.9259   -1.6985 H   0  0  0  0  0  0  0  0  0  0  0  0
    7.7848   -4.4116   -1.6953 H   0  0  0  0  0  0  0  0  0  0  0  0
   10.0505   -1.6560    0.6176 H   0  0  0  0  0  0  0  0  0  0  0  0
    7.2274   -1.0575   -0.2244 H   0  0  0  0  0  0  0  0  0  0  0  0
    8.6632   -2.0025   -2.2734 H   0  0  0  0  0  0  0  0  0  0  0  0
    7.6901   -0.5007   -2.4949 H   0  0  0  0  0  0  0  0  0  0  0  0
    9.4751   -0.4030   -2.2261 H   0  0  0  0  0  0  0  0  0  0  0  0
    7.9327    0.0097    2.0886 H   0  0  0  0  0  0  0  0  0  0  0  0
    7.2447    2.1257    2.8289 H   0  0  0  0  0  0  0  0  0  0  0  0
    6.0562    1.1805    0.1870 H   0  0  0  0  0  0  0  0  0  0  0  0
    5.4170    1.0866    1.9212 H   0  0  0  0  0  0  0  0  0  0  0  0
    5.5054    2.6132    1.1322 H   0  0  0  0  0  0  0  0  0  0  0  0
    7.7573    5.3116    1.8984 H   0  0  0  0  0  0  0  0  0  0  0  0
    5.1920    4.7237    1.2935 H   0  0  0  0  0  0  0  0  0  0  0  0
    3.8195    6.6838    0.6102 H   0  0  0  0  0  0  0  0  0  0  0  0
    4.6728    8.2528    0.4717 H   0  0  0  0  0  0  0  0  0  0  0  0
    6.4424    5.0540   -1.5248 H   0  0  0  0  0  0  0  0  0  0  0  0
    6.2074    3.4241   -0.8984 H   0  0  0  0  0  0  0  0  0  0  0  0
    3.4213    3.5837    0.7598 H   0  0  0  0  0  0  0  0  0  0  0  0
    4.0421    2.3095   -0.4944 H   0  0  0  0  0  0  0  0  0  0  0  0
  1  2  1  0
  2  3  2  0
  2  4  1  0
  4  5  1  0
  5  6  1  0
  6  7  1  0
  7  8  1  0
  8  9  1  0
  9 10  1  0
 10 11  2  0
 11 12  1  0
 12 13  2  0
 13 14  1  0
 13 15  1  0
 15 16  1  0
 16 17  1  0
 17 18  1  0
 18 19  1  0
 19 20  1  0
 20 21  2  0
 20 22  1  0
 22 23  1  0
 22 24  1  0
 24 25  1  0
 25 26  2  0
 25 27  1  0
 27 28  1  0
 27 29  1  0
 29 30  1  0
 30 31  2  0
 30 32  1  0
 32 33  1  0
 32 34  1  0
 34 35  1  0
 35 36  2  0
 35 37  1  0
 37 38  1  0
 37 39  1  0
 39 40  1  0
 40 41  2  0
 40 42  1  0
 42 43  1  0
 42 44  1  0
 44 45  1  0
 45 46  2  0
 18 47  1  0
 47 48  2  0
 47 49  1  0
 49 50  1  0
 50 51  1  0
 50 52  1  0
 52 53  2  0
 52 54  1  0
 54 55  1  0
 55 56  1  0
 55 57  1  0
 57 58  2  0
 57 59  1  0
 59 60  1  0
 60 61  1  0
 60 62  1  0
 62 63  2  0
 62 64  1  0
 64 65  1  0
 65 66  1  0
 65 67  1  0
 67 68  2  0
 67 69  1  0
 69 70  1  0
 70 71  1  0
 71 72  1  0
 71 73  2  0
 70 74  1  0
 74 75  1  0
 75 76  1  0
 45  5  1  0
 14  9  2  0
 76 11  1  0
  1 77  1  0
  1 78  1  0
  1 79  1  0
  4 80  1  0
  5 81  1  6
  6 82  1  0
  6 83  1  0
  8 84  1  0
  8 85  1  0
 10 86  1  0
 12 87  1  0
 14 88  1  0
 15 89  1  0
 15 90  1  0
 17 91  1  0
 17 92  1  0
 18 93  1  6
 19 94  1  0
 22 95  1  6
 23 96  1  0
 23 97  1  0
 23 98  1  0
 24 99  1  0
 27100  1  6
 28101  1  0
 28102  1  0
 28103  1  0
 29104  1  0
 32105  1  6
 33106  1  0
 33107  1  0
 33108  1  0
 34109  1  0
 37110  1  1
 38111  1  0
 38112  1  0
 38113  1  0
 39114  1  0
 42115  1  1
 43116  1  0
 43117  1  0
 43118  1  0
 44119  1  0
 49120  1  0
 50121  1  6
 51122  1  0
 51123  1  0
 51124  1  0
 54125  1  0
 55126  1  1
 56127  1  0
 56128  1  0
 56129  1  0
 59130  1  0
 60131  1  6
 61132  1  0
 61133  1  0
 61134  1  0
 64135  1  0
 65136  1  1
 66137  1  0
 66138  1  0
 66139  1  0
 69140  1  0
 70141  1  1
 72142  1  0
 72143  1  0
 74144  1  0
 74145  1  0
 76146  1  0
 76147  1  0
M  END
