
     RDKit          3D

147149  0  0  0  0  0  0  0  0999 V2000
   -7.1421    6.5397   -2.3442 C   0  0  0  0  0  0  0  0  0  0  0  0
   -5.9833    5.7945   -1.7495 C   0  0  0  0  0  0  0  0  0  0  0  0
   -5.3087    5.0224   -2.4822 O   0  0  0  0  0  0  0  0  0  0  0  0
   -5.6418    5.9651   -0.3647 N   0  0  0  0  0  0  0  0  0  0  0  0
   -5.1397    4.8816    0.4957 C   0  0  2  0  0  0  0  0  0  0  0  0
   -3.7403    4.4032    0.0560 C   0  0  0  0  0  0  0  0  0  0  0  0
   -2.6072    5.8264   -0.1586 S   0  0  0  0  0  0  0  0  0  0  0  0
   -1.8069    5.2439   -1.6946 C   0  0  0  0  0  0  0  0  0  0  0  0
   -0.7636    4.2052   -1.3972 C   0  0  0  0  0  0  0  0  0  0  0  0
    0.4251    4.5806   -0.7539 C   0  0  0  0  0  0  0  0  0  0  0  0
    1.4588    3.6534   -0.5544 C   0  0  0  0  0  0  0  0  0  0  0  0
    1.2970    2.3440   -1.0392 C   0  0  0  0  0  0  0  0  0  0  0  0
    0.0899    1.9356   -1.6297 C   0  0  0  0  0  0  0  0  0  0  0  0
   -0.9390    2.8736   -1.8135 C   0  0  0  0  0  0  0  0  0  0  0  0
   -0.0593    0.5139   -2.0985 C   0  0  0  0  0  0  0  0  0  0  0  0
    0.0458   -0.6124   -0.6631 S   0  0  0  0  0  0  0  0  0  0  0  0
    0.5266   -2.0914   -1.6343 C   0  0  0  0  0  0  0  0  0  0  0  0
    0.7799   -3.3256   -0.7560 C   0  0  2  0  0  0  0  0  0  0  0  0
   -0.3944   -3.6341    0.0566 N   0  0  0  0  0  0  0  0  0  0  0  0
   -0.9373   -4.9550    0.0771 C   0  0  0  0  0  0  0  0  0  0  0  0
   -0.3520   -5.8614    0.7247 O   0  0  0  0  0  0  0  0  0  0  0  0
   -2.1405   -5.2771   -0.7657 C   0  0  1  0  0  0  0  0  0  0  0  0
   -1.7141   -5.9805   -2.0532 C   0  0  0  0  0  0  0  0  0  0  0  0
   -3.0599   -6.1346   -0.0114 N   0  0  0  0  0  0  0  0  0  0  0  0
   -4.4009   -5.7915    0.3744 C   0  0  0  0  0  0  0  0  0  0  0  0
   -5.2387   -6.7291    0.4923 O   0  0  0  0  0  0  0  0  0  0  0  0
   -4.8846   -4.3788    0.6283 C   0  0  1  0  0  0  0  0  0  0  0  0
   -3.8483   -3.4922    1.3370 C   0  0  0  0  0  0  0  0  0  0  0  0
   -5.3460   -3.7648   -0.6227 N   0  0  0  0  0  0  0  0  0  0  0  0
   -6.2857   -2.6790   -0.7348 C   0  0  0  0  0  0  0  0  0  0  0  0
   -6.1629   -1.8886   -1.7058 O   0  0  0  0  0  0  0  0  0  0  0  0
   -7.4840   -2.4996    0.1795 C   0  0  1  0  0  0  0  0  0  0  0  0
   -8.3666   -3.7495    0.2272 C   0  0  0  0  0  0  0  0  0  0  0  0
   -7.0825   -2.0801    1.5252 N   0  0  0  0  0  0  0  0  0  0  0  0
   -7.0431   -0.7111    1.9400 C   0  0  0  0  0  0  0  0  0  0  0  0
   -5.9633   -0.2455    2.3955 O   0  0  0  0  0  0  0  0  0  0  0  0
   -8.2927    0.1381    1.9238 C   0  0  1  0  0  0  0  0  0  0  0  0
   -8.2082    1.3468    2.8641 C   0  0  0  0  0  0  0  0  0  0  0  0
   -8.6838    0.5585    0.5694 N   0  0  0  0  0  0  0  0  0  0  0  0
   -7.9587    1.4500   -0.2940 C   0  0  0  0  0  0  0  0  0  0  0  0
   -8.6190    2.2574   -1.0046 O   0  0  0  0  0  0  0  0  0  0  0  0
   -6.4456    1.4253   -0.4171 C   0  0  1  0  0  0  0  0  0  0  0  0
   -5.9999    1.6794   -1.8600 C   0  0  0  0  0  0  0  0  0  0  0  0
   -5.8002    2.3899    0.4790 N   0  0  0  0  0  0  0  0  0  0  0  0
   -6.1694    3.7760    0.5591 C   0  0  0  0  0  0  0  0  0  0  0  0
   -7.3764    4.0890    0.7449 O   0  0  0  0  0  0  0  0  0  0  0  0
    1.9927   -3.1684    0.1344 C   0  0  0  0  0  0  0  0  0  0  0  0
    1.9878   -2.3022    1.0478 O   0  0  0  0  0  0  0  0  0  0  0  0
    3.1099   -4.0596    0.0294 N   0  0  0  0  0  0  0  0  0  0  0  0
    3.7990   -4.3167   -1.2406 C   0  0  2  0  0  0  0  0  0  0  0  0
    4.3034   -5.7597   -1.2975 C   0  0  0  0  0  0  0  0  0  0  0  0
    4.9270   -3.3334   -1.4649 C   0  0  0  0  0  0  0  0  0  0  0  0
    5.2700   -3.0706   -2.6489 O   0  0  0  0  0  0  0  0  0  0  0  0
    5.5817   -2.6431   -0.3893 N   0  0  0  0  0  0  0  0  0  0  0  0
    6.2426   -3.3365    0.7173 C   0  0  2  0  0  0  0  0  0  0  0  0
    6.0120   -2.5742    2.0253 C   0  0  0  0  0  0  0  0  0  0  0  0
    7.7085   -3.5287    0.4110 C   0  0  0  0  0  0  0  0  0  0  0  0
    8.0549   -4.4763   -0.3419 O   0  0  0  0  0  0  0  0  0  0  0  0
    8.7184   -2.6964    0.9925 N   0  0  0  0  0  0  0  0  0  0  0  0
    8.9286   -1.3156    0.5553 C   0  0  2  0  0  0  0  0  0  0  0  0
   10.2097   -1.2450   -0.2847 C   0  0  0  0  0  0  0  0  0  0  0  0
    9.0346   -0.4007    1.7530 C   0  0  0  0  0  0  0  0  0  0  0  0
    9.5635   -0.8327    2.8154 O   0  0  0  0  0  0  0  0  0  0  0  0
    8.5200    0.9430    1.7350 N   0  0  0  0  0  0  0  0  0  0  0  0
    8.3081    1.7449    0.5220 C   0  0  2  0  0  0  0  0  0  0  0  0
    9.2247    2.9697    0.5555 C   0  0  0  0  0  0  0  0  0  0  0  0
    6.8423    2.0855    0.3945 C   0  0  0  0  0  0  0  0  0  0  0  0
    5.9978    1.1459    0.4730 O   0  0  0  0  0  0  0  0  0  0  0  0
    6.3953    3.3849   -0.0308 N   0  0  0  0  0  0  0  0  0  0  0  0
    5.8316    4.3983    0.8735 C   0  0  2  0  0  0  0  0  0  0  0  0
    6.9448    5.2035    1.5051 C   0  0  0  0  0  0  0  0  0  0  0  0
    7.1869    5.2294    2.9149 N   0  0  0  0  0  0  0  0  0  0  0  0
    7.6817    5.8995    0.7531 O   0  0  0  0  0  0  0  0  0  0  0  0
    4.8291    3.8026    1.8870 C   0  0  0  0  0  0  0  0  0  0  0  0
    3.4858    2.8073    1.1300 S   0  0  0  0  0  0  0  0  0  0  0  0
    2.7684    4.1030    0.0458 C   0  0  0  0  0  0  0  0  0  0  0  0
   -7.8576    5.8058   -2.7807 H   0  0  0  0  0  0  0  0  0  0  0  0
   -6.7746    7.2259   -3.1384 H   0  0  0  0  0  0  0  0  0  0  0  0
   -7.6695    7.1312   -1.5641 H   0  0  0  0  0  0  0  0  0  0  0  0
   -5.8386    6.8867    0.0820 H   0  0  0  0  0  0  0  0  0  0  0  0
   -5.0375    5.2860    1.5286 H   0  0  0  0  0  0  0  0  0  0  0  0
   -3.3093    3.7479    0.8419 H   0  0  0  0  0  0  0  0  0  0  0  0
   -3.8241    3.7979   -0.8726 H   0  0  0  0  0  0  0  0  0  0  0  0
   -1.3185    6.1151   -2.1812 H   0  0  0  0  0  0  0  0  0  0  0  0
   -2.5659    4.8703   -2.4186 H   0  0  0  0  0  0  0  0  0  0  0  0
    0.5503    5.6018   -0.4233 H   0  0  0  0  0  0  0  0  0  0  0  0
    2.1066    1.6298   -0.9484 H   0  0  0  0  0  0  0  0  0  0  0  0
   -1.8605    2.5759   -2.3011 H   0  0  0  0  0  0  0  0  0  0  0  0
    0.7507    0.2996   -2.8286 H   0  0  0  0  0  0  0  0  0  0  0  0
   -1.0321    0.3558   -2.6105 H   0  0  0  0  0  0  0  0  0  0  0  0
   -0.2869   -2.3174   -2.3579 H   0  0  0  0  0  0  0  0  0  0  0  0
    1.4487   -1.8733   -2.2109 H   0  0  0  0  0  0  0  0  0  0  0  0
    0.9560   -4.1776   -1.4467 H   0  0  0  0  0  0  0  0  0  0  0  0
   -0.6835   -2.9807    0.8218 H   0  0  0  0  0  0  0  0  0  0  0  0
   -2.6343   -4.3353   -1.0671 H   0  0  0  0  0  0  0  0  0  0  0  0
   -2.6137   -6.2516   -2.6499 H   0  0  0  0  0  0  0  0  0  0  0  0
   -1.0791   -5.3060   -2.6686 H   0  0  0  0  0  0  0  0  0  0  0  0
   -1.1450   -6.9092   -1.8298 H   0  0  0  0  0  0  0  0  0  0  0  0
   -2.7562   -7.1186    0.1660 H   0  0  0  0  0  0  0  0  0  0  0  0
   -5.7359   -4.4883    1.3226 H   0  0  0  0  0  0  0  0  0  0  0  0
   -4.3575   -2.6717    1.8802 H   0  0  0  0  0  0  0  0  0  0  0  0
   -3.1562   -3.0124    0.6202 H   0  0  0  0  0  0  0  0  0  0  0  0
   -3.2709   -4.0797    2.0788 H   0  0  0  0  0  0  0  0  0  0  0  0
   -4.8210   -3.9985   -1.4987 H   0  0  0  0  0  0  0  0  0  0  0  0
   -8.1168   -1.7095   -0.2695 H   0  0  0  0  0  0  0  0  0  0  0  0
   -7.8075   -4.6419    0.5682 H   0  0  0  0  0  0  0  0  0  0  0  0
   -9.2092   -3.5776    0.9254 H   0  0  0  0  0  0  0  0  0  0  0  0
   -8.7794   -3.9564   -0.7822 H   0  0  0  0  0  0  0  0  0  0  0  0
   -6.7065   -2.7772    2.1996 H   0  0  0  0  0  0  0  0  0  0  0  0
   -9.1083   -0.5037    2.3256 H   0  0  0  0  0  0  0  0  0  0  0  0
   -9.1557    1.9238    2.8256 H   0  0  0  0  0  0  0  0  0  0  0  0
   -8.0512    1.0035    3.9093 H   0  0  0  0  0  0  0  0  0  0  0  0
   -7.3729    2.0167    2.5835 H   0  0  0  0  0  0  0  0  0  0  0  0
   -9.6691    0.3523    0.2939 H   0  0  0  0  0  0  0  0  0  0  0  0
   -6.0838    0.4087   -0.1710 H   0  0  0  0  0  0  0  0  0  0  0  0
   -6.4164    0.8971   -2.5306 H   0  0  0  0  0  0  0  0  0  0  0  0
   -4.8913    1.6377   -1.9262 H   0  0  0  0  0  0  0  0  0  0  0  0
   -6.3456    2.6725   -2.2123 H   0  0  0  0  0  0  0  0  0  0  0  0
   -4.9222    2.0800    0.9521 H   0  0  0  0  0  0  0  0  0  0  0  0
    3.5766   -4.3354    0.9234 H   0  0  0  0  0  0  0  0  0  0  0  0
    3.0844   -4.1902   -2.0815 H   0  0  0  0  0  0  0  0  0  0  0  0
    4.7693   -5.9594   -2.2881 H   0  0  0  0  0  0  0  0  0  0  0  0
    3.4456   -6.4566   -1.1710 H   0  0  0  0  0  0  0  0  0  0  0  0
    5.0442   -5.9687   -0.4990 H   0  0  0  0  0  0  0  0  0  0  0  0
    5.8633   -1.6543   -0.5700 H   0  0  0  0  0  0  0  0  0  0  0  0
    5.8109   -4.3461    0.8631 H   0  0  0  0  0  0  0  0  0  0  0  0
    6.3666   -1.5258    1.9449 H   0  0  0  0  0  0  0  0  0  0  0  0
    6.5451   -3.0773    2.8619 H   0  0  0  0  0  0  0  0  0  0  0  0
    4.9286   -2.5586    2.2628 H   0  0  0  0  0  0  0  0  0  0  0  0
    9.4958   -3.1783    1.4943 H   0  0  0  0  0  0  0  0  0  0  0  0
    8.0713   -1.0014   -0.0767 H   0  0  0  0  0  0  0  0  0  0  0  0
   10.3783   -0.2196   -0.6740 H   0  0  0  0  0  0  0  0  0  0  0  0
   11.0919   -1.5392    0.3232 H   0  0  0  0  0  0  0  0  0  0  0  0
   10.1274   -1.9354   -1.1539 H   0  0  0  0  0  0  0  0  0  0  0  0
    8.3624    1.4150    2.6564 H   0  0  0  0  0  0  0  0  0  0  0  0
    8.5722    1.1730   -0.3863 H   0  0  0  0  0  0  0  0  0  0  0  0
    9.0497    3.6188   -0.3305 H   0  0  0  0  0  0  0  0  0  0  0  0
    9.0670    3.5490    1.4861 H   0  0  0  0  0  0  0  0  0  0  0  0
   10.2857    2.6393    0.5337 H   0  0  0  0  0  0  0  0  0  0  0  0
    6.1812    3.4809   -1.0462 H   0  0  0  0  0  0  0  0  0  0  0  0
    5.2722    5.1343    0.2590 H   0  0  0  0  0  0  0  0  0  0  0  0
    6.6485    4.6501    3.5951 H   0  0  0  0  0  0  0  0  0  0  0  0
    7.9011    5.8864    3.3028 H   0  0  0  0  0  0  0  0  0  0  0  0
    5.3629    3.1214    2.5834 H   0  0  0  0  0  0  0  0  0  0  0  0
    4.3699    4.6218    2.4833 H   0  0  0  0  0  0  0  0  0  0  0  0
    2.6211    5.0330    0.6419 H   0  0  0  0  0  0  0  0  0  0  0  0
    3.4654    4.3185   -0.7940 H   0  0  0  0  0  0  0  0  0  0  0  0
  1  2  1  0
  2  3  2  0
  2  4  1  0
  4  5  1  0
  5  6  1  0
  6  7  1  0
  7  8  1  0
  8  9  1  0
  9 10  1  0
 10 11  2  0
 11 12  1  0
 12 13  2  0
 13 14  1  0
 13 15  1  0
 15 16  1  0
 16 17  1  0
 17 18  1  0
 18 19  1  0
 19 20  1  0
 20 21  2  0
 20 22  1  0
 22 23  1  0
 22 24  1  0
 24 25  1  0
 25 26  2  0
 25 27  1  0
 27 28  1  0
 27 29  1  0
 29 30  1  0
 30 31  2  0
 30 32  1  0
 32 33  1  0
 32 34  1  0
 34 35  1  0
 35 36  2  0
 35 37  1  0
 37 38  1  0
 37 39  1  0
 39 40  1  0
 40 41  2  0
 40 42  1  0
 42 43  1  0
 42 44  1  0
 44 45  1  0
 45 46  2  0
 18 47  1  0
 47 48  2  0
 47 49  1  0
 49 50  1  0
 50 51  1  0
 50 52  1  0
 52 53  2  0
 52 54  1  0
 54 55  1  0
 55 56  1  0
 55 57  1  0
 57 58  2  0
 57 59  1  0
 59 60  1  0
 60 61  1  0
 60 62  1  0
 62 63  2  0
 62 64  1  0
 64 65  1  0
 65 66  1  0
 65 67  1  0
 67 68  2  0
 67 69  1  0
 69 70  1  0
 70 71  1  0
 71 72  1  0
 71 73  2  0
 70 74  1  0
 74 75  1  0
 75 76  1  0
 45  5  1  0
 14  9  2  0
 76 11  1  0
  1 77  1  0
  1 78  1  0
  1 79  1  0
  4 80  1  0
  5 81  1  1
  6 82  1  0
  6 83  1  0
  8 84  1  0
  8 85  1  0
 10 86  1  0
 12 87  1  0
 14 88  1  0
 15 89  1  0
 15 90  1  0
 17 91  1  0
 17 92  1  0
 18 93  1  6
 19 94  1  0
 22 95  1  6
 23 96  1  0
 23 97  1  0
 23 98  1  0
 24 99  1  0
 27100  1  1
 28101  1  0
 28102  1  0
 28103  1  0
 29104  1  0
 32105  1  6
 33106  1  0
 33107  1  0
 33108  1  0
 34109  1  0
 37110  1  1
 38111  1  0
 38112  1  0
 38113  1  0
 39114  1  0
 42115  1  1
 43116  1  0
 43117  1  0
 43118  1  0
 44119  1  0
 49120  1  0
 50121  1  6
 51122  1  0
 51123  1  0
 51124  1  0
 54125  1  0
 55126  1  1
 56127  1  0
 56128  1  0
 56129  1  0
 59130  1  0
 60131  1  6
 61132  1  0
 61133  1  0
 61134  1  0
 64135  1  0
 65136  1  6
 66137  1  0
 66138  1  0
 66139  1  0
 69140  1  0
 70141  1  6
 72142  1  0
 72143  1  0
 74144  1  0
 74145  1  0
 76146  1  0
 76147  1  0
M  END
