
     RDKit          3D

167169  0  0  0  0  0  0  0  0999 V2000
   -7.0357   -8.7085   -2.1822 C   0  0  0  0  0  0  0  0  0  0  0  0
   -6.3087   -8.2928   -0.9393 C   0  0  0  0  0  0  0  0  0  0  0  0
   -5.7108   -9.1681   -0.2563 O   0  0  0  0  0  0  0  0  0  0  0  0
   -6.2917   -6.9122   -0.5392 N   0  0  0  0  0  0  0  0  0  0  0  0
   -5.6811   -6.4627    0.7224 C   0  0  1  0  0  0  0  0  0  0  0  0
   -4.1960   -6.1319    0.5226 C   0  0  0  0  0  0  0  0  0  0  0  0
   -3.9325   -4.7016   -0.5937 S   0  0  0  0  0  0  0  0  0  0  0  0
   -3.4145   -3.4712    0.6646 C   0  0  0  0  0  0  0  0  0  0  0  0
   -2.0777   -2.9179    0.2661 C   0  0  0  0  0  0  0  0  0  0  0  0
   -0.9443   -3.7469    0.2899 C   0  0  0  0  0  0  0  0  0  0  0  0
    0.2756   -3.2928   -0.2369 C   0  0  0  0  0  0  0  0  0  0  0  0
    0.3771   -1.9777   -0.7145 C   0  0  0  0  0  0  0  0  0  0  0  0
   -0.7439   -1.1285   -0.7044 C   0  0  0  0  0  0  0  0  0  0  0  0
   -1.9689   -1.6060   -0.2156 C   0  0  0  0  0  0  0  0  0  0  0  0
   -0.6871    0.2147   -1.3725 C   0  0  0  0  0  0  0  0  0  0  0  0
    0.6600    1.2468   -0.7027 S   0  0  0  0  0  0  0  0  0  0  0  0
    0.1732    2.7700   -1.5975 C   0  0  0  0  0  0  0  0  0  0  0  0
   -0.7714    3.6546   -0.7562 C   0  0  2  0  0  0  0  0  0  0  0  0
   -1.2791    4.7479   -1.5909 N   0  0  0  0  0  0  0  0  0  0  0  0
   -2.4741    5.5123   -1.3406 C   0  0  0  0  0  0  0  0  0  0  0  0
   -2.9003    6.2547   -2.2677 O   0  0  0  0  0  0  0  0  0  0  0  0
   -3.1739    5.5174    0.0034 C   0  0  1  0  0  0  0  0  0  0  0  0
   -3.1442    6.9179    0.6227 C   0  0  0  0  0  0  0  0  0  0  0  0
   -4.5610    5.0218   -0.0888 N   0  0  0  0  0  0  0  0  0  0  0  0
   -5.6513    5.7355   -0.6890 C   0  0  0  0  0  0  0  0  0  0  0  0
   -5.4584    6.4461   -1.7048 O   0  0  0  0  0  0  0  0  0  0  0  0
   -7.0338    5.6433   -0.0901 C   0  0  1  0  0  0  0  0  0  0  0  0
   -7.4979    7.0220    0.3767 C   0  0  0  0  0  0  0  0  0  0  0  0
   -7.9799    5.1129   -1.0777 N   0  0  0  0  0  0  0  0  0  0  0  0
   -8.9840    4.1177   -0.8010 C   0  0  0  0  0  0  0  0  0  0  0  0
  -10.0044    4.0695   -1.5401 O   0  0  0  0  0  0  0  0  0  0  0  0
   -8.8930    3.1737    0.3817 C   0  0  1  0  0  0  0  0  0  0  0  0
   -9.5667    3.7862    1.6071 C   0  0  0  0  0  0  0  0  0  0  0  0
   -9.5306    1.8942    0.0623 N   0  0  0  0  0  0  0  0  0  0  0  0
   -9.0391    0.6868    0.6443 C   0  0  0  0  0  0  0  0  0  0  0  0
   -9.3596    0.4158    1.8325 O   0  0  0  0  0  0  0  0  0  0  0  0
   -8.2979   -0.3253   -0.1941 C   0  0  1  0  0  0  0  0  0  0  0  0
   -7.4270    0.3526   -1.2557 C   0  0  0  0  0  0  0  0  0  0  0  0
   -7.4544   -1.1841    0.6476 N   0  0  0  0  0  0  0  0  0  0  0  0
   -7.9975   -2.2432    1.4469 C   0  0  0  0  0  0  0  0  0  0  0  0
   -8.1537   -2.0599    2.6845 O   0  0  0  0  0  0  0  0  0  0  0  0
   -8.2696   -3.6112    0.8810 C   0  0  1  0  0  0  0  0  0  0  0  0
   -9.1923   -3.5869   -0.3442 C   0  0  0  0  0  0  0  0  0  0  0  0
   -7.0086   -4.2701    0.5282 N   0  0  0  0  0  0  0  0  0  0  0  0
   -6.4623   -5.3269    1.3381 C   0  0  0  0  0  0  0  0  0  0  0  0
   -6.6425   -5.3180    2.5843 O   0  0  0  0  0  0  0  0  0  0  0  0
   -0.0209    4.1947    0.4342 C   0  0  0  0  0  0  0  0  0  0  0  0
   -0.0628    3.5796    1.5321 O   0  0  0  0  0  0  0  0  0  0  0  0
    0.8340    5.3293    0.2917 N   0  0  0  0  0  0  0  0  0  0  0  0
    2.2344    5.2800    0.7310 C   0  0  2  0  0  0  0  0  0  0  0  0
    2.3904    6.0543    2.0356 C   0  0  0  0  0  0  0  0  0  0  0  0
    3.1461    5.8291   -0.3416 C   0  0  0  0  0  0  0  0  0  0  0  0
    2.6791    6.2858   -1.4176 O   0  0  0  0  0  0  0  0  0  0  0  0
    4.5613    5.8601   -0.1246 N   0  0  0  0  0  0  0  0  0  0  0  0
    5.4612    4.8238   -0.6502 C   0  0  2  0  0  0  0  0  0  0  0  0
    4.8592    3.4197   -0.5336 C   0  0  0  0  0  0  0  0  0  0  0  0
    6.7665    4.8637    0.0930 C   0  0  0  0  0  0  0  0  0  0  0  0
    6.7630    5.0319    1.3483 O   0  0  0  0  0  0  0  0  0  0  0  0
    8.0067    4.6755   -0.6052 N   0  0  0  0  0  0  0  0  0  0  0  0
    9.2630    4.4096    0.1011 C   0  0  2  0  0  0  0  0  0  0  0  0
   10.0318    5.7177    0.2965 C   0  0  0  0  0  0  0  0  0  0  0  0
   10.0637    3.3714   -0.6608 C   0  0  0  0  0  0  0  0  0  0  0  0
   10.9475    3.7507   -1.4822 O   0  0  0  0  0  0  0  0  0  0  0  0
    9.8023    1.9658   -0.5276 N   0  0  0  0  0  0  0  0  0  0  0  0
    8.5874    1.4106    0.0731 C   0  0  2  0  0  0  0  0  0  0  0  0
    8.8743    0.9473    1.5039 C   0  0  0  0  0  0  0  0  0  0  0  0
    8.0392    0.3216   -0.8176 C   0  0  0  0  0  0  0  0  0  0  0  0
    7.5481    0.6403   -1.9343 O   0  0  0  0  0  0  0  0  0  0  0  0
    7.9921   -1.0483   -0.4076 N   0  0  0  0  0  0  0  0  0  0  0  0
    9.1751   -1.9159   -0.4501 C   0  0  2  0  0  0  0  0  0  0  0  0
    9.7478   -1.9955   -1.8712 C   0  0  0  0  0  0  0  0  0  0  0  0
    8.8158   -3.2860    0.0677 C   0  0  0  0  0  0  0  0  0  0  0  0
    9.2769   -3.6637    1.1788 O   0  0  0  0  0  0  0  0  0  0  0  0
    7.8791   -4.1078   -0.6392 N   0  0  0  0  0  0  0  0  0  0  0  0
    7.1650   -5.2156    0.0127 C   0  0  2  0  0  0  0  0  0  0  0  0
    8.0068   -6.4892   -0.0603 C   0  0  0  0  0  0  0  0  0  0  0  0
    5.8133   -5.4503   -0.6403 C   0  0  0  0  0  0  0  0  0  0  0  0
    5.6943   -5.2899   -1.8863 O   0  0  0  0  0  0  0  0  0  0  0  0
    4.6870   -5.9515    0.0943 N   0  0  0  0  0  0  0  0  0  0  0  0
    4.4485   -5.7483    1.5292 C   0  0  2  0  0  0  0  0  0  0  0  0
    4.7849   -7.0047    2.2855 C   0  0  0  0  0  0  0  0  0  0  0  0
    4.2037   -8.2570    1.9216 N   0  0  0  0  0  0  0  0  0  0  0  0
    5.5857   -6.9595    3.2587 O   0  0  0  0  0  0  0  0  0  0  0  0
    2.9909   -5.3499    1.7717 C   0  0  0  0  0  0  0  0  0  0  0  0
    2.6650   -3.6967    1.0244 S   0  0  0  0  0  0  0  0  0  0  0  0
    1.4606   -4.2105   -0.2648 C   0  0  0  0  0  0  0  0  0  0  0  0
   -7.8008   -9.4747   -1.9261 H   0  0  0  0  0  0  0  0  0  0  0  0
   -7.5429   -7.8455   -2.6567 H   0  0  0  0  0  0  0  0  0  0  0  0
   -6.3126   -9.1433   -2.9063 H   0  0  0  0  0  0  0  0  0  0  0  0
   -6.6750   -6.2051   -1.2060 H   0  0  0  0  0  0  0  0  0  0  0  0
   -5.7228   -7.3098    1.4498 H   0  0  0  0  0  0  0  0  0  0  0  0
   -3.7139   -5.9948    1.5102 H   0  0  0  0  0  0  0  0  0  0  0  0
   -3.6981   -7.0110    0.0598 H   0  0  0  0  0  0  0  0  0  0  0  0
   -3.3429   -3.8803    1.6947 H   0  0  0  0  0  0  0  0  0  0  0  0
   -4.1854   -2.6681    0.6935 H   0  0  0  0  0  0  0  0  0  0  0  0
   -1.0370   -4.7590    0.6677 H   0  0  0  0  0  0  0  0  0  0  0  0
    1.3112   -1.6325   -1.1282 H   0  0  0  0  0  0  0  0  0  0  0  0
   -2.8483   -0.9741   -0.2517 H   0  0  0  0  0  0  0  0  0  0  0  0
   -0.5386    0.0577   -2.4603 H   0  0  0  0  0  0  0  0  0  0  0  0
   -1.6446    0.7537   -1.2349 H   0  0  0  0  0  0  0  0  0  0  0  0
   -0.3075    2.5127   -2.5650 H   0  0  0  0  0  0  0  0  0  0  0  0
    1.0978    3.3426   -1.8332 H   0  0  0  0  0  0  0  0  0  0  0  0
   -1.6300    3.0363   -0.4149 H   0  0  0  0  0  0  0  0  0  0  0  0
   -0.7731    4.9669   -2.4838 H   0  0  0  0  0  0  0  0  0  0  0  0
   -2.6331    4.8551    0.7079 H   0  0  0  0  0  0  0  0  0  0  0  0
   -3.6527    7.6574   -0.0302 H   0  0  0  0  0  0  0  0  0  0  0  0
   -3.6529    6.9055    1.6108 H   0  0  0  0  0  0  0  0  0  0  0  0
   -2.0933    7.2436    0.7731 H   0  0  0  0  0  0  0  0  0  0  0  0
   -4.7966    4.1996    0.5136 H   0  0  0  0  0  0  0  0  0  0  0  0
   -6.9835    4.9974    0.8063 H   0  0  0  0  0  0  0  0  0  0  0  0
   -8.5150    6.9528    0.8106 H   0  0  0  0  0  0  0  0  0  0  0  0
   -6.8114    7.4173    1.1515 H   0  0  0  0  0  0  0  0  0  0  0  0
   -7.5249    7.7392   -0.4715 H   0  0  0  0  0  0  0  0  0  0  0  0
   -8.0657    5.6232   -1.9847 H   0  0  0  0  0  0  0  0  0  0  0  0
   -7.8233    2.9794    0.6093 H   0  0  0  0  0  0  0  0  0  0  0  0
   -9.4700    3.1041    2.4779 H   0  0  0  0  0  0  0  0  0  0  0  0
  -10.6497    3.9584    1.4138 H   0  0  0  0  0  0  0  0  0  0  0  0
   -9.0945    4.7498    1.8819 H   0  0  0  0  0  0  0  0  0  0  0  0
  -10.5126    1.8902   -0.2998 H   0  0  0  0  0  0  0  0  0  0  0  0
   -9.0587   -0.9342   -0.7221 H   0  0  0  0  0  0  0  0  0  0  0  0
   -6.7190    1.0651   -0.7791 H   0  0  0  0  0  0  0  0  0  0  0  0
   -8.0635    0.9026   -1.9879 H   0  0  0  0  0  0  0  0  0  0  0  0
   -6.8423   -0.4128   -1.8090 H   0  0  0  0  0  0  0  0  0  0  0  0
   -6.5659   -0.7637    1.0015 H   0  0  0  0  0  0  0  0  0  0  0  0
   -8.8004   -4.2116    1.6584 H   0  0  0  0  0  0  0  0  0  0  0  0
  -10.1242   -3.0233   -0.1163 H   0  0  0  0  0  0  0  0  0  0  0  0
   -9.4723   -4.6243   -0.6173 H   0  0  0  0  0  0  0  0  0  0  0  0
   -8.6905   -3.1291   -1.2199 H   0  0  0  0  0  0  0  0  0  0  0  0
   -6.6194   -4.1021   -0.4201 H   0  0  0  0  0  0  0  0  0  0  0  0
    0.4352    6.2339   -0.0614 H   0  0  0  0  0  0  0  0  0  0  0  0
    2.5232    4.2261    0.9206 H   0  0  0  0  0  0  0  0  0  0  0  0
    1.6913    5.6447    2.7934 H   0  0  0  0  0  0  0  0  0  0  0  0
    2.1695    7.1346    1.8793 H   0  0  0  0  0  0  0  0  0  0  0  0
    3.4285    5.9459    2.4230 H   0  0  0  0  0  0  0  0  0  0  0  0
    4.9704    6.8163   -0.0160 H   0  0  0  0  0  0  0  0  0  0  0  0
    5.6473    5.0263   -1.7345 H   0  0  0  0  0  0  0  0  0  0  0  0
    5.5643    2.6658   -0.9459 H   0  0  0  0  0  0  0  0  0  0  0  0
    3.9128    3.3478   -1.1178 H   0  0  0  0  0  0  0  0  0  0  0  0
    4.6529    3.1662    0.5254 H   0  0  0  0  0  0  0  0  0  0  0  0
    7.9977    4.6444   -1.6510 H   0  0  0  0  0  0  0  0  0  0  0  0
    9.0616    4.0027    1.1130 H   0  0  0  0  0  0  0  0  0  0  0  0
    9.4156    6.4325    0.8810 H   0  0  0  0  0  0  0  0  0  0  0  0
   10.9753    5.5269    0.8541 H   0  0  0  0  0  0  0  0  0  0  0  0
   10.2792    6.1875   -0.6805 H   0  0  0  0  0  0  0  0  0  0  0  0
   10.5180    1.3031   -0.9024 H   0  0  0  0  0  0  0  0  0  0  0  0
    7.7908    2.1821    0.1403 H   0  0  0  0  0  0  0  0  0  0  0  0
    9.0933    1.8307    2.1437 H   0  0  0  0  0  0  0  0  0  0  0  0
    9.7559    0.2796    1.5467 H   0  0  0  0  0  0  0  0  0  0  0  0
    7.9879    0.4320    1.9299 H   0  0  0  0  0  0  0  0  0  0  0  0
    7.0568   -1.4405   -0.1635 H   0  0  0  0  0  0  0  0  0  0  0  0
    9.9626   -1.4934    0.1982 H   0  0  0  0  0  0  0  0  0  0  0  0
    8.9472   -2.1393   -2.6208 H   0  0  0  0  0  0  0  0  0  0  0  0
   10.4772   -2.8258   -1.9532 H   0  0  0  0  0  0  0  0  0  0  0  0
   10.2829   -1.0552   -2.1147 H   0  0  0  0  0  0  0  0  0  0  0  0
    7.6389   -3.8467   -1.6227 H   0  0  0  0  0  0  0  0  0  0  0  0
    7.0389   -4.9652    1.0779 H   0  0  0  0  0  0  0  0  0  0  0  0
    7.5081   -7.2932    0.5220 H   0  0  0  0  0  0  0  0  0  0  0  0
    8.1222   -6.8296   -1.1141 H   0  0  0  0  0  0  0  0  0  0  0  0
    9.0076   -6.3063    0.3805 H   0  0  0  0  0  0  0  0  0  0  0  0
    3.9445   -6.4403   -0.4602 H   0  0  0  0  0  0  0  0  0  0  0  0
    5.0715   -4.9115    1.9158 H   0  0  0  0  0  0  0  0  0  0  0  0
    3.5643   -8.3289    1.0968 H   0  0  0  0  0  0  0  0  0  0  0  0
    4.4354   -9.1324    2.4506 H   0  0  0  0  0  0  0  0  0  0  0  0
    2.3245   -6.1420    1.3825 H   0  0  0  0  0  0  0  0  0  0  0  0
    2.8034   -5.2655    2.8597 H   0  0  0  0  0  0  0  0  0  0  0  0
    1.1238   -5.2562   -0.1405 H   0  0  0  0  0  0  0  0  0  0  0  0
    1.9661   -4.1601   -1.2556 H   0  0  0  0  0  0  0  0  0  0  0  0
  1  2  1  0
  2  3  2  0
  2  4  1  0
  4  5  1  0
  5  6  1  0
  6  7  1  0
  7  8  1  0
  8  9  1  0
  9 10  1  0
 10 11  2  0
 11 12  1  0
 12 13  2  0
 13 14  1  0
 13 15  1  0
 15 16  1  0
 16 17  1  0
 17 18  1  0
 18 19  1  0
 19 20  1  0
 20 21  2  0
 20 22  1  0
 22 23  1  0
 22 24  1  0
 24 25  1  0
 25 26  2  0
 25 27  1  0
 27 28  1  0
 27 29  1  0
 29 30  1  0
 30 31  2  0
 30 32  1  0
 32 33  1  0
 32 34  1  0
 34 35  1  0
 35 36  2  0
 35 37  1  0
 37 38  1  0
 37 39  1  0
 39 40  1  0
 40 41  2  0
 40 42  1  0
 42 43  1  0
 42 44  1  0
 44 45  1  0
 45 46  2  0
 18 47  1  0
 47 48  2  0
 47 49  1  0
 49 50  1  0
 50 51  1  0
 50 52  1  0
 52 53  2  0
 52 54  1  0
 54 55  1  0
 55 56  1  0
 55 57  1  0
 57 58  2  0
 57 59  1  0
 59 60  1  0
 60 61  1  0
 60 62  1  0
 62 63  2  0
 62 64  1  0
 64 65  1  0
 65 66  1  0
 65 67  1  0
 67 68  2  0
 67 69  1  0
 69 70  1  0
 70 71  1  0
 70 72  1  0
 72 73  2  0
 72 74  1  0
 74 75  1  0
 75 76  1  0
 75 77  1  0
 77 78  2  0
 77 79  1  0
 79 80  1  0
 80 81  1  0
 81 82  1  0
 81 83  2  0
 80 84  1  0
 84 85  1  0
 85 86  1  0
 45  5  1  0
 14  9  2  0
 86 11  1  0
  1 87  1  0
  1 88  1  0
  1 89  1  0
  4 90  1  0
  5 91  1  1
  6 92  1  0
  6 93  1  0
  8 94  1  0
  8 95  1  0
 10 96  1  0
 12 97  1  0
 14 98  1  0
 15 99  1  0
 15100  1  0
 17101  1  0
 17102  1  0
 18103  1  1
 19104  1  0
 22105  1  1
 23106  1  0
 23107  1  0
 23108  1  0
 24109  1  0
 27110  1  1
 28111  1  0
 28112  1  0
 28113  1  0
 29114  1  0
 32115  1  1
 33116  1  0
 33117  1  0
 33118  1  0
 34119  1  0
 37120  1  6
 38121  1  0
 38122  1  0
 38123  1  0
 39124  1  0
 42125  1  1
 43126  1  0
 43127  1  0
 43128  1  0
 44129  1  0
 49130  1  0
 50131  1  1
 51132  1  0
 51133  1  0
 51134  1  0
 54135  1  0
 55136  1  6
 56137  1  0
 56138  1  0
 56139  1  0
 59140  1  0
 60141  1  1
 61142  1  0
 61143  1  0
 61144  1  0
 64145  1  0
 65146  1  1
 66147  1  0
 66148  1  0
 66149  1  0
 69150  1  0
 70151  1  1
 71152  1  0
 71153  1  0
 71154  1  0
 74155  1  0
 75156  1  1
 76157  1  0
 76158  1  0
 76159  1  0
 79160  1  0
 80161  1  1
 82162  1  0
 82163  1  0
 84164  1  0
 84165  1  0
 86166  1  0
 86167  1  0
M  END
