
     RDKit          3D

167169  0  0  0  0  0  0  0  0999 V2000
   -8.1906   -7.1724   -1.0644 C   0  0  0  0  0  0  0  0  0  0  0  0
   -7.5757   -5.8190   -1.1918 C   0  0  0  0  0  0  0  0  0  0  0  0
   -7.2550   -5.3837   -2.3307 O   0  0  0  0  0  0  0  0  0  0  0  0
   -7.3477   -5.0264   -0.0189 N   0  0  0  0  0  0  0  0  0  0  0  0
   -6.5856   -3.7745   -0.0408 C   0  0  2  0  0  0  0  0  0  0  0  0
   -5.0931   -4.0955    0.2023 C   0  0  0  0  0  0  0  0  0  0  0  0
   -4.2231   -4.3099   -1.3943 S   0  0  0  0  0  0  0  0  0  0  0  0
   -2.5808   -4.6824   -0.6735 C   0  0  0  0  0  0  0  0  0  0  0  0
   -1.8221   -3.4983   -0.1117 C   0  0  0  0  0  0  0  0  0  0  0  0
   -0.5706   -3.7540    0.4657 C   0  0  0  0  0  0  0  0  0  0  0  0
    0.1803   -2.7271    1.0527 C   0  0  0  0  0  0  0  0  0  0  0  0
   -0.3228   -1.4242    1.0627 C   0  0  0  0  0  0  0  0  0  0  0  0
   -1.5552   -1.1392    0.4579 C   0  0  0  0  0  0  0  0  0  0  0  0
   -2.2983   -2.1730   -0.1354 C   0  0  0  0  0  0  0  0  0  0  0  0
   -2.0615    0.2790    0.4214 C   0  0  0  0  0  0  0  0  0  0  0  0
   -2.1964    0.9015   -1.2948 S   0  0  0  0  0  0  0  0  0  0  0  0
   -0.3970    1.0082   -1.6427 C   0  0  0  0  0  0  0  0  0  0  0  0
    0.1666    2.4183   -1.3720 C   0  0  2  0  0  0  0  0  0  0  0  0
   -0.5098    3.3860   -2.2451 N   0  0  0  0  0  0  0  0  0  0  0  0
   -1.4818    4.3823   -1.8568 C   0  0  0  0  0  0  0  0  0  0  0  0
   -1.8079    5.2579   -2.7065 O   0  0  0  0  0  0  0  0  0  0  0  0
   -2.1910    4.3955   -0.5166 C   0  0  1  0  0  0  0  0  0  0  0  0
   -1.8478    5.6931    0.2328 C   0  0  0  0  0  0  0  0  0  0  0  0
   -3.6373    4.2297   -0.7399 N   0  0  0  0  0  0  0  0  0  0  0  0
   -4.6684    5.0297   -0.1455 C   0  0  0  0  0  0  0  0  0  0  0  0
   -5.4181    5.7160   -0.8945 O   0  0  0  0  0  0  0  0  0  0  0  0
   -4.9880    4.9177    1.3241 C   0  0  1  0  0  0  0  0  0  0  0  0
   -4.9564    6.3074    1.9818 C   0  0  0  0  0  0  0  0  0  0  0  0
   -6.3195    4.3232    1.4886 N   0  0  0  0  0  0  0  0  0  0  0  0
   -6.6064    2.9668    1.0963 C   0  0  0  0  0  0  0  0  0  0  0  0
   -5.6762    2.1159    1.0998 O   0  0  0  0  0  0  0  0  0  0  0  0
   -7.9834    2.5343    0.6215 C   0  0  1  0  0  0  0  0  0  0  0  0
   -9.0428    3.6411    0.7289 C   0  0  0  0  0  0  0  0  0  0  0  0
   -7.8824    2.1073   -0.7765 N   0  0  0  0  0  0  0  0  0  0  0  0
   -8.2502    0.8231   -1.3131 C   0  0  0  0  0  0  0  0  0  0  0  0
   -7.9087    0.5715   -2.5019 O   0  0  0  0  0  0  0  0  0  0  0  0
   -9.1117   -0.1856   -0.5595 C   0  0  1  0  0  0  0  0  0  0  0  0
  -10.5519    0.3336   -0.4552 C   0  0  0  0  0  0  0  0  0  0  0  0
   -9.1206   -1.4930   -1.2362 N   0  0  0  0  0  0  0  0  0  0  0  0
   -9.5481   -2.7227   -0.6237 C   0  0  0  0  0  0  0  0  0  0  0  0
   -9.7792   -3.7124   -1.3718 O   0  0  0  0  0  0  0  0  0  0  0  0
   -9.6973   -2.8721    0.8853 C   0  0  1  0  0  0  0  0  0  0  0  0
  -10.5729   -4.0773    1.2504 C   0  0  0  0  0  0  0  0  0  0  0  0
   -8.4122   -2.9772    1.5927 N   0  0  0  0  0  0  0  0  0  0  0  0
   -7.1241   -2.8018    0.9893 C   0  0  0  0  0  0  0  0  0  0  0  0
   -6.4462   -1.7867    1.3043 O   0  0  0  0  0  0  0  0  0  0  0  0
    1.6608    2.4681   -1.6441 C   0  0  0  0  0  0  0  0  0  0  0  0
    2.2845    1.4117   -1.9469 O   0  0  0  0  0  0  0  0  0  0  0  0
    2.3887    3.7031   -1.6072 N   0  0  0  0  0  0  0  0  0  0  0  0
    2.1101    4.7769   -0.6496 C   0  0  2  0  0  0  0  0  0  0  0  0
    2.0955    6.1298   -1.3694 C   0  0  0  0  0  0  0  0  0  0  0  0
    3.1387    4.7522    0.4520 C   0  0  0  0  0  0  0  0  0  0  0  0
    2.7568    4.7930    1.6538 O   0  0  0  0  0  0  0  0  0  0  0  0
    4.5388    4.7112    0.1365 N   0  0  0  0  0  0  0  0  0  0  0  0
    5.5420    3.8466    0.7807 C   0  0  2  0  0  0  0  0  0  0  0  0
    4.9591    2.9098    1.8517 C   0  0  0  0  0  0  0  0  0  0  0  0
    6.6355    4.7014    1.3739 C   0  0  0  0  0  0  0  0  0  0  0  0
    6.3355    5.4834    2.3188 O   0  0  0  0  0  0  0  0  0  0  0  0
    8.0100    4.6489    0.9393 N   0  0  0  0  0  0  0  0  0  0  0  0
    8.5281    4.0962   -0.3188 C   0  0  2  0  0  0  0  0  0  0  0  0
    7.8816    4.7596   -1.5425 C   0  0  0  0  0  0  0  0  0  0  0  0
    8.4630    2.5860   -0.3373 C   0  0  0  0  0  0  0  0  0  0  0  0
    8.0754    1.9746   -1.3735 O   0  0  0  0  0  0  0  0  0  0  0  0
    8.9137    1.8362    0.7954 N   0  0  0  0  0  0  0  0  0  0  0  0
   10.1501    1.0489    0.7698 C   0  0  2  0  0  0  0  0  0  0  0  0
   11.3638    1.9820    0.6899 C   0  0  0  0  0  0  0  0  0  0  0  0
   10.1271    0.0333   -0.3588 C   0  0  0  0  0  0  0  0  0  0  0  0
   10.8445    0.2177   -1.3782 O   0  0  0  0  0  0  0  0  0  0  0  0
    9.2771   -1.1265   -0.3214 N   0  0  0  0  0  0  0  0  0  0  0  0
    8.6010   -1.6184    0.8821 C   0  0  2  0  0  0  0  0  0  0  0  0
    9.5639   -2.4921    1.6954 C   0  0  0  0  0  0  0  0  0  0  0  0
    7.3262   -2.3297    0.4985 C   0  0  0  0  0  0  0  0  0  0  0  0
    6.4461   -1.6909   -0.1421 O   0  0  0  0  0  0  0  0  0  0  0  0
    7.0161   -3.6534    0.9514 N   0  0  0  0  0  0  0  0  0  0  0  0
    7.5941   -4.8795    0.3821 C   0  0  2  0  0  0  0  0  0  0  0  0
    7.9471   -4.7454   -1.1076 C   0  0  0  0  0  0  0  0  0  0  0  0
    6.6768   -6.0649    0.6154 C   0  0  0  0  0  0  0  0  0  0  0  0
    7.1093   -7.0204    1.3166 O   0  0  0  0  0  0  0  0  0  0  0  0
    5.3602   -6.1806    0.0358 N   0  0  0  0  0  0  0  0  0  0  0  0
    4.5330   -5.0635   -0.4330 C   0  0  1  0  0  0  0  0  0  0  0  0
    3.8028   -5.4581   -1.6933 C   0  0  0  0  0  0  0  0  0  0  0  0
    2.8804   -6.5495   -1.7021 N   0  0  0  0  0  0  0  0  0  0  0  0
    3.9888   -4.7963   -2.7496 O   0  0  0  0  0  0  0  0  0  0  0  0
    3.5490   -4.6336    0.6653 C   0  0  0  0  0  0  0  0  0  0  0  0
    2.7229   -3.0751    0.1904 S   0  0  0  0  0  0  0  0  0  0  0  0
    1.5520   -3.0212    1.5895 C   0  0  0  0  0  0  0  0  0  0  0  0
   -7.5476   -7.8126   -0.4231 H   0  0  0  0  0  0  0  0  0  0  0  0
   -8.3001   -7.6505   -2.0587 H   0  0  0  0  0  0  0  0  0  0  0  0
   -9.1926   -7.0809   -0.5965 H   0  0  0  0  0  0  0  0  0  0  0  0
   -7.5543   -5.4620    0.9092 H   0  0  0  0  0  0  0  0  0  0  0  0
   -6.7032   -3.2711   -1.0252 H   0  0  0  0  0  0  0  0  0  0  0  0
   -4.5894   -3.2832    0.7652 H   0  0  0  0  0  0  0  0  0  0  0  0
   -4.9926   -5.0187    0.8173 H   0  0  0  0  0  0  0  0  0  0  0  0
   -2.7040   -5.4482    0.1272 H   0  0  0  0  0  0  0  0  0  0  0  0
   -1.9677   -5.1416   -1.4772 H   0  0  0  0  0  0  0  0  0  0  0  0
   -0.1829   -4.7656    0.4705 H   0  0  0  0  0  0  0  0  0  0  0  0
    0.2588   -0.6280    1.5106 H   0  0  0  0  0  0  0  0  0  0  0  0
   -3.2426   -1.9259   -0.5942 H   0  0  0  0  0  0  0  0  0  0  0  0
   -1.4183    0.9612    1.0135 H   0  0  0  0  0  0  0  0  0  0  0  0
   -3.0719    0.3098    0.8757 H   0  0  0  0  0  0  0  0  0  0  0  0
    0.1699    0.2582   -1.0555 H   0  0  0  0  0  0  0  0  0  0  0  0
   -0.2498    0.7532   -2.7127 H   0  0  0  0  0  0  0  0  0  0  0  0
    0.0207    2.6545   -0.3043 H   0  0  0  0  0  0  0  0  0  0  0  0
   -0.2682    3.3474   -3.2645 H   0  0  0  0  0  0  0  0  0  0  0  0
   -1.8619    3.5490    0.1125 H   0  0  0  0  0  0  0  0  0  0  0  0
   -2.1392    5.6034    1.3000 H   0  0  0  0  0  0  0  0  0  0  0  0
   -0.7586    5.8890    0.2139 H   0  0  0  0  0  0  0  0  0  0  0  0
   -2.3625    6.5650   -0.2279 H   0  0  0  0  0  0  0  0  0  0  0  0
   -3.9444    3.5365   -1.4569 H   0  0  0  0  0  0  0  0  0  0  0  0
   -4.2348    4.2771    1.8300 H   0  0  0  0  0  0  0  0  0  0  0  0
   -5.0799    6.2058    3.0825 H   0  0  0  0  0  0  0  0  0  0  0  0
   -5.7876    6.9377    1.5944 H   0  0  0  0  0  0  0  0  0  0  0  0
   -4.0033    6.8400    1.7806 H   0  0  0  0  0  0  0  0  0  0  0  0
   -7.1054    4.9544    1.7607 H   0  0  0  0  0  0  0  0  0  0  0  0
   -8.3082    1.6960    1.2717 H   0  0  0  0  0  0  0  0  0  0  0  0
  -10.0126    3.2988    0.3193 H   0  0  0  0  0  0  0  0  0  0  0  0
   -8.7348    4.5357    0.1455 H   0  0  0  0  0  0  0  0  0  0  0  0
   -9.2015    3.9206    1.7926 H   0  0  0  0  0  0  0  0  0  0  0  0
   -7.4687    2.7941   -1.4470 H   0  0  0  0  0  0  0  0  0  0  0  0
   -8.6889   -0.3161    0.4567 H   0  0  0  0  0  0  0  0  0  0  0  0
  -10.6219    1.1301    0.3083 H   0  0  0  0  0  0  0  0  0  0  0  0
  -11.2458   -0.4753   -0.1492 H   0  0  0  0  0  0  0  0  0  0  0  0
  -10.9009    0.7217   -1.4370 H   0  0  0  0  0  0  0  0  0  0  0  0
   -8.9978   -1.5273   -2.2759 H   0  0  0  0  0  0  0  0  0  0  0  0
  -10.2258   -1.9783    1.2729 H   0  0  0  0  0  0  0  0  0  0  0  0
  -10.0812   -5.0259    0.9481 H   0  0  0  0  0  0  0  0  0  0  0  0
  -10.7401   -4.1049    2.3453 H   0  0  0  0  0  0  0  0  0  0  0  0
  -11.5628   -4.0045    0.7461 H   0  0  0  0  0  0  0  0  0  0  0  0
   -8.4481   -2.8979    2.6352 H   0  0  0  0  0  0  0  0  0  0  0  0
    3.2909    3.7418   -2.1339 H   0  0  0  0  0  0  0  0  0  0  0  0
    1.1102    4.6356   -0.1974 H   0  0  0  0  0  0  0  0  0  0  0  0
    1.4154    6.0795   -2.2424 H   0  0  0  0  0  0  0  0  0  0  0  0
    1.7214    6.9171   -0.6830 H   0  0  0  0  0  0  0  0  0  0  0  0
    3.1061    6.4084   -1.7300 H   0  0  0  0  0  0  0  0  0  0  0  0
    4.8515    5.2220   -0.7197 H   0  0  0  0  0  0  0  0  0  0  0  0
    5.9503    3.1823   -0.0030 H   0  0  0  0  0  0  0  0  0  0  0  0
    4.5795    3.4782    2.7280 H   0  0  0  0  0  0  0  0  0  0  0  0
    5.7477    2.2158    2.2131 H   0  0  0  0  0  0  0  0  0  0  0  0
    4.1350    2.2990    1.4205 H   0  0  0  0  0  0  0  0  0  0  0  0
    8.7017    5.1576    1.5361 H   0  0  0  0  0  0  0  0  0  0  0  0
    9.6103    4.3510   -0.3688 H   0  0  0  0  0  0  0  0  0  0  0  0
    6.8447    4.4046   -1.7084 H   0  0  0  0  0  0  0  0  0  0  0  0
    8.4710    4.5256   -2.4551 H   0  0  0  0  0  0  0  0  0  0  0  0
    7.8619    5.8633   -1.4148 H   0  0  0  0  0  0  0  0  0  0  0  0
    8.5162    2.0833    1.7309 H   0  0  0  0  0  0  0  0  0  0  0  0
   10.2426    0.5043    1.7369 H   0  0  0  0  0  0  0  0  0  0  0  0
   12.3049    1.3983    0.7674 H   0  0  0  0  0  0  0  0  0  0  0  0
   11.3635    2.5434   -0.2684 H   0  0  0  0  0  0  0  0  0  0  0  0
   11.3356    2.7152    1.5245 H   0  0  0  0  0  0  0  0  0  0  0  0
    9.2606   -1.7284   -1.1770 H   0  0  0  0  0  0  0  0  0  0  0  0
    8.2928   -0.7639    1.5181 H   0  0  0  0  0  0  0  0  0  0  0  0
    9.9893   -3.2984    1.0626 H   0  0  0  0  0  0  0  0  0  0  0  0
    9.0475   -2.9348    2.5718 H   0  0  0  0  0  0  0  0  0  0  0  0
   10.4074   -1.8737    2.0716 H   0  0  0  0  0  0  0  0  0  0  0  0
    6.3014   -3.7332    1.7107 H   0  0  0  0  0  0  0  0  0  0  0  0
    8.5450   -5.0897    0.9192 H   0  0  0  0  0  0  0  0  0  0  0  0
    8.2360   -5.7341   -1.5299 H   0  0  0  0  0  0  0  0  0  0  0  0
    7.1049   -4.3391   -1.7039 H   0  0  0  0  0  0  0  0  0  0  0  0
    8.8167   -4.0693   -1.2297 H   0  0  0  0  0  0  0  0  0  0  0  0
    4.8871   -7.1043    0.1622 H   0  0  0  0  0  0  0  0  0  0  0  0
    5.1673   -4.1905   -0.6687 H   0  0  0  0  0  0  0  0  0  0  0  0
    2.3236   -6.7581   -2.5607 H   0  0  0  0  0  0  0  0  0  0  0  0
    2.7237   -7.1370   -0.8560 H   0  0  0  0  0  0  0  0  0  0  0  0
    2.7981   -5.4303    0.8442 H   0  0  0  0  0  0  0  0  0  0  0  0
    4.1002   -4.4581    1.6108 H   0  0  0  0  0  0  0  0  0  0  0  0
    1.8819   -2.2308    2.2948 H   0  0  0  0  0  0  0  0  0  0  0  0
    1.5277   -3.9748    2.1630 H   0  0  0  0  0  0  0  0  0  0  0  0
  1  2  1  0
  2  3  2  0
  2  4  1  0
  4  5  1  0
  5  6  1  0
  6  7  1  0
  7  8  1  0
  8  9  1  0
  9 10  1  0
 10 11  2  0
 11 12  1  0
 12 13  2  0
 13 14  1  0
 13 15  1  0
 15 16  1  0
 16 17  1  0
 17 18  1  0
 18 19  1  0
 19 20  1  0
 20 21  2  0
 20 22  1  0
 22 23  1  0
 22 24  1  0
 24 25  1  0
 25 26  2  0
 25 27  1  0
 27 28  1  0
 27 29  1  0
 29 30  1  0
 30 31  2  0
 30 32  1  0
 32 33  1  0
 32 34  1  0
 34 35  1  0
 35 36  2  0
 35 37  1  0
 37 38  1  0
 37 39  1  0
 39 40  1  0
 40 41  2  0
 40 42  1  0
 42 43  1  0
 42 44  1  0
 44 45  1  0
 45 46  2  0
 18 47  1  0
 47 48  2  0
 47 49  1  0
 49 50  1  0
 50 51  1  0
 50 52  1  0
 52 53  2  0
 52 54  1  0
 54 55  1  0
 55 56  1  0
 55 57  1  0
 57 58  2  0
 57 59  1  0
 59 60  1  0
 60 61  1  0
 60 62  1  0
 62 63  2  0
 62 64  1  0
 64 65  1  0
 65 66  1  0
 65 67  1  0
 67 68  2  0
 67 69  1  0
 69 70  1  0
 70 71  1  0
 70 72  1  0
 72 73  2  0
 72 74  1  0
 74 75  1  0
 75 76  1  0
 75 77  1  0
 77 78  2  0
 77 79  1  0
 79 80  1  0
 80 81  1  0
 81 82  1  0
 81 83  2  0
 80 84  1  0
 84 85  1  0
 85 86  1  0
 45  5  1  0
 14  9  2  0
 86 11  1  0
  1 87  1  0
  1 88  1  0
  1 89  1  0
  4 90  1  0
  5 91  1  6
  6 92  1  0
  6 93  1  0
  8 94  1  0
  8 95  1  0
 10 96  1  0
 12 97  1  0
 14 98  1  0
 15 99  1  0
 15100  1  0
 17101  1  0
 17102  1  0
 18103  1  1
 19104  1  0
 22105  1  1
 23106  1  0
 23107  1  0
 23108  1  0
 24109  1  0
 27110  1  1
 28111  1  0
 28112  1  0
 28113  1  0
 29114  1  0
 32115  1  1
 33116  1  0
 33117  1  0
 33118  1  0
 34119  1  0
 37120  1  1
 38121  1  0
 38122  1  0
 38123  1  0
 39124  1  0
 42125  1  1
 43126  1  0
 43127  1  0
 43128  1  0
 44129  1  0
 49130  1  0
 50131  1  1
 51132  1  0
 51133  1  0
 51134  1  0
 54135  1  0
 55136  1  6
 56137  1  0
 56138  1  0
 56139  1  0
 59140  1  0
 60141  1  6
 61142  1  0
 61143  1  0
 61144  1  0
 64145  1  0
 65146  1  1
 66147  1  0
 66148  1  0
 66149  1  0
 69150  1  0
 70151  1  1
 71152  1  0
 71153  1  0
 71154  1  0
 74155  1  0
 75156  1  1
 76157  1  0
 76158  1  0
 76159  1  0
 79160  1  0
 80161  1  6
 82162  1  0
 82163  1  0
 84164  1  0
 84165  1  0
 86166  1  0
 86167  1  0
M  END
