
     RDKit          3D

177179  0  0  0  0  0  0  0  0999 V2000
   -6.8099    8.3049   -0.7964 C   0  0  0  0  0  0  0  0  0  0  0  0
   -7.2759    7.0204   -0.1958 C   0  0  0  0  0  0  0  0  0  0  0  0
   -8.1702    7.0472    0.6911 O   0  0  0  0  0  0  0  0  0  0  0  0
   -6.6951    5.7755   -0.6133 N   0  0  0  0  0  0  0  0  0  0  0  0
   -7.2697    4.4654   -0.2818 C   0  0  2  0  0  0  0  0  0  0  0  0
   -6.2068    3.5581    0.3634 C   0  0  0  0  0  0  0  0  0  0  0  0
   -4.7092    3.3229   -0.6734 S   0  0  0  0  0  0  0  0  0  0  0  0
   -3.7169    2.5414    0.6400 C   0  0  0  0  0  0  0  0  0  0  0  0
   -2.3485    2.2135    0.1164 C   0  0  0  0  0  0  0  0  0  0  0  0
   -1.2970    3.1377    0.2496 C   0  0  0  0  0  0  0  0  0  0  0  0
   -0.0062    2.8263   -0.2102 C   0  0  0  0  0  0  0  0  0  0  0  0
    0.2140    1.5910   -0.8394 C   0  0  0  0  0  0  0  0  0  0  0  0
   -0.8261    0.6498   -0.9641 C   0  0  0  0  0  0  0  0  0  0  0  0
   -2.1100    0.9748   -0.4957 C   0  0  0  0  0  0  0  0  0  0  0  0
   -0.5887   -0.6779   -1.6424 C   0  0  0  0  0  0  0  0  0  0  0  0
    0.9687   -1.4733   -1.1036 S   0  0  0  0  0  0  0  0  0  0  0  0
    0.5276   -1.7308    0.6526 C   0  0  0  0  0  0  0  0  0  0  0  0
   -0.5542   -2.8217    0.8326 C   0  0  2  0  0  0  0  0  0  0  0  0
   -1.8414   -2.2252    1.2228 N   0  0  0  0  0  0  0  0  0  0  0  0
   -3.0914   -2.9302    1.1227 C   0  0  0  0  0  0  0  0  0  0  0  0
   -3.9500   -2.7599    2.0300 O   0  0  0  0  0  0  0  0  0  0  0  0
   -3.4029   -3.8708   -0.0241 C   0  0  1  0  0  0  0  0  0  0  0  0
   -2.9073   -5.2907    0.3155 C   0  0  0  0  0  0  0  0  0  0  0  0
   -4.8507   -3.8601   -0.2926 N   0  0  0  0  0  0  0  0  0  0  0  0
   -5.5601   -4.9920   -0.8024 C   0  0  0  0  0  0  0  0  0  0  0  0
   -5.2668   -5.4506   -1.9404 O   0  0  0  0  0  0  0  0  0  0  0  0
   -6.6593   -5.6390    0.0047 C   0  0  1  0  0  0  0  0  0  0  0  0
   -6.6182   -5.2462    1.4826 C   0  0  0  0  0  0  0  0  0  0  0  0
   -7.9849   -5.3476   -0.5534 N   0  0  0  0  0  0  0  0  0  0  0  0
   -8.3586   -4.0528   -1.0415 C   0  0  0  0  0  0  0  0  0  0  0  0
   -7.8942   -3.6466   -2.1483 O   0  0  0  0  0  0  0  0  0  0  0  0
   -9.3588   -3.1855   -0.3140 C   0  0  1  0  0  0  0  0  0  0  0  0
  -10.0502   -3.9013    0.8454 C   0  0  0  0  0  0  0  0  0  0  0  0
   -8.6895   -1.9799    0.1780 N   0  0  0  0  0  0  0  0  0  0  0  0
   -8.6938   -0.7700   -0.5845 C   0  0  0  0  0  0  0  0  0  0  0  0
   -7.7182   -0.5128   -1.3411 O   0  0  0  0  0  0  0  0  0  0  0  0
   -9.7602    0.2774   -0.3852 C   0  0  1  0  0  0  0  0  0  0  0  0
  -11.1173   -0.3207   -0.0005 C   0  0  0  0  0  0  0  0  0  0  0  0
   -9.3320    1.2253    0.6517 N   0  0  0  0  0  0  0  0  0  0  0  0
   -9.7480    2.6014    0.6992 C   0  0  0  0  0  0  0  0  0  0  0  0
   -9.6979    3.2087    1.8027 O   0  0  0  0  0  0  0  0  0  0  0  0
  -10.2489    3.3198   -0.5374 C   0  0  1  0  0  0  0  0  0  0  0  0
  -10.8315    4.7148   -0.2582 C   0  0  0  0  0  0  0  0  0  0  0  0
   -9.2313    3.3681   -1.6007 N   0  0  0  0  0  0  0  0  0  0  0  0
   -7.8691    3.8301   -1.5138 C   0  0  0  0  0  0  0  0  0  0  0  0
   -7.1332    3.7020   -2.5330 O   0  0  0  0  0  0  0  0  0  0  0  0
   -0.1272   -3.8405    1.8778 C   0  0  0  0  0  0  0  0  0  0  0  0
   -0.5774   -3.7426    3.0496 O   0  0  0  0  0  0  0  0  0  0  0  0
    0.7352   -4.9500    1.5623 N   0  0  0  0  0  0  0  0  0  0  0  0
    1.5020   -5.0906    0.3169 C   0  0  2  0  0  0  0  0  0  0  0  0
    1.1090   -6.3950   -0.3949 C   0  0  0  0  0  0  0  0  0  0  0  0
    2.9706   -5.0206    0.6270 C   0  0  0  0  0  0  0  0  0  0  0  0
    3.4904   -3.9086    0.9336 O   0  0  0  0  0  0  0  0  0  0  0  0
    3.7816   -6.1932    0.5887 N   0  0  0  0  0  0  0  0  0  0  0  0
    4.9369   -6.2767   -0.2981 C   0  0  2  0  0  0  0  0  0  0  0  0
    5.1257   -7.7253   -0.7640 C   0  0  0  0  0  0  0  0  0  0  0  0
    6.1581   -5.7518    0.4034 C   0  0  0  0  0  0  0  0  0  0  0  0
    6.6198   -6.3691    1.4034 O   0  0  0  0  0  0  0  0  0  0  0  0
    6.7203   -4.4835    0.0472 N   0  0  0  0  0  0  0  0  0  0  0  0
    7.7131   -4.2966   -1.0155 C   0  0  2  0  0  0  0  0  0  0  0  0
    7.3957   -5.1108   -2.2716 C   0  0  0  0  0  0  0  0  0  0  0  0
    9.0940   -4.6370   -0.5159 C   0  0  0  0  0  0  0  0  0  0  0  0
    9.2951   -5.7055    0.1238 O   0  0  0  0  0  0  0  0  0  0  0  0
   10.2097   -3.8163   -0.8817 N   0  0  0  0  0  0  0  0  0  0  0  0
   10.6329   -2.6410   -0.1105 C   0  0  2  0  0  0  0  0  0  0  0  0
   11.4424   -3.0793    1.1164 C   0  0  0  0  0  0  0  0  0  0  0  0
    9.4681   -1.7631    0.2714 C   0  0  0  0  0  0  0  0  0  0  0  0
    8.7623   -2.0346    1.2841 O   0  0  0  0  0  0  0  0  0  0  0  0
    9.1383   -0.6327   -0.5436 N   0  0  0  0  0  0  0  0  0  0  0  0
    9.5342    0.7388   -0.2093 C   0  0  2  0  0  0  0  0  0  0  0  0
   10.8924    0.7927    0.4994 C   0  0  0  0  0  0  0  0  0  0  0  0
    8.4575    1.4007    0.6087 C   0  0  0  0  0  0  0  0  0  0  0  0
    8.2143    0.9948    1.7732 O   0  0  0  0  0  0  0  0  0  0  0  0
    7.5992    2.3861    0.0142 N   0  0  0  0  0  0  0  0  0  0  0  0
    7.8983    3.8250   -0.0634 C   0  0  2  0  0  0  0  0  0  0  0  0
    9.3979    4.1196   -0.1298 C   0  0  0  0  0  0  0  0  0  0  0  0
    7.2935    4.5484    1.1171 C   0  0  0  0  0  0  0  0  0  0  0  0
    7.3916    4.0273    2.2667 O   0  0  0  0  0  0  0  0  0  0  0  0
    6.7172    5.8623    1.0068 N   0  0  0  0  0  0  0  0  0  0  0  0
    6.3656    6.5134   -0.2624 C   0  0  2  0  0  0  0  0  0  0  0  0
    6.1417    8.0207   -0.0756 C   0  0  0  0  0  0  0  0  0  0  0  0
    5.1593    5.8665   -0.9176 C   0  0  0  0  0  0  0  0  0  0  0  0
    5.3209    5.3293   -2.0480 O   0  0  0  0  0  0  0  0  0  0  0  0
    3.8326    5.8854   -0.3550 N   0  0  0  0  0  0  0  0  0  0  0  0
    3.4900    6.0790    1.0616 C   0  0  1  0  0  0  0  0  0  0  0  0
    2.4548    7.1680    1.2201 C   0  0  0  0  0  0  0  0  0  0  0  0
    2.1120    7.6444    2.5188 N   0  0  0  0  0  0  0  0  0  0  0  0
    1.9210    7.7009    0.2027 O   0  0  0  0  0  0  0  0  0  0  0  0
    3.0680    4.7383    1.7035 C   0  0  0  0  0  0  0  0  0  0  0  0
    1.2678    4.3763    1.6704 S   0  0  0  0  0  0  0  0  0  0  0  0
    1.1185    3.8234   -0.0635 C   0  0  0  0  0  0  0  0  0  0  0  0
   -6.3732    8.9474   -0.0010 H   0  0  0  0  0  0  0  0  0  0  0  0
   -7.6771    8.8245   -1.2541 H   0  0  0  0  0  0  0  0  0  0  0  0
   -6.0509    8.1236   -1.5828 H   0  0  0  0  0  0  0  0  0  0  0  0
   -5.8915    5.8102   -1.2836 H   0  0  0  0  0  0  0  0  0  0  0  0
   -8.0490    4.6068    0.4881 H   0  0  0  0  0  0  0  0  0  0  0  0
   -6.6511    2.5609    0.5757 H   0  0  0  0  0  0  0  0  0  0  0  0
   -5.9107    4.0065    1.3357 H   0  0  0  0  0  0  0  0  0  0  0  0
   -4.2362    1.6213    0.9917 H   0  0  0  0  0  0  0  0  0  0  0  0
   -3.6333    3.2441    1.5003 H   0  0  0  0  0  0  0  0  0  0  0  0
   -1.4866    4.1010    0.7167 H   0  0  0  0  0  0  0  0  0  0  0  0
    1.2031    1.3495   -1.2068 H   0  0  0  0  0  0  0  0  0  0  0  0
   -2.9201    0.2578   -0.5880 H   0  0  0  0  0  0  0  0  0  0  0  0
   -1.4284   -1.3787   -1.4515 H   0  0  0  0  0  0  0  0  0  0  0  0
   -0.5310   -0.5114   -2.7391 H   0  0  0  0  0  0  0  0  0  0  0  0
    1.4676   -2.0262    1.1699 H   0  0  0  0  0  0  0  0  0  0  0  0
    0.2243   -0.7679    1.1175 H   0  0  0  0  0  0  0  0  0  0  0  0
   -0.7003   -3.3500   -0.1316 H   0  0  0  0  0  0  0  0  0  0  0  0
   -1.8137   -1.4475    1.9159 H   0  0  0  0  0  0  0  0  0  0  0  0
   -2.8833   -3.5090   -0.9387 H   0  0  0  0  0  0  0  0  0  0  0  0
   -1.8151   -5.3008    0.4552 H   0  0  0  0  0  0  0  0  0  0  0  0
   -3.1140   -5.9971   -0.5186 H   0  0  0  0  0  0  0  0  0  0  0  0
   -3.3839   -5.6705    1.2443 H   0  0  0  0  0  0  0  0  0  0  0  0
   -5.4084   -2.9964   -0.0996 H   0  0  0  0  0  0  0  0  0  0  0  0
   -6.4949   -6.7368   -0.0430 H   0  0  0  0  0  0  0  0  0  0  0  0
   -6.7743   -4.1554    1.6039 H   0  0  0  0  0  0  0  0  0  0  0  0
   -7.4197   -5.7891    2.0369 H   0  0  0  0  0  0  0  0  0  0  0  0
   -5.6463   -5.5236    1.9354 H   0  0  0  0  0  0  0  0  0  0  0  0
   -8.7186   -6.0917   -0.5021 H   0  0  0  0  0  0  0  0  0  0  0  0
  -10.1405   -2.9110   -1.0530 H   0  0  0  0  0  0  0  0  0  0  0  0
  -10.8556   -3.2589    1.2547 H   0  0  0  0  0  0  0  0  0  0  0  0
   -9.3238   -4.1126    1.6615 H   0  0  0  0  0  0  0  0  0  0  0  0
  -10.5109   -4.8570    0.5041 H   0  0  0  0  0  0  0  0  0  0  0  0
   -7.9210   -2.0968    0.8808 H   0  0  0  0  0  0  0  0  0  0  0  0
   -9.8843    0.7991   -1.3532 H   0  0  0  0  0  0  0  0  0  0  0  0
  -11.8668    0.4899    0.1093 H   0  0  0  0  0  0  0  0  0  0  0  0
  -11.4737   -1.0084   -0.7947 H   0  0  0  0  0  0  0  0  0  0  0  0
  -11.0377   -0.8657    0.9599 H   0  0  0  0  0  0  0  0  0  0  0  0
   -8.8942    0.8311    1.5168 H   0  0  0  0  0  0  0  0  0  0  0  0
  -11.1116    2.7325   -0.9209 H   0  0  0  0  0  0  0  0  0  0  0  0
  -10.1046    5.3775    0.2473 H   0  0  0  0  0  0  0  0  0  0  0  0
  -11.1431    5.1917   -1.2129 H   0  0  0  0  0  0  0  0  0  0  0  0
  -11.7306    4.6240    0.3878 H   0  0  0  0  0  0  0  0  0  0  0  0
   -9.5180    2.9587   -2.5192 H   0  0  0  0  0  0  0  0  0  0  0  0
    0.8758   -5.6773    2.3026 H   0  0  0  0  0  0  0  0  0  0  0  0
    1.2797   -4.2746   -0.3917 H   0  0  0  0  0  0  0  0  0  0  0  0
    1.2410   -7.2691    0.2764 H   0  0  0  0  0  0  0  0  0  0  0  0
    1.7349   -6.5319   -1.3038 H   0  0  0  0  0  0  0  0  0  0  0  0
    0.0488   -6.3496   -0.7153 H   0  0  0  0  0  0  0  0  0  0  0  0
    3.4976   -7.0311    1.1539 H   0  0  0  0  0  0  0  0  0  0  0  0
    4.7365   -5.6555   -1.1978 H   0  0  0  0  0  0  0  0  0  0  0  0
    4.2044   -8.0676   -1.2836 H   0  0  0  0  0  0  0  0  0  0  0  0
    5.9738   -7.8080   -1.4662 H   0  0  0  0  0  0  0  0  0  0  0  0
    5.3126   -8.3949    0.1037 H   0  0  0  0  0  0  0  0  0  0  0  0
    6.7265   -3.7621    0.8070 H   0  0  0  0  0  0  0  0  0  0  0  0
    7.6994   -3.2299   -1.3199 H   0  0  0  0  0  0  0  0  0  0  0  0
    8.1208   -4.8569   -3.0743 H   0  0  0  0  0  0  0  0  0  0  0  0
    6.3795   -4.8642   -2.6457 H   0  0  0  0  0  0  0  0  0  0  0  0
    7.4782   -6.1961   -2.0693 H   0  0  0  0  0  0  0  0  0  0  0  0
   10.9424   -4.2721   -1.4677 H   0  0  0  0  0  0  0  0  0  0  0  0
   11.3112   -2.0449   -0.7597 H   0  0  0  0  0  0  0  0  0  0  0  0
   10.8331   -3.7267    1.7813 H   0  0  0  0  0  0  0  0  0  0  0  0
   12.3418   -3.6427    0.7883 H   0  0  0  0  0  0  0  0  0  0  0  0
   11.7778   -2.1885    1.6879 H   0  0  0  0  0  0  0  0  0  0  0  0
    8.3424   -0.7481   -1.2123 H   0  0  0  0  0  0  0  0  0  0  0  0
    9.6381    1.2939   -1.1668 H   0  0  0  0  0  0  0  0  0  0  0  0
   11.6618    0.2912   -0.1245 H   0  0  0  0  0  0  0  0  0  0  0  0
   10.8471    0.2925    1.4909 H   0  0  0  0  0  0  0  0  0  0  0  0
   11.2099    1.8464    0.6462 H   0  0  0  0  0  0  0  0  0  0  0  0
    6.6086    2.1024   -0.1605 H   0  0  0  0  0  0  0  0  0  0  0  0
    7.4531    4.1922   -1.0058 H   0  0  0  0  0  0  0  0  0  0  0  0
    9.8605    3.6100   -1.0025 H   0  0  0  0  0  0  0  0  0  0  0  0
    9.9064    3.8037    0.8049 H   0  0  0  0  0  0  0  0  0  0  0  0
    9.5593    5.2132   -0.2577 H   0  0  0  0  0  0  0  0  0  0  0  0
    6.6282    6.4056    1.8983 H   0  0  0  0  0  0  0  0  0  0  0  0
    7.2373    6.4340   -0.9412 H   0  0  0  0  0  0  0  0  0  0  0  0
    5.9501    8.5024   -1.0579 H   0  0  0  0  0  0  0  0  0  0  0  0
    5.2851    8.2356    0.5910 H   0  0  0  0  0  0  0  0  0  0  0  0
    7.0517    8.4810    0.3688 H   0  0  0  0  0  0  0  0  0  0  0  0
    3.0545    5.6198   -1.0039 H   0  0  0  0  0  0  0  0  0  0  0  0
    4.3764    6.4277    1.6153 H   0  0  0  0  0  0  0  0  0  0  0  0
    1.4098    8.4121    2.6294 H   0  0  0  0  0  0  0  0  0  0  0  0
    2.5525    7.2355    3.3757 H   0  0  0  0  0  0  0  0  0  0  0  0
    3.3506    4.7644    2.7831 H   0  0  0  0  0  0  0  0  0  0  0  0
    3.6385    3.8951    1.2560 H   0  0  0  0  0  0  0  0  0  0  0  0
    0.9121    4.7028   -0.7075 H   0  0  0  0  0  0  0  0  0  0  0  0
    2.0788    3.3669   -0.3969 H   0  0  0  0  0  0  0  0  0  0  0  0
  1  2  1  0
  2  3  2  0
  2  4  1  0
  4  5  1  0
  5  6  1  0
  6  7  1  0
  7  8  1  0
  8  9  1  0
  9 10  1  0
 10 11  2  0
 11 12  1  0
 12 13  2  0
 13 14  1  0
 13 15  1  0
 15 16  1  0
 16 17  1  0
 17 18  1  0
 18 19  1  0
 19 20  1  0
 20 21  2  0
 20 22  1  0
 22 23  1  0
 22 24  1  0
 24 25  1  0
 25 26  2  0
 25 27  1  0
 27 28  1  0
 27 29  1  0
 29 30  1  0
 30 31  2  0
 30 32  1  0
 32 33  1  0
 32 34  1  0
 34 35  1  0
 35 36  2  0
 35 37  1  0
 37 38  1  0
 37 39  1  0
 39 40  1  0
 40 41  2  0
 40 42  1  0
 42 43  1  0
 42 44  1  0
 44 45  1  0
 45 46  2  0
 18 47  1  0
 47 48  2  0
 47 49  1  0
 49 50  1  0
 50 51  1  0
 50 52  1  0
 52 53  2  0
 52 54  1  0
 54 55  1  0
 55 56  1  0
 55 57  1  0
 57 58  2  0
 57 59  1  0
 59 60  1  0
 60 61  1  0
 60 62  1  0
 62 63  2  0
 62 64  1  0
 64 65  1  0
 65 66  1  0
 65 67  1  0
 67 68  2  0
 67 69  1  0
 69 70  1  0
 70 71  1  0
 70 72  1  0
 72 73  2  0
 72 74  1  0
 74 75  1  0
 75 76  1  0
 75 77  1  0
 77 78  2  0
 77 79  1  0
 79 80  1  0
 80 81  1  0
 80 82  1  0
 82 83  2  0
 82 84  1  0
 84 85  1  0
 85 86  1  0
 86 87  1  0
 86 88  2  0
 85 89  1  0
 89 90  1  0
 90 91  1  0
 45  5  1  0
 14  9  2  0
 91 11  1  0
  1 92  1  0
  1 93  1  0
  1 94  1  0
  4 95  1  0
  5 96  1  1
  6 97  1  0
  6 98  1  0
  8 99  1  0
  8100  1  0
 10101  1  0
 12102  1  0
 14103  1  0
 15104  1  0
 15105  1  0
 17106  1  0
 17107  1  0
 18108  1  6
 19109  1  0
 22110  1  6
 23111  1  0
 23112  1  0
 23113  1  0
 24114  1  0
 27115  1  1
 28116  1  0
 28117  1  0
 28118  1  0
 29119  1  0
 32120  1  6
 33121  1  0
 33122  1  0
 33123  1  0
 34124  1  0
 37125  1  6
 38126  1  0
 38127  1  0
 38128  1  0
 39129  1  0
 42130  1  6
 43131  1  0
 43132  1  0
 43133  1  0
 44134  1  0
 49135  1  0
 50136  1  6
 51137  1  0
 51138  1  0
 51139  1  0
 54140  1  0
 55141  1  6
 56142  1  0
 56143  1  0
 56144  1  0
 59145  1  0
 60146  1  6
 61147  1  0
 61148  1  0
 61149  1  0
 64150  1  0
 65151  1  6
 66152  1  0
 66153  1  0
 66154  1  0
 69155  1  0
 70156  1  6
 71157  1  0
 71158  1  0
 71159  1  0
 74160  1  0
 75161  1  6
 76162  1  0
 76163  1  0
 76164  1  0
 79165  1  0
 80166  1  6
 81167  1  0
 81168  1  0
 81169  1  0
 84170  1  0
 85171  1  1
 87172  1  0
 87173  1  0
 89174  1  0
 89175  1  0
 91176  1  0
 91177  1  0
M  END
