
     RDKit          3D

177179  0  0  0  0  0  0  0  0999 V2000
    7.9965   -5.2266    1.9385 C   0  0  0  0  0  0  0  0  0  0  0  0
    7.7211   -6.1374    0.7797 C   0  0  0  0  0  0  0  0  0  0  0  0
    8.2740   -7.2711    0.7529 O   0  0  0  0  0  0  0  0  0  0  0  0
    6.8521   -5.7641   -0.3049 N   0  0  0  0  0  0  0  0  0  0  0  0
    6.2374   -4.4382   -0.4800 C   0  0  2  0  0  0  0  0  0  0  0  0
    4.7190   -4.5395   -0.2950 C   0  0  0  0  0  0  0  0  0  0  0  0
    4.2844   -4.9947    1.4332 S   0  0  0  0  0  0  0  0  0  0  0  0
    3.2468   -3.5285    1.7906 C   0  0  0  0  0  0  0  0  0  0  0  0
    1.9252   -3.4608    1.0496 C   0  0  0  0  0  0  0  0  0  0  0  0
    1.4367   -4.5134    0.2565 C   0  0  0  0  0  0  0  0  0  0  0  0
    0.2555   -4.3618   -0.4833 C   0  0  0  0  0  0  0  0  0  0  0  0
   -0.4217   -3.1315   -0.4566 C   0  0  0  0  0  0  0  0  0  0  0  0
    0.0370   -2.0767    0.3511 C   0  0  0  0  0  0  0  0  0  0  0  0
    1.1798   -2.2805    1.1498 C   0  0  0  0  0  0  0  0  0  0  0  0
   -0.6776   -0.7423    0.2516 C   0  0  0  0  0  0  0  0  0  0  0  0
    0.0233    0.6372    1.2439 S   0  0  0  0  0  0  0  0  0  0  0  0
    1.5955    0.8222    0.3141 C   0  0  0  0  0  0  0  0  0  0  0  0
    1.7162    2.1517   -0.4396 C   0  0  2  0  0  0  0  0  0  0  0  0
    1.9166    3.2673    0.4979 N   0  0  0  0  0  0  0  0  0  0  0  0
    3.0541    4.1511    0.5255 C   0  0  0  0  0  0  0  0  0  0  0  0
    3.0808    5.0715    1.3881 O   0  0  0  0  0  0  0  0  0  0  0  0
    4.1870    4.0623   -0.4751 C   0  0  1  0  0  0  0  0  0  0  0  0
    3.8005    4.7662   -1.7847 C   0  0  0  0  0  0  0  0  0  0  0  0
    5.4371    4.5793    0.1010 N   0  0  0  0  0  0  0  0  0  0  0  0
    6.0069    5.8530   -0.2216 C   0  0  0  0  0  0  0  0  0  0  0  0
    5.3244    6.9041   -0.0694 O   0  0  0  0  0  0  0  0  0  0  0  0
    7.4374    5.9306   -0.6779 C   0  0  1  0  0  0  0  0  0  0  0  0
    7.5985    6.9325   -1.8266 C   0  0  0  0  0  0  0  0  0  0  0  0
    8.2949    6.3087    0.4505 N   0  0  0  0  0  0  0  0  0  0  0  0
    8.7625    5.3738    1.4344 C   0  0  0  0  0  0  0  0  0  0  0  0
    8.7661    5.7294    2.6435 O   0  0  0  0  0  0  0  0  0  0  0  0
    9.3107    4.0072    1.0703 C   0  0  1  0  0  0  0  0  0  0  0  0
   10.7634    3.9088    1.5529 C   0  0  0  0  0  0  0  0  0  0  0  0
    8.4821    2.9551    1.6864 N   0  0  0  0  0  0  0  0  0  0  0  0
    8.5187    1.5471    1.3662 C   0  0  0  0  0  0  0  0  0  0  0  0
    7.7633    0.7690    2.0122 O   0  0  0  0  0  0  0  0  0  0  0  0
    9.4288    0.9584    0.3122 C   0  0  1  0  0  0  0  0  0  0  0  0
   10.5576    0.1391    0.9582 C   0  0  0  0  0  0  0  0  0  0  0  0
    8.6585    0.1546   -0.6541 N   0  0  0  0  0  0  0  0  0  0  0  0
    8.3549   -1.2401   -0.4962 C   0  0  0  0  0  0  0  0  0  0  0  0
    8.0208   -1.6889    0.6344 O   0  0  0  0  0  0  0  0  0  0  0  0
    8.4208   -2.1591   -1.6841 C   0  0  1  0  0  0  0  0  0  0  0  0
    9.3937   -3.3259   -1.4475 C   0  0  0  0  0  0  0  0  0  0  0  0
    7.0759   -2.6033   -2.0852 N   0  0  0  0  0  0  0  0  0  0  0  0
    6.5369   -3.9163   -1.8656 C   0  0  0  0  0  0  0  0  0  0  0  0
    6.2184   -4.6172   -2.8696 O   0  0  0  0  0  0  0  0  0  0  0  0
    0.5626    2.3991   -1.3873 C   0  0  0  0  0  0  0  0  0  0  0  0
    0.4138    1.6291   -2.3662 O   0  0  0  0  0  0  0  0  0  0  0  0
   -0.2798    3.5568   -1.2901 N   0  0  0  0  0  0  0  0  0  0  0  0
   -1.3453    3.6488   -0.2804 C   0  0  2  0  0  0  0  0  0  0  0  0
   -2.5014    2.7202   -0.6863 C   0  0  0  0  0  0  0  0  0  0  0  0
   -1.8372    5.0695   -0.1420 C   0  0  0  0  0  0  0  0  0  0  0  0
   -1.2856    6.0064   -0.7835 O   0  0  0  0  0  0  0  0  0  0  0  0
   -2.9611    5.3634    0.7028 N   0  0  0  0  0  0  0  0  0  0  0  0
   -3.8870    6.4551    0.3703 C   0  0  2  0  0  0  0  0  0  0  0  0
   -3.4645    7.7331    1.1102 C   0  0  0  0  0  0  0  0  0  0  0  0
   -5.3108    6.0413    0.6810 C   0  0  0  0  0  0  0  0  0  0  0  0
   -6.0219    6.7233    1.4658 O   0  0  0  0  0  0  0  0  0  0  0  0
   -5.8713    4.9069   -0.0095 N   0  0  0  0  0  0  0  0  0  0  0  0
   -7.3002    4.7293   -0.3089 C   0  0  2  0  0  0  0  0  0  0  0  0
   -7.9041    6.0135   -0.8958 C   0  0  0  0  0  0  0  0  0  0  0  0
   -8.0777    4.2581    0.8994 C   0  0  0  0  0  0  0  0  0  0  0  0
   -7.7812    4.7105    2.0404 O   0  0  0  0  0  0  0  0  0  0  0  0
   -9.1769    3.3357    0.7950 N   0  0  0  0  0  0  0  0  0  0  0  0
   -9.7700    2.8640   -0.4598 C   0  0  2  0  0  0  0  0  0  0  0  0
  -11.2974    2.8182   -0.3355 C   0  0  0  0  0  0  0  0  0  0  0  0
   -9.2211    1.5068   -0.8130 C   0  0  0  0  0  0  0  0  0  0  0  0
   -8.5677    1.3476   -1.8796 O   0  0  0  0  0  0  0  0  0  0  0  0
   -9.4426    0.3917    0.0496 N   0  0  0  0  0  0  0  0  0  0  0  0
  -10.4185   -0.6370   -0.3071 C   0  0  2  0  0  0  0  0  0  0  0  0
  -11.2700   -1.0098    0.9091 C   0  0  0  0  0  0  0  0  0  0  0  0
   -9.7353   -1.8529   -0.8841 C   0  0  0  0  0  0  0  0  0  0  0  0
   -9.9245   -2.1480   -2.0964 O   0  0  0  0  0  0  0  0  0  0  0  0
   -8.9376   -2.7136   -0.0567 N   0  0  0  0  0  0  0  0  0  0  0  0
   -9.0918   -4.1692   -0.1399 C   0  0  2  0  0  0  0  0  0  0  0  0
  -10.0469   -4.6383    0.9620 C   0  0  0  0  0  0  0  0  0  0  0  0
   -7.7717   -4.9075   -0.0374 C   0  0  0  0  0  0  0  0  0  0  0  0
   -7.7847   -6.1621   -0.1743 O   0  0  0  0  0  0  0  0  0  0  0  0
   -6.5188   -4.2287    0.2020 N   0  0  0  0  0  0  0  0  0  0  0  0
   -5.2708   -4.9512    0.4633 C   0  0  2  0  0  0  0  0  0  0  0  0
   -4.6531   -4.4454    1.7703 C   0  0  0  0  0  0  0  0  0  0  0  0
   -4.3291   -4.7398   -0.6999 C   0  0  0  0  0  0  0  0  0  0  0  0
   -4.0665   -3.5570   -1.0628 O   0  0  0  0  0  0  0  0  0  0  0  0
   -3.7702   -5.8354   -1.4498 N   0  0  0  0  0  0  0  0  0  0  0  0
   -3.1810   -7.0581   -0.8756 C   0  0  2  0  0  0  0  0  0  0  0  0
   -4.2641   -8.0125   -0.4326 C   0  0  0  0  0  0  0  0  0  0  0  0
   -5.1786   -8.5359   -1.4001 N   0  0  0  0  0  0  0  0  0  0  0  0
   -4.3771   -8.3609    0.7737 O   0  0  0  0  0  0  0  0  0  0  0  0
   -2.1122   -6.7205    0.2027 C   0  0  0  0  0  0  0  0  0  0  0  0
   -0.4197   -7.0410   -0.4166 S   0  0  0  0  0  0  0  0  0  0  0  0
   -0.2189   -5.4871   -1.3663 C   0  0  0  0  0  0  0  0  0  0  0  0
    7.0408   -4.9527    2.4329 H   0  0  0  0  0  0  0  0  0  0  0  0
    8.5135   -4.3104    1.5929 H   0  0  0  0  0  0  0  0  0  0  0  0
    8.6383   -5.7322    2.6870 H   0  0  0  0  0  0  0  0  0  0  0  0
    6.6077   -6.5073   -1.0017 H   0  0  0  0  0  0  0  0  0  0  0  0
    6.6258   -3.7165    0.2631 H   0  0  0  0  0  0  0  0  0  0  0  0
    4.3083   -5.3175   -0.9717 H   0  0  0  0  0  0  0  0  0  0  0  0
    4.2469   -3.5762   -0.5876 H   0  0  0  0  0  0  0  0  0  0  0  0
    3.8437   -2.6268    1.5472 H   0  0  0  0  0  0  0  0  0  0  0  0
    3.0436   -3.5095    2.8791 H   0  0  0  0  0  0  0  0  0  0  0  0
    1.9689   -5.4536    0.1929 H   0  0  0  0  0  0  0  0  0  0  0  0
   -1.3023   -2.9842   -1.0750 H   0  0  0  0  0  0  0  0  0  0  0  0
    1.5379   -1.5058    1.8169 H   0  0  0  0  0  0  0  0  0  0  0  0
   -1.7317   -0.8794    0.5750 H   0  0  0  0  0  0  0  0  0  0  0  0
   -0.6944   -0.4299   -0.8151 H   0  0  0  0  0  0  0  0  0  0  0  0
    2.4218    0.7548    1.0491 H   0  0  0  0  0  0  0  0  0  0  0  0
    1.7382   -0.0157   -0.4030 H   0  0  0  0  0  0  0  0  0  0  0  0
    2.5933    2.0332   -1.0910 H   0  0  0  0  0  0  0  0  0  0  0  0
    1.2246    3.3725    1.2788 H   0  0  0  0  0  0  0  0  0  0  0  0
    4.3957    2.9974   -0.7182 H   0  0  0  0  0  0  0  0  0  0  0  0
    2.9297    4.2613   -2.2543 H   0  0  0  0  0  0  0  0  0  0  0  0
    3.5250    5.8276   -1.5941 H   0  0  0  0  0  0  0  0  0  0  0  0
    4.6501    4.7287   -2.4977 H   0  0  0  0  0  0  0  0  0  0  0  0
    6.0763    3.8802    0.5423 H   0  0  0  0  0  0  0  0  0  0  0  0
    7.7252    4.9363   -1.0766 H   0  0  0  0  0  0  0  0  0  0  0  0
    6.9279    6.6563   -2.6714 H   0  0  0  0  0  0  0  0  0  0  0  0
    8.6501    6.9170   -2.1925 H   0  0  0  0  0  0  0  0  0  0  0  0
    7.3593    7.9635   -1.4936 H   0  0  0  0  0  0  0  0  0  0  0  0
    8.2922    7.3154    0.7297 H   0  0  0  0  0  0  0  0  0  0  0  0
    9.3007    3.8969   -0.0284 H   0  0  0  0  0  0  0  0  0  0  0  0
   11.2652    3.0273    1.1117 H   0  0  0  0  0  0  0  0  0  0  0  0
   11.3404    4.8005    1.2326 H   0  0  0  0  0  0  0  0  0  0  0  0
   10.8064    3.8277    2.6638 H   0  0  0  0  0  0  0  0  0  0  0  0
    7.8482    3.2297    2.4720 H   0  0  0  0  0  0  0  0  0  0  0  0
    9.9152    1.7676   -0.2649 H   0  0  0  0  0  0  0  0  0  0  0  0
   10.1554   -0.6757    1.5931 H   0  0  0  0  0  0  0  0  0  0  0  0
   11.2039   -0.3013    0.1690 H   0  0  0  0  0  0  0  0  0  0  0  0
   11.1903    0.7861    1.6020 H   0  0  0  0  0  0  0  0  0  0  0  0
    8.4936    0.5780   -1.5934 H   0  0  0  0  0  0  0  0  0  0  0  0
    8.8508   -1.5788   -2.5332 H   0  0  0  0  0  0  0  0  0  0  0  0
   10.3846   -2.9330   -1.1321 H   0  0  0  0  0  0  0  0  0  0  0  0
    9.0249   -4.0183   -0.6753 H   0  0  0  0  0  0  0  0  0  0  0  0
    9.5322   -3.8844   -2.3967 H   0  0  0  0  0  0  0  0  0  0  0  0
    6.6232   -2.0423   -2.8453 H   0  0  0  0  0  0  0  0  0  0  0  0
   -0.4586    4.0489   -2.1978 H   0  0  0  0  0  0  0  0  0  0  0  0
   -0.9647    3.3224    0.7062 H   0  0  0  0  0  0  0  0  0  0  0  0
   -3.2714    2.6893    0.1094 H   0  0  0  0  0  0  0  0  0  0  0  0
   -2.1317    1.6839   -0.8212 H   0  0  0  0  0  0  0  0  0  0  0  0
   -2.9665    3.0647   -1.6329 H   0  0  0  0  0  0  0  0  0  0  0  0
   -3.2328    4.6653    1.4324 H   0  0  0  0  0  0  0  0  0  0  0  0
   -3.8511    6.6519   -0.7270 H   0  0  0  0  0  0  0  0  0  0  0  0
   -4.1955    8.5486    0.9235 H   0  0  0  0  0  0  0  0  0  0  0  0
   -2.4719    8.0690    0.7391 H   0  0  0  0  0  0  0  0  0  0  0  0
   -3.3900    7.5421    2.2034 H   0  0  0  0  0  0  0  0  0  0  0  0
   -5.2045    4.2742   -0.5002 H   0  0  0  0  0  0  0  0  0  0  0  0
   -7.3598    3.9451   -1.0942 H   0  0  0  0  0  0  0  0  0  0  0  0
   -8.9245    5.8240   -1.2926 H   0  0  0  0  0  0  0  0  0  0  0  0
   -7.9838    6.8086   -0.1232 H   0  0  0  0  0  0  0  0  0  0  0  0
   -7.2685    6.3794   -1.7311 H   0  0  0  0  0  0  0  0  0  0  0  0
   -9.5451    2.9309    1.6860 H   0  0  0  0  0  0  0  0  0  0  0  0
   -9.5486    3.5685   -1.2853 H   0  0  0  0  0  0  0  0  0  0  0  0
  -11.7506    2.4558   -1.2810 H   0  0  0  0  0  0  0  0  0  0  0  0
  -11.6075    2.1523    0.4970 H   0  0  0  0  0  0  0  0  0  0  0  0
  -11.6849    3.8391   -0.1329 H   0  0  0  0  0  0  0  0  0  0  0  0
   -8.8689    0.2921    0.9198 H   0  0  0  0  0  0  0  0  0  0  0  0
  -11.1142   -0.2281   -1.0758 H   0  0  0  0  0  0  0  0  0  0  0  0
  -12.0286   -1.7715    0.6207 H   0  0  0  0  0  0  0  0  0  0  0  0
  -11.8040   -0.1185    1.2877 H   0  0  0  0  0  0  0  0  0  0  0  0
  -10.6384   -1.4214    1.7243 H   0  0  0  0  0  0  0  0  0  0  0  0
   -8.5194   -2.3086    0.8141 H   0  0  0  0  0  0  0  0  0  0  0  0
   -9.5364   -4.4468   -1.1228 H   0  0  0  0  0  0  0  0  0  0  0  0
   -9.6096   -4.4507    1.9652 H   0  0  0  0  0  0  0  0  0  0  0  0
  -11.0124   -4.0945    0.8765 H   0  0  0  0  0  0  0  0  0  0  0  0
  -10.2626   -5.7244    0.8495 H   0  0  0  0  0  0  0  0  0  0  0  0
   -6.5002   -3.1862    0.2570 H   0  0  0  0  0  0  0  0  0  0  0  0
   -5.4825   -6.0246    0.6013 H   0  0  0  0  0  0  0  0  0  0  0  0
   -4.3652   -3.3766    1.6848 H   0  0  0  0  0  0  0  0  0  0  0  0
   -3.7609   -5.0421    2.0387 H   0  0  0  0  0  0  0  0  0  0  0  0
   -5.3976   -4.5541    2.5931 H   0  0  0  0  0  0  0  0  0  0  0  0
   -3.5616   -5.6492   -2.4578 H   0  0  0  0  0  0  0  0  0  0  0  0
   -2.6653   -7.5921   -1.7039 H   0  0  0  0  0  0  0  0  0  0  0  0
   -5.1083   -8.2480   -2.3994 H   0  0  0  0  0  0  0  0  0  0  0  0
   -5.9328   -9.1988   -1.1046 H   0  0  0  0  0  0  0  0  0  0  0  0
   -2.2367   -7.3425    1.1155 H   0  0  0  0  0  0  0  0  0  0  0  0
   -2.1581   -5.6614    0.5241 H   0  0  0  0  0  0  0  0  0  0  0  0
   -1.1602   -5.2330   -1.8920 H   0  0  0  0  0  0  0  0  0  0  0  0
    0.5416   -5.6686   -2.1558 H   0  0  0  0  0  0  0  0  0  0  0  0
  1  2  1  0
  2  3  2  0
  2  4  1  0
  4  5  1  0
  5  6  1  0
  6  7  1  0
  7  8  1  0
  8  9  1  0
  9 10  1  0
 10 11  2  0
 11 12  1  0
 12 13  2  0
 13 14  1  0
 13 15  1  0
 15 16  1  0
 16 17  1  0
 17 18  1  0
 18 19  1  0
 19 20  1  0
 20 21  2  0
 20 22  1  0
 22 23  1  0
 22 24  1  0
 24 25  1  0
 25 26  2  0
 25 27  1  0
 27 28  1  0
 27 29  1  0
 29 30  1  0
 30 31  2  0
 30 32  1  0
 32 33  1  0
 32 34  1  0
 34 35  1  0
 35 36  2  0
 35 37  1  0
 37 38  1  0
 37 39  1  0
 39 40  1  0
 40 41  2  0
 40 42  1  0
 42 43  1  0
 42 44  1  0
 44 45  1  0
 45 46  2  0
 18 47  1  0
 47 48  2  0
 47 49  1  0
 49 50  1  0
 50 51  1  0
 50 52  1  0
 52 53  2  0
 52 54  1  0
 54 55  1  0
 55 56  1  0
 55 57  1  0
 57 58  2  0
 57 59  1  0
 59 60  1  0
 60 61  1  0
 60 62  1  0
 62 63  2  0
 62 64  1  0
 64 65  1  0
 65 66  1  0
 65 67  1  0
 67 68  2  0
 67 69  1  0
 69 70  1  0
 70 71  1  0
 70 72  1  0
 72 73  2  0
 72 74  1  0
 74 75  1  0
 75 76  1  0
 75 77  1  0
 77 78  2  0
 77 79  1  0
 79 80  1  0
 80 81  1  0
 80 82  1  0
 82 83  2  0
 82 84  1  0
 84 85  1  0
 85 86  1  0
 86 87  1  0
 86 88  2  0
 85 89  1  0
 89 90  1  0
 90 91  1  0
 45  5  1  0
 14  9  2  0
 91 11  1  0
  1 92  1  0
  1 93  1  0
  1 94  1  0
  4 95  1  0
  5 96  1  1
  6 97  1  0
  6 98  1  0
  8 99  1  0
  8100  1  0
 10101  1  0
 12102  1  0
 14103  1  0
 15104  1  0
 15105  1  0
 17106  1  0
 17107  1  0
 18108  1  6
 19109  1  0
 22110  1  6
 23111  1  0
 23112  1  0
 23113  1  0
 24114  1  0
 27115  1  6
 28116  1  0
 28117  1  0
 28118  1  0
 29119  1  0
 32120  1  6
 33121  1  0
 33122  1  0
 33123  1  0
 34124  1  0
 37125  1  6
 38126  1  0
 38127  1  0
 38128  1  0
 39129  1  0
 42130  1  6
 43131  1  0
 43132  1  0
 43133  1  0
 44134  1  0
 49135  1  0
 50136  1  1
 51137  1  0
 51138  1  0
 51139  1  0
 54140  1  0
 55141  1  6
 56142  1  0
 56143  1  0
 56144  1  0
 59145  1  0
 60146  1  6
 61147  1  0
 61148  1  0
 61149  1  0
 64150  1  0
 65151  1  6
 66152  1  0
 66153  1  0
 66154  1  0
 69155  1  0
 70156  1  6
 71157  1  0
 71158  1  0
 71159  1  0
 74160  1  0
 75161  1  6
 76162  1  0
 76163  1  0
 76164  1  0
 79165  1  0
 80166  1  1
 81167  1  0
 81168  1  0
 81169  1  0
 84170  1  0
 85171  1  6
 87172  1  0
 87173  1  0
 89174  1  0
 89175  1  0
 91176  1  0
 91177  1  0
M  END
