
     RDKit          3D

167169  0  0  0  0  0  0  0  0999 V2000
  -12.0202   -1.4444   -1.2460 C   0  0  0  0  0  0  0  0  0  0  0  0
  -11.1657   -0.2282   -1.4638 C   0  0  0  0  0  0  0  0  0  0  0  0
  -11.7346    0.8676   -1.7574 O   0  0  0  0  0  0  0  0  0  0  0  0
   -9.7336   -0.2685   -1.3645 N   0  0  0  0  0  0  0  0  0  0  0  0
   -8.9434   -0.8631   -0.2735 C   0  0  2  0  0  0  0  0  0  0  0  0
   -9.0823   -2.3990   -0.1758 C   0  0  0  0  0  0  0  0  0  0  0  0
   -8.9477   -3.2869   -1.7831 S   0  0  0  0  0  0  0  0  0  0  0  0
   -7.2582   -2.7855   -2.3069 C   0  0  0  0  0  0  0  0  0  0  0  0
   -6.2248   -2.8531   -1.2106 C   0  0  0  0  0  0  0  0  0  0  0  0
   -5.4567   -1.7136   -0.9231 C   0  0  0  0  0  0  0  0  0  0  0  0
   -4.5209   -1.7163    0.1307 C   0  0  0  0  0  0  0  0  0  0  0  0
   -4.3268   -2.9071    0.8563 C   0  0  0  0  0  0  0  0  0  0  0  0
   -5.0565   -4.0666    0.5465 C   0  0  0  0  0  0  0  0  0  0  0  0
   -5.9936   -4.0419   -0.5015 C   0  0  0  0  0  0  0  0  0  0  0  0
   -4.7901   -5.3533    1.2734 C   0  0  0  0  0  0  0  0  0  0  0  0
   -3.7065   -6.3908    0.2406 S   0  0  0  0  0  0  0  0  0  0  0  0
   -2.2159   -6.2895    1.3201 C   0  0  0  0  0  0  0  0  0  0  0  0
   -1.0105   -7.0142    0.6834 C   0  0  1  0  0  0  0  0  0  0  0  0
   -1.3830   -8.4439    0.3593 C   0  0  0  0  0  0  0  0  0  0  0  0
   -1.5357   -9.3993    1.4131 N   0  0  0  0  0  0  0  0  0  0  0  0
   -1.5710   -8.8000   -0.8380 O   0  0  0  0  0  0  0  0  0  0  0  0
   -0.5460   -6.2873   -0.5116 N   0  0  0  0  0  0  0  0  0  0  0  0
    0.6867   -6.5511   -1.2044 C   0  0  0  0  0  0  0  0  0  0  0  0
    0.9952   -5.8085   -2.1748 O   0  0  0  0  0  0  0  0  0  0  0  0
    1.6507   -7.6310   -0.7673 C   0  0  1  0  0  0  0  0  0  0  0  0
    2.5310   -8.1381   -1.9221 C   0  0  0  0  0  0  0  0  0  0  0  0
    2.4893   -7.1930    0.3553 N   0  0  0  0  0  0  0  0  0  0  0  0
    3.4527   -6.1289    0.2415 C   0  0  0  0  0  0  0  0  0  0  0  0
    3.1614   -5.0931   -0.4213 O   0  0  0  0  0  0  0  0  0  0  0  0
    4.8324   -6.2113    0.8566 C   0  0  1  0  0  0  0  0  0  0  0  0
    5.0147   -7.3815    1.8296 C   0  0  0  0  0  0  0  0  0  0  0  0
    5.8167   -6.3297   -0.2212 N   0  0  0  0  0  0  0  0  0  0  0  0
    6.8691   -5.3967   -0.5217 C   0  0  0  0  0  0  0  0  0  0  0  0
    7.6082   -5.6417   -1.5041 O   0  0  0  0  0  0  0  0  0  0  0  0
    7.1745   -4.1922    0.3548 C   0  0  1  0  0  0  0  0  0  0  0  0
    7.8662   -4.6132    1.6612 C   0  0  0  0  0  0  0  0  0  0  0  0
    7.9831   -3.1773   -0.3433 N   0  0  0  0  0  0  0  0  0  0  0  0
    9.3932   -3.3041   -0.5852 C   0  0  0  0  0  0  0  0  0  0  0  0
    9.8882   -4.4130   -0.9400 O   0  0  0  0  0  0  0  0  0  0  0  0
   10.2635   -2.0852   -0.4886 C   0  0  1  0  0  0  0  0  0  0  0  0
   11.7608   -2.4237   -0.5442 C   0  0  0  0  0  0  0  0  0  0  0  0
    9.9310   -1.1437   -1.5632 N   0  0  0  0  0  0  0  0  0  0  0  0
    9.3585    0.1624   -1.3986 C   0  0  0  0  0  0  0  0  0  0  0  0
    9.2217    0.8767   -2.4253 O   0  0  0  0  0  0  0  0  0  0  0  0
    8.9751    0.7203   -0.0372 C   0  0  1  0  0  0  0  0  0  0  0  0
   10.2315    1.2027    0.6928 C   0  0  0  0  0  0  0  0  0  0  0  0
    8.0255    1.8333   -0.1597 N   0  0  0  0  0  0  0  0  0  0  0  0
    7.3434    2.3459    0.9931 C   0  0  0  0  0  0  0  0  0  0  0  0
    6.7659    1.5432    1.7815 O   0  0  0  0  0  0  0  0  0  0  0  0
    7.3156    3.8249    1.3203 C   0  0  1  0  0  0  0  0  0  0  0  0
    8.2727    4.6477    0.4466 C   0  0  0  0  0  0  0  0  0  0  0  0
    5.9618    4.3689    1.2177 N   0  0  0  0  0  0  0  0  0  0  0  0
    5.6563    5.6728    1.7214 C   0  0  0  0  0  0  0  0  0  0  0  0
    6.0543    5.9982    2.8709 O   0  0  0  0  0  0  0  0  0  0  0  0
    4.9325    6.6867    0.8738 C   0  0  1  0  0  0  0  0  0  0  0  0
    5.9148    7.7692    0.4095 C   0  0  0  0  0  0  0  0  0  0  0  0
    4.3172    6.0579   -0.3024 N   0  0  0  0  0  0  0  0  0  0  0  0
    2.9132    6.0581   -0.6204 C   0  0  0  0  0  0  0  0  0  0  0  0
    2.5053    5.2711   -1.5147 O   0  0  0  0  0  0  0  0  0  0  0  0
    1.9164    6.9531    0.0899 C   0  0  1  0  0  0  0  0  0  0  0  0
    2.1567    8.4422   -0.2207 C   0  0  0  0  0  0  0  0  0  0  0  0
    0.5324    6.5705   -0.2379 N   0  0  0  0  0  0  0  0  0  0  0  0
   -0.1399    7.0080   -1.4317 C   0  0  0  0  0  0  0  0  0  0  0  0
    0.4839    7.0852   -2.5202 O   0  0  0  0  0  0  0  0  0  0  0  0
   -1.5788    7.4362   -1.3569 C   0  0  1  0  0  0  0  0  0  0  0  0
   -1.7573    8.8427   -1.9312 C   0  0  0  0  0  0  0  0  0  0  0  0
   -2.4308    6.4893   -2.0893 N   0  0  0  0  0  0  0  0  0  0  0  0
   -3.6425    5.9261   -1.5546 C   0  0  0  0  0  0  0  0  0  0  0  0
   -4.5860    5.6764   -2.3461 O   0  0  0  0  0  0  0  0  0  0  0  0
   -3.7996    5.6227   -0.0824 C   0  0  1  0  0  0  0  0  0  0  0  0
   -4.5446    6.7389    0.6599 C   0  0  0  0  0  0  0  0  0  0  0  0
   -4.4375    4.3195    0.1194 N   0  0  0  0  0  0  0  0  0  0  0  0
   -5.8124    4.0092   -0.1903 C   0  0  0  0  0  0  0  0  0  0  0  0
   -6.6108    4.9436   -0.4559 O   0  0  0  0  0  0  0  0  0  0  0  0
   -6.3334    2.5845   -0.2927 C   0  0  1  0  0  0  0  0  0  0  0  0
   -5.5110    1.5277    0.4738 C   0  0  0  0  0  0  0  0  0  0  0  0
   -4.0278    1.0096   -0.4845 S   0  0  0  0  0  0  0  0  0  0  0  0
   -3.6590   -0.5111    0.4721 C   0  0  0  0  0  0  0  0  0  0  0  0
   -7.7375    2.5327    0.1435 N   0  0  0  0  0  0  0  0  0  0  0  0
   -8.1481    2.7367    1.5024 C   0  0  0  0  0  0  0  0  0  0  0  0
   -7.4674    3.4890    2.2570 O   0  0  0  0  0  0  0  0  0  0  0  0
   -9.4242    2.1368    2.0365 C   0  0  1  0  0  0  0  0  0  0  0  0
  -10.5090    3.2111    2.1858 C   0  0  0  0  0  0  0  0  0  0  0  0
   -9.9009    1.0417    1.1752 N   0  0  0  0  0  0  0  0  0  0  0  0
   -9.1701   -0.1864    1.0640 C   0  0  0  0  0  0  0  0  0  0  0  0
   -8.5994   -0.6448    2.0849 O   0  0  0  0  0  0  0  0  0  0  0  0
  -13.0675   -1.2273   -1.5441 H   0  0  0  0  0  0  0  0  0  0  0  0
  -12.0165   -1.7253   -0.1794 H   0  0  0  0  0  0  0  0  0  0  0  0
  -11.6433   -2.2744   -1.8847 H   0  0  0  0  0  0  0  0  0  0  0  0
   -9.2056    0.3219   -2.0397 H   0  0  0  0  0  0  0  0  0  0  0  0
   -7.8825   -0.6735   -0.5007 H   0  0  0  0  0  0  0  0  0  0  0  0
  -10.0608   -2.6662    0.2781 H   0  0  0  0  0  0  0  0  0  0  0  0
   -8.3191   -2.8043    0.5208 H   0  0  0  0  0  0  0  0  0  0  0  0
   -6.9400   -3.4535   -3.1318 H   0  0  0  0  0  0  0  0  0  0  0  0
   -7.3253   -1.7587   -2.7354 H   0  0  0  0  0  0  0  0  0  0  0  0
   -5.6112   -0.8296   -1.5174 H   0  0  0  0  0  0  0  0  0  0  0  0
   -3.5965   -2.9391    1.6567 H   0  0  0  0  0  0  0  0  0  0  0  0
   -6.5434   -4.9381   -0.7627 H   0  0  0  0  0  0  0  0  0  0  0  0
   -5.7389   -5.9049    1.4420 H   0  0  0  0  0  0  0  0  0  0  0  0
   -4.3420   -5.1641    2.2721 H   0  0  0  0  0  0  0  0  0  0  0  0
   -2.4460   -6.7593    2.3082 H   0  0  0  0  0  0  0  0  0  0  0  0
   -1.9536   -5.2226    1.5010 H   0  0  0  0  0  0  0  0  0  0  0  0
   -0.1888   -7.0237    1.4303 H   0  0  0  0  0  0  0  0  0  0  0  0
   -1.3540   -9.1310    2.4013 H   0  0  0  0  0  0  0  0  0  0  0  0
   -1.8162  -10.3768    1.1942 H   0  0  0  0  0  0  0  0  0  0  0  0
   -1.0929   -5.4598   -0.8346 H   0  0  0  0  0  0  0  0  0  0  0  0
    1.0689   -8.5133   -0.4410 H   0  0  0  0  0  0  0  0  0  0  0  0
    3.1704   -8.9775   -1.5700 H   0  0  0  0  0  0  0  0  0  0  0  0
    1.8954   -8.5112   -2.7583 H   0  0  0  0  0  0  0  0  0  0  0  0
    3.1889   -7.3370   -2.3118 H   0  0  0  0  0  0  0  0  0  0  0  0
    2.5466   -7.8519    1.1592 H   0  0  0  0  0  0  0  0  0  0  0  0
    4.9843   -5.2850    1.4483 H   0  0  0  0  0  0  0  0  0  0  0  0
    4.8827   -8.3534    1.3085 H   0  0  0  0  0  0  0  0  0  0  0  0
    4.2884   -7.3072    2.6653 H   0  0  0  0  0  0  0  0  0  0  0  0
    6.0318   -7.3533    2.2581 H   0  0  0  0  0  0  0  0  0  0  0  0
    5.7494   -7.1745   -0.8385 H   0  0  0  0  0  0  0  0  0  0  0  0
    6.2158   -3.7062    0.6086 H   0  0  0  0  0  0  0  0  0  0  0  0
    8.1417   -3.7006    2.2435 H   0  0  0  0  0  0  0  0  0  0  0  0
    7.1917   -5.2312    2.2811 H   0  0  0  0  0  0  0  0  0  0  0  0
    8.7898   -5.1895    1.4493 H   0  0  0  0  0  0  0  0  0  0  0  0
    7.5567   -2.2293   -0.4512 H   0  0  0  0  0  0  0  0  0  0  0  0
   10.0694   -1.6390    0.5068 H   0  0  0  0  0  0  0  0  0  0  0  0
   12.0239   -3.1087    0.2921 H   0  0  0  0  0  0  0  0  0  0  0  0
   12.3624   -1.4970   -0.4479 H   0  0  0  0  0  0  0  0  0  0  0  0
   12.0183   -2.9146   -1.5083 H   0  0  0  0  0  0  0  0  0  0  0  0
   10.1609   -1.4467   -2.5391 H   0  0  0  0  0  0  0  0  0  0  0  0
    8.4874   -0.0872    0.5562 H   0  0  0  0  0  0  0  0  0  0  0  0
   10.9661    0.3870    0.8237 H   0  0  0  0  0  0  0  0  0  0  0  0
    9.9689    1.5828    1.6995 H   0  0  0  0  0  0  0  0  0  0  0  0
   10.7223    2.0185    0.1225 H   0  0  0  0  0  0  0  0  0  0  0  0
    8.0245    2.4211   -1.0217 H   0  0  0  0  0  0  0  0  0  0  0  0
    7.6704    3.9234    2.3751 H   0  0  0  0  0  0  0  0  0  0  0  0
    9.2896    4.1863    0.4259 H   0  0  0  0  0  0  0  0  0  0  0  0
    7.8847    4.7190   -0.5946 H   0  0  0  0  0  0  0  0  0  0  0  0
    8.3742    5.6731    0.8487 H   0  0  0  0  0  0  0  0  0  0  0  0
    5.1524    3.7027    1.1169 H   0  0  0  0  0  0  0  0  0  0  0  0
    4.1760    7.1778    1.5170 H   0  0  0  0  0  0  0  0  0  0  0  0
    6.3492    8.3069    1.2805 H   0  0  0  0  0  0  0  0  0  0  0  0
    6.7469    7.3121   -0.1752 H   0  0  0  0  0  0  0  0  0  0  0  0
    5.4032    8.5068   -0.2391 H   0  0  0  0  0  0  0  0  0  0  0  0
    4.9496    5.5165   -0.9447 H   0  0  0  0  0  0  0  0  0  0  0  0
    2.0429    6.8080    1.1838 H   0  0  0  0  0  0  0  0  0  0  0  0
    3.0958    8.8026    0.2372 H   0  0  0  0  0  0  0  0  0  0  0  0
    1.3240    9.0456    0.1950 H   0  0  0  0  0  0  0  0  0  0  0  0
    2.2119    8.6098   -1.3132 H   0  0  0  0  0  0  0  0  0  0  0  0
   -0.0481    6.1640    0.5344 H   0  0  0  0  0  0  0  0  0  0  0  0
   -1.8661    7.4884   -0.2866 H   0  0  0  0  0  0  0  0  0  0  0  0
   -2.8066    9.1660   -1.7901 H   0  0  0  0  0  0  0  0  0  0  0  0
   -1.5204    8.8599   -3.0160 H   0  0  0  0  0  0  0  0  0  0  0  0
   -1.0964    9.5596   -1.4035 H   0  0  0  0  0  0  0  0  0  0  0  0
   -2.2689    6.3976   -3.1234 H   0  0  0  0  0  0  0  0  0  0  0  0
   -2.7854    5.5499    0.3674 H   0  0  0  0  0  0  0  0  0  0  0  0
   -5.4466    7.0732    0.1007 H   0  0  0  0  0  0  0  0  0  0  0  0
   -4.8533    6.3859    1.6645 H   0  0  0  0  0  0  0  0  0  0  0  0
   -3.8875    7.6201    0.7911 H   0  0  0  0  0  0  0  0  0  0  0  0
   -3.8175    3.5504    0.4458 H   0  0  0  0  0  0  0  0  0  0  0  0
   -6.3098    2.3282   -1.3684 H   0  0  0  0  0  0  0  0  0  0  0  0
   -5.1957    1.9158    1.4653 H   0  0  0  0  0  0  0  0  0  0  0  0
   -6.1441    0.6337    0.6553 H   0  0  0  0  0  0  0  0  0  0  0  0
   -3.7230   -0.2873    1.5597 H   0  0  0  0  0  0  0  0  0  0  0  0
   -2.6071   -0.7800    0.2561 H   0  0  0  0  0  0  0  0  0  0  0  0
   -8.4594    2.2875   -0.5799 H   0  0  0  0  0  0  0  0  0  0  0  0
   -9.2125    1.7282    3.0541 H   0  0  0  0  0  0  0  0  0  0  0  0
  -11.4548    2.7614    2.5488 H   0  0  0  0  0  0  0  0  0  0  0  0
  -10.6967    3.7183    1.2199 H   0  0  0  0  0  0  0  0  0  0  0  0
  -10.1856    3.9743    2.9280 H   0  0  0  0  0  0  0  0  0  0  0  0
  -10.8194    1.1401    0.6836 H   0  0  0  0  0  0  0  0  0  0  0  0
  1  2  1  0
  2  3  2  0
  2  4  1  0
  4  5  1  0
  5  6  1  0
  6  7  1  0
  7  8  1  0
  8  9  1  0
  9 10  1  0
 10 11  2  0
 11 12  1  0
 12 13  2  0
 13 14  1  0
 13 15  1  0
 15 16  1  0
 16 17  1  0
 17 18  1  0
 18 19  1  0
 19 20  1  0
 19 21  2  0
 18 22  1  0
 22 23  1  0
 23 24  2  0
 23 25  1  0
 25 26  1  0
 25 27  1  0
 27 28  1  0
 28 29  2  0
 28 30  1  0
 30 31  1  0
 30 32  1  0
 32 33  1  0
 33 34  2  0
 33 35  1  0
 35 36  1  0
 35 37  1  0
 37 38  1  0
 38 39  2  0
 38 40  1  0
 40 41  1  0
 40 42  1  0
 42 43  1  0
 43 44  2  0
 43 45  1  0
 45 46  1  0
 45 47  1  0
 47 48  1  0
 48 49  2  0
 48 50  1  0
 50 51  1  0
 50 52  1  0
 52 53  1  0
 53 54  2  0
 53 55  1  0
 55 56  1  0
 55 57  1  0
 57 58  1  0
 58 59  2  0
 58 60  1  0
 60 61  1  0
 60 62  1  0
 62 63  1  0
 63 64  2  0
 63 65  1  0
 65 66  1  0
 65 67  1  0
 67 68  1  0
 68 69  2  0
 68 70  1  0
 70 71  1  0
 70 72  1  0
 72 73  1  0
 73 74  2  0
 73 75  1  0
 75 76  1  0
 76 77  1  0
 77 78  1  0
 75 79  1  0
 79 80  1  0
 80 81  2  0
 80 82  1  0
 82 83  1  0
 82 84  1  0
 84 85  1  0
 85 86  2  0
 85  5  1  0
 14  9  2  0
 78 11  1  0
  1 87  1  0
  1 88  1  0
  1 89  1  0
  4 90  1  0
  5 91  1  6
  6 92  1  0
  6 93  1  0
  8 94  1  0
  8 95  1  0
 10 96  1  0
 12 97  1  0
 14 98  1  0
 15 99  1  0
 15100  1  0
 17101  1  0
 17102  1  0
 18103  1  1
 20104  1  0
 20105  1  0
 22106  1  0
 25107  1  1
 26108  1  0
 26109  1  0
 26110  1  0
 27111  1  0
 30112  1  1
 31113  1  0
 31114  1  0
 31115  1  0
 32116  1  0
 35117  1  1
 36118  1  0
 36119  1  0
 36120  1  0
 37121  1  0
 40122  1  1
 41123  1  0
 41124  1  0
 41125  1  0
 42126  1  0
 45127  1  1
 46128  1  0
 46129  1  0
 46130  1  0
 47131  1  0
 50132  1  1
 51133  1  0
 51134  1  0
 51135  1  0
 52136  1  0
 55137  1  1
 56138  1  0
 56139  1  0
 56140  1  0
 57141  1  0
 60142  1  1
 61143  1  0
 61144  1  0
 61145  1  0
 62146  1  0
 65147  1  1
 66148  1  0
 66149  1  0
 66150  1  0
 67151  1  0
 70152  1  1
 71153  1  0
 71154  1  0
 71155  1  0
 72156  1  0
 75157  1  6
 76158  1  0
 76159  1  0
 78160  1  0
 78161  1  0
 79162  1  0
 82163  1  1
 83164  1  0
 83165  1  0
 83166  1  0
 84167  1  0
M  END
