
     RDKit          3D

167169  0  0  0  0  0  0  0  0999 V2000
    5.9768    8.9935   -1.4106 C   0  0  0  0  0  0  0  0  0  0  0  0
    6.2320    7.5533   -1.0899 C   0  0  0  0  0  0  0  0  0  0  0  0
    7.1200    6.9222   -1.7232 O   0  0  0  0  0  0  0  0  0  0  0  0
    5.4694    6.9117   -0.0610 N   0  0  0  0  0  0  0  0  0  0  0  0
    5.6872    5.5267    0.3826 C   0  0  1  0  0  0  0  0  0  0  0  0
    5.2755    4.5144   -0.7100 C   0  0  0  0  0  0  0  0  0  0  0  0
    3.5350    4.7099   -1.2442 S   0  0  0  0  0  0  0  0  0  0  0  0
    2.7532    4.1748    0.3279 C   0  0  0  0  0  0  0  0  0  0  0  0
    1.4034    3.5391    0.0891 C   0  0  0  0  0  0  0  0  0  0  0  0
    0.4249    4.2019   -0.6703 C   0  0  0  0  0  0  0  0  0  0  0  0
   -0.8458    3.6407   -0.8634 C   0  0  0  0  0  0  0  0  0  0  0  0
   -1.1419    2.3968   -0.2658 C   0  0  0  0  0  0  0  0  0  0  0  0
   -0.1806    1.7491    0.5292 C   0  0  0  0  0  0  0  0  0  0  0  0
    1.0900    2.3142    0.6852 C   0  0  0  0  0  0  0  0  0  0  0  0
   -0.5367    0.4727    1.2436 C   0  0  0  0  0  0  0  0  0  0  0  0
   -0.4971   -0.9521    0.0931 S   0  0  0  0  0  0  0  0  0  0  0  0
    0.9972   -1.7842    0.7725 C   0  0  0  0  0  0  0  0  0  0  0  0
    0.9918   -3.2883    0.4163 C   0  0  2  0  0  0  0  0  0  0  0  0
    2.1581   -3.9583    1.0022 N   0  0  0  0  0  0  0  0  0  0  0  0
    2.1581   -5.3723    1.2534 C   0  0  0  0  0  0  0  0  0  0  0  0
    1.0689   -5.9529    1.5291 O   0  0  0  0  0  0  0  0  0  0  0  0
    3.4529   -6.1611    1.2218 C   0  0  1  0  0  0  0  0  0  0  0  0
    3.1930   -7.6667    1.0855 C   0  0  0  0  0  0  0  0  0  0  0  0
    4.3088   -5.7173    0.1147 N   0  0  0  0  0  0  0  0  0  0  0  0
    5.5879   -5.1329    0.3535 C   0  0  0  0  0  0  0  0  0  0  0  0
    5.6502   -4.0155    0.9392 O   0  0  0  0  0  0  0  0  0  0  0  0
    6.8613   -5.7908   -0.1196 C   0  0  1  0  0  0  0  0  0  0  0  0
    6.7218   -7.3102   -0.2496 C   0  0  0  0  0  0  0  0  0  0  0  0
    7.2775   -5.2175   -1.4057 N   0  0  0  0  0  0  0  0  0  0  0  0
    8.1757   -4.1110   -1.5638 C   0  0  0  0  0  0  0  0  0  0  0  0
    8.5067   -3.7741   -2.7348 O   0  0  0  0  0  0  0  0  0  0  0  0
    8.8298   -3.4252   -0.3856 C   0  0  1  0  0  0  0  0  0  0  0  0
   10.1336   -4.1386   -0.0188 C   0  0  0  0  0  0  0  0  0  0  0  0
    9.1182   -2.0201   -0.7072 N   0  0  0  0  0  0  0  0  0  0  0  0
    8.3575   -0.9689   -0.1052 C   0  0  0  0  0  0  0  0  0  0  0  0
    7.1134   -0.8880   -0.3337 O   0  0  0  0  0  0  0  0  0  0  0  0
    9.0362    0.0832    0.7294 C   0  0  1  0  0  0  0  0  0  0  0  0
   10.1150   -0.5345    1.6312 C   0  0  0  0  0  0  0  0  0  0  0  0
    9.6478    1.0848   -0.1473 N   0  0  0  0  0  0  0  0  0  0  0  0
    9.5224    2.5124    0.0007 C   0  0  0  0  0  0  0  0  0  0  0  0
   10.3688    3.2535   -0.5684 O   0  0  0  0  0  0  0  0  0  0  0  0
    8.4108    3.1516    0.8113 C   0  0  1  0  0  0  0  0  0  0  0  0
    8.8684    3.3249    2.2741 C   0  0  0  0  0  0  0  0  0  0  0  0
    8.0197    4.4396    0.2180 N   0  0  0  0  0  0  0  0  0  0  0  0
    7.1078    5.3376    0.8761 C   0  0  0  0  0  0  0  0  0  0  0  0
    7.4896    5.9767    1.8931 O   0  0  0  0  0  0  0  0  0  0  0  0
    1.0077   -3.5239   -1.0811 C   0  0  0  0  0  0  0  0  0  0  0  0
    1.8041   -2.8437   -1.7861 O   0  0  0  0  0  0  0  0  0  0  0  0
    0.2768   -4.5868   -1.7137 N   0  0  0  0  0  0  0  0  0  0  0  0
   -1.0083   -5.1474   -1.2694 C   0  0  2  0  0  0  0  0  0  0  0  0
   -0.9527   -6.6785   -1.3668 C   0  0  0  0  0  0  0  0  0  0  0  0
   -2.1314   -4.5943   -2.1208 C   0  0  0  0  0  0  0  0  0  0  0  0
   -1.9013   -4.3181   -3.3307 O   0  0  0  0  0  0  0  0  0  0  0  0
   -3.4558   -4.3648   -1.6174 N   0  0  0  0  0  0  0  0  0  0  0  0
   -4.0646   -5.1233   -0.5235 C   0  0  2  0  0  0  0  0  0  0  0  0
   -4.7245   -6.3934   -1.0663 C   0  0  0  0  0  0  0  0  0  0  0  0
   -5.0926   -4.2833    0.2101 C   0  0  0  0  0  0  0  0  0  0  0  0
   -4.9354   -4.0581    1.4423 O   0  0  0  0  0  0  0  0  0  0  0  0
   -6.2583   -3.7906   -0.4686 N   0  0  0  0  0  0  0  0  0  0  0  0
   -7.4476   -3.3199    0.2474 C   0  0  2  0  0  0  0  0  0  0  0  0
   -8.1901   -4.5147    0.8593 C   0  0  0  0  0  0  0  0  0  0  0  0
   -8.3619   -2.5657   -0.6934 C   0  0  0  0  0  0  0  0  0  0  0  0
   -8.6834   -3.0889   -1.7954 O   0  0  0  0  0  0  0  0  0  0  0  0
   -8.8761   -1.2718   -0.3647 N   0  0  0  0  0  0  0  0  0  0  0  0
   -9.5763   -1.0114    0.8963 C   0  0  2  0  0  0  0  0  0  0  0  0
  -11.0154   -1.5165    0.7875 C   0  0  0  0  0  0  0  0  0  0  0  0
   -9.4778    0.4623    1.2252 C   0  0  0  0  0  0  0  0  0  0  0  0
   -8.4102    0.9037    1.7280 O   0  0  0  0  0  0  0  0  0  0  0  0
  -10.5540    1.3707    0.9461 N   0  0  0  0  0  0  0  0  0  0  0  0
  -10.3424    2.8181    0.8574 C   0  0  2  0  0  0  0  0  0  0  0  0
  -11.6864    3.5573    0.7302 C   0  0  0  0  0  0  0  0  0  0  0  0
   -9.4733    3.1269   -0.3357 C   0  0  0  0  0  0  0  0  0  0  0  0
   -9.7207    2.5758   -1.4421 O   0  0  0  0  0  0  0  0  0  0  0  0
   -8.3291    3.9877   -0.2288 N   0  0  0  0  0  0  0  0  0  0  0  0
   -8.3998    5.3137    0.3937 C   0  0  2  0  0  0  0  0  0  0  0  0
   -8.5971    6.3957   -0.6683 C   0  0  0  0  0  0  0  0  0  0  0  0
   -7.1815    5.6114    1.2336 C   0  0  0  0  0  0  0  0  0  0  0  0
   -7.2870    6.4516    2.1644 O   0  0  0  0  0  0  0  0  0  0  0  0
   -5.9210    4.9560    1.0473 N   0  0  0  0  0  0  0  0  0  0  0  0
   -5.1437    5.0716   -0.1880 C   0  0  1  0  0  0  0  0  0  0  0  0
   -4.4287    6.3951   -0.2071 C   0  0  0  0  0  0  0  0  0  0  0  0
   -4.6019    7.3072   -1.2940 N   0  0  0  0  0  0  0  0  0  0  0  0
   -3.6871    6.7273    0.7638 O   0  0  0  0  0  0  0  0  0  0  0  0
   -4.1531    3.9020   -0.2663 C   0  0  0  0  0  0  0  0  0  0  0  0
   -3.4759    3.6686   -1.9506 S   0  0  0  0  0  0  0  0  0  0  0  0
   -1.8425    4.4485   -1.6681 C   0  0  0  0  0  0  0  0  0  0  0  0
    6.1327    9.6041   -0.4944 H   0  0  0  0  0  0  0  0  0  0  0  0
    6.6673    9.3536   -2.2012 H   0  0  0  0  0  0  0  0  0  0  0  0
    4.9310    9.1194   -1.7641 H   0  0  0  0  0  0  0  0  0  0  0  0
    4.7738    7.4862    0.4713 H   0  0  0  0  0  0  0  0  0  0  0  0
    5.0357    5.3412    1.2689 H   0  0  0  0  0  0  0  0  0  0  0  0
    5.4278    3.4741   -0.3477 H   0  0  0  0  0  0  0  0  0  0  0  0
    5.9093    4.6436   -1.6132 H   0  0  0  0  0  0  0  0  0  0  0  0
    2.6074    5.0734    0.9642 H   0  0  0  0  0  0  0  0  0  0  0  0
    3.4167    3.4720    0.8708 H   0  0  0  0  0  0  0  0  0  0  0  0
    0.6500    5.1662   -1.1091 H   0  0  0  0  0  0  0  0  0  0  0  0
   -2.1088    1.9397   -0.3798 H   0  0  0  0  0  0  0  0  0  0  0  0
    1.8156    1.8150    1.3147 H   0  0  0  0  0  0  0  0  0  0  0  0
    0.1283    0.3264    2.1199 H   0  0  0  0  0  0  0  0  0  0  0  0
   -1.5665    0.5465    1.6554 H   0  0  0  0  0  0  0  0  0  0  0  0
    1.9063   -1.2767    0.3875 H   0  0  0  0  0  0  0  0  0  0  0  0
    1.0030   -1.7096    1.8796 H   0  0  0  0  0  0  0  0  0  0  0  0
    0.0767   -3.6885    0.9017 H   0  0  0  0  0  0  0  0  0  0  0  0
    3.0689   -3.4423    1.0246 H   0  0  0  0  0  0  0  0  0  0  0  0
    3.9779   -5.9916    2.1936 H   0  0  0  0  0  0  0  0  0  0  0  0
    2.5692   -7.8775    0.1888 H   0  0  0  0  0  0  0  0  0  0  0  0
    4.1528   -8.2181    0.9789 H   0  0  0  0  0  0  0  0  0  0  0  0
    2.6811   -8.0629    1.9927 H   0  0  0  0  0  0  0  0  0  0  0  0
    4.0052   -5.9080   -0.8742 H   0  0  0  0  0  0  0  0  0  0  0  0
    7.6446   -5.6216    0.6508 H   0  0  0  0  0  0  0  0  0  0  0  0
    6.4834   -7.7502    0.7461 H   0  0  0  0  0  0  0  0  0  0  0  0
    7.6797   -7.7456   -0.6059 H   0  0  0  0  0  0  0  0  0  0  0  0
    5.9176   -7.5782   -0.9691 H   0  0  0  0  0  0  0  0  0  0  0  0
    6.8135   -5.5829   -2.2737 H   0  0  0  0  0  0  0  0  0  0  0  0
    8.1517   -3.4557    0.4964 H   0  0  0  0  0  0  0  0  0  0  0  0
    9.9463   -5.1946    0.2532 H   0  0  0  0  0  0  0  0  0  0  0  0
   10.6056   -3.6331    0.8495 H   0  0  0  0  0  0  0  0  0  0  0  0
   10.8481   -4.1157   -0.8708 H   0  0  0  0  0  0  0  0  0  0  0  0
   10.0223   -1.7723   -1.1676 H   0  0  0  0  0  0  0  0  0  0  0  0
    8.2778    0.5380    1.4003 H   0  0  0  0  0  0  0  0  0  0  0  0
    9.6785   -1.3424    2.2595 H   0  0  0  0  0  0  0  0  0  0  0  0
   10.5322    0.2497    2.3052 H   0  0  0  0  0  0  0  0  0  0  0  0
   10.9458   -0.9503    1.0253 H   0  0  0  0  0  0  0  0  0  0  0  0
   10.3550    0.7454   -0.8391 H   0  0  0  0  0  0  0  0  0  0  0  0
    7.5114    2.4946    0.7803 H   0  0  0  0  0  0  0  0  0  0  0  0
    9.6221    4.1428    2.3450 H   0  0  0  0  0  0  0  0  0  0  0  0
    9.3348    2.3914    2.6530 H   0  0  0  0  0  0  0  0  0  0  0  0
    7.9979    3.5648    2.9237 H   0  0  0  0  0  0  0  0  0  0  0  0
    8.0904    4.5343   -0.8231 H   0  0  0  0  0  0  0  0  0  0  0  0
    0.6068   -4.8670   -2.6639 H   0  0  0  0  0  0  0  0  0  0  0  0
   -1.1990   -4.8889   -0.2178 H   0  0  0  0  0  0  0  0  0  0  0  0
   -0.9611   -7.0156   -2.4304 H   0  0  0  0  0  0  0  0  0  0  0  0
   -0.0230   -7.0647   -0.8842 H   0  0  0  0  0  0  0  0  0  0  0  0
   -1.8164   -7.1337   -0.8356 H   0  0  0  0  0  0  0  0  0  0  0  0
   -4.0861   -3.7804   -2.2180 H   0  0  0  0  0  0  0  0  0  0  0  0
   -3.2915   -5.4306    0.2125 H   0  0  0  0  0  0  0  0  0  0  0  0
   -5.0826   -7.0240   -0.2269 H   0  0  0  0  0  0  0  0  0  0  0  0
   -5.5844   -6.1450   -1.7280 H   0  0  0  0  0  0  0  0  0  0  0  0
   -3.9955   -6.9783   -1.6657 H   0  0  0  0  0  0  0  0  0  0  0  0
   -6.2622   -3.8083   -1.5172 H   0  0  0  0  0  0  0  0  0  0  0  0
   -7.1304   -2.6382    1.0632 H   0  0  0  0  0  0  0  0  0  0  0  0
   -9.1165   -4.1814    1.3738 H   0  0  0  0  0  0  0  0  0  0  0  0
   -7.5447   -5.0199    1.6085 H   0  0  0  0  0  0  0  0  0  0  0  0
   -8.4568   -5.2494    0.0652 H   0  0  0  0  0  0  0  0  0  0  0  0
   -9.1017   -0.6455   -1.1760 H   0  0  0  0  0  0  0  0  0  0  0  0
   -9.0968   -1.5771    1.7329 H   0  0  0  0  0  0  0  0  0  0  0  0
  -11.0254   -2.6195    0.6415 H   0  0  0  0  0  0  0  0  0  0  0  0
  -11.5258   -1.0510   -0.0865 H   0  0  0  0  0  0  0  0  0  0  0  0
  -11.5816   -1.2831    1.7136 H   0  0  0  0  0  0  0  0  0  0  0  0
  -11.5441    1.0284    1.0724 H   0  0  0  0  0  0  0  0  0  0  0  0
   -9.8375    3.1673    1.7839 H   0  0  0  0  0  0  0  0  0  0  0  0
  -12.2408    3.2057   -0.1645 H   0  0  0  0  0  0  0  0  0  0  0  0
  -12.3002    3.3587    1.6341 H   0  0  0  0  0  0  0  0  0  0  0  0
  -11.5267    4.6538    0.6468 H   0  0  0  0  0  0  0  0  0  0  0  0
   -7.5500    3.7814   -0.8938 H   0  0  0  0  0  0  0  0  0  0  0  0
   -9.2771    5.3468    1.0759 H   0  0  0  0  0  0  0  0  0  0  0  0
   -8.8315    7.3597   -0.1750 H   0  0  0  0  0  0  0  0  0  0  0  0
   -7.6900    6.5186   -1.2864 H   0  0  0  0  0  0  0  0  0  0  0  0
   -9.4513    6.1256   -1.3244 H   0  0  0  0  0  0  0  0  0  0  0  0
   -5.3833    4.7519    1.9204 H   0  0  0  0  0  0  0  0  0  0  0  0
   -5.8089    5.0231   -1.0719 H   0  0  0  0  0  0  0  0  0  0  0  0
   -4.0928    8.2168   -1.3031 H   0  0  0  0  0  0  0  0  0  0  0  0
   -5.1889    7.0456   -2.1209 H   0  0  0  0  0  0  0  0  0  0  0  0
   -3.3471    4.0106    0.4902 H   0  0  0  0  0  0  0  0  0  0  0  0
   -4.6980    2.9629   -0.0249 H   0  0  0  0  0  0  0  0  0  0  0  0
   -1.9925    5.4374   -1.1772 H   0  0  0  0  0  0  0  0  0  0  0  0
   -1.3981    4.6412   -2.6697 H   0  0  0  0  0  0  0  0  0  0  0  0
  1  2  1  0
  2  3  2  0
  2  4  1  0
  4  5  1  0
  5  6  1  0
  6  7  1  0
  7  8  1  0
  8  9  1  0
  9 10  1  0
 10 11  2  0
 11 12  1  0
 12 13  2  0
 13 14  1  0
 13 15  1  0
 15 16  1  0
 16 17  1  0
 17 18  1  0
 18 19  1  0
 19 20  1  0
 20 21  2  0
 20 22  1  0
 22 23  1  0
 22 24  1  0
 24 25  1  0
 25 26  2  0
 25 27  1  0
 27 28  1  0
 27 29  1  0
 29 30  1  0
 30 31  2  0
 30 32  1  0
 32 33  1  0
 32 34  1  0
 34 35  1  0
 35 36  2  0
 35 37  1  0
 37 38  1  0
 37 39  1  0
 39 40  1  0
 40 41  2  0
 40 42  1  0
 42 43  1  0
 42 44  1  0
 44 45  1  0
 45 46  2  0
 18 47  1  0
 47 48  2  0
 47 49  1  0
 49 50  1  0
 50 51  1  0
 50 52  1  0
 52 53  2  0
 52 54  1  0
 54 55  1  0
 55 56  1  0
 55 57  1  0
 57 58  2  0
 57 59  1  0
 59 60  1  0
 60 61  1  0
 60 62  1  0
 62 63  2  0
 62 64  1  0
 64 65  1  0
 65 66  1  0
 65 67  1  0
 67 68  2  0
 67 69  1  0
 69 70  1  0
 70 71  1  0
 70 72  1  0
 72 73  2  0
 72 74  1  0
 74 75  1  0
 75 76  1  0
 75 77  1  0
 77 78  2  0
 77 79  1  0
 79 80  1  0
 80 81  1  0
 81 82  1  0
 81 83  2  0
 80 84  1  0
 84 85  1  0
 85 86  1  0
 45  5  1  0
 14  9  2  0
 86 11  1  0
  1 87  1  0
  1 88  1  0
  1 89  1  0
  4 90  1  0
  5 91  1  1
  6 92  1  0
  6 93  1  0
  8 94  1  0
  8 95  1  0
 10 96  1  0
 12 97  1  0
 14 98  1  0
 15 99  1  0
 15100  1  0
 17101  1  0
 17102  1  0
 18103  1  1
 19104  1  0
 22105  1  1
 23106  1  0
 23107  1  0
 23108  1  0
 24109  1  0
 27110  1  1
 28111  1  0
 28112  1  0
 28113  1  0
 29114  1  0
 32115  1  1
 33116  1  0
 33117  1  0
 33118  1  0
 34119  1  0
 37120  1  1
 38121  1  0
 38122  1  0
 38123  1  0
 39124  1  0
 42125  1  1
 43126  1  0
 43127  1  0
 43128  1  0
 44129  1  0
 49130  1  0
 50131  1  1
 51132  1  0
 51133  1  0
 51134  1  0
 54135  1  0
 55136  1  1
 56137  1  0
 56138  1  0
 56139  1  0
 59140  1  0
 60141  1  1
 61142  1  0
 61143  1  0
 61144  1  0
 64145  1  0
 65146  1  1
 66147  1  0
 66148  1  0
 66149  1  0
 69150  1  0
 70151  1  1
 71152  1  0
 71153  1  0
 71154  1  0
 74155  1  0
 75156  1  1
 76157  1  0
 76158  1  0
 76159  1  0
 79160  1  0
 80161  1  6
 82162  1  0
 82163  1  0
 84164  1  0
 84165  1  0
 86166  1  0
 86167  1  0
M  END
