
     RDKit          3D

167169  0  0  0  0  0  0  0  0999 V2000
    7.3576    6.6574   -0.5790 C   0  0  0  0  0  0  0  0  0  0  0  0
    6.6241    5.4662   -0.0513 C   0  0  0  0  0  0  0  0  0  0  0  0
    6.4852    5.3392    1.1942 O   0  0  0  0  0  0  0  0  0  0  0  0
    6.0601    4.4986   -0.9558 N   0  0  0  0  0  0  0  0  0  0  0  0
    5.2479    3.3458   -0.5390 C   0  0  2  0  0  0  0  0  0  0  0  0
    4.0279    3.7691    0.3200 C   0  0  0  0  0  0  0  0  0  0  0  0
    3.2050    5.2993   -0.2799 S   0  0  0  0  0  0  0  0  0  0  0  0
    2.4034    4.5880   -1.7613 C   0  0  0  0  0  0  0  0  0  0  0  0
    1.0824    3.9705   -1.3941 C   0  0  0  0  0  0  0  0  0  0  0  0
   -0.0630    4.7677   -1.2907 C   0  0  0  0  0  0  0  0  0  0  0  0
   -1.3043    4.1975   -0.9868 C   0  0  0  0  0  0  0  0  0  0  0  0
   -1.4012    2.8052   -0.7972 C   0  0  0  0  0  0  0  0  0  0  0  0
   -0.2643    1.9807   -0.9320 C   0  0  0  0  0  0  0  0  0  0  0  0
    0.9814    2.5886   -1.1977 C   0  0  0  0  0  0  0  0  0  0  0  0
   -0.4131    0.4789   -0.7408 C   0  0  0  0  0  0  0  0  0  0  0  0
    0.9997   -0.4687   -1.4204 S   0  0  0  0  0  0  0  0  0  0  0  0
    0.2027   -2.1008   -1.5993 C   0  0  0  0  0  0  0  0  0  0  0  0
   -0.0180   -2.8512   -0.2619 C   0  0  2  0  0  0  0  0  0  0  0  0
    0.9970   -2.5338    0.7559 N   0  0  0  0  0  0  0  0  0  0  0  0
    2.3248   -3.0837    0.8722 C   0  0  0  0  0  0  0  0  0  0  0  0
    2.8325   -3.1811    2.0168 O   0  0  0  0  0  0  0  0  0  0  0  0
    3.2022   -3.3648   -0.3320 C   0  0  1  0  0  0  0  0  0  0  0  0
    4.1903   -2.2033   -0.5094 C   0  0  0  0  0  0  0  0  0  0  0  0
    3.9523   -4.6131   -0.1602 N   0  0  0  0  0  0  0  0  0  0  0  0
    4.7696   -5.1496   -1.2048 C   0  0  0  0  0  0  0  0  0  0  0  0
    4.4910   -4.9038   -2.4133 O   0  0  0  0  0  0  0  0  0  0  0  0
    5.9438   -6.0327   -0.8709 C   0  0  1  0  0  0  0  0  0  0  0  0
    5.5532   -7.5098   -0.9352 C   0  0  0  0  0  0  0  0  0  0  0  0
    7.0506   -5.7689   -1.8004 N   0  0  0  0  0  0  0  0  0  0  0  0
    8.2220   -4.9943   -1.5024 C   0  0  0  0  0  0  0  0  0  0  0  0
    9.1533   -4.9554   -2.3524 O   0  0  0  0  0  0  0  0  0  0  0  0
    8.4048   -4.2608   -0.1916 C   0  0  1  0  0  0  0  0  0  0  0  0
    9.1544   -5.1488    0.8041 C   0  0  0  0  0  0  0  0  0  0  0  0
    9.1582   -3.0218   -0.4067 N   0  0  0  0  0  0  0  0  0  0  0  0
    8.4992   -1.7541   -0.4077 C   0  0  0  0  0  0  0  0  0  0  0  0
    8.0339   -1.3013   -1.4893 O   0  0  0  0  0  0  0  0  0  0  0  0
    8.4435   -0.8984    0.8294 C   0  0  1  0  0  0  0  0  0  0  0  0
    8.6920   -1.6974    2.1118 C   0  0  0  0  0  0  0  0  0  0  0  0
    9.4264    0.1782    0.7227 N   0  0  0  0  0  0  0  0  0  0  0  0
    9.1740    1.4498    1.3237 C   0  0  0  0  0  0  0  0  0  0  0  0
    9.5263    1.6505    2.5170 O   0  0  0  0  0  0  0  0  0  0  0  0
    8.5880    2.5782    0.5217 C   0  0  1  0  0  0  0  0  0  0  0  0
    9.6467    3.1907   -0.3951 C   0  0  0  0  0  0  0  0  0  0  0  0
    7.4559    2.1081   -0.2766 N   0  0  0  0  0  0  0  0  0  0  0  0
    6.1038    2.3137    0.1453 C   0  0  0  0  0  0  0  0  0  0  0  0
    5.5727    1.4694    0.9262 O   0  0  0  0  0  0  0  0  0  0  0  0
   -0.1574   -4.3547   -0.4387 C   0  0  0  0  0  0  0  0  0  0  0  0
    0.3188   -4.9051   -1.4688 O   0  0  0  0  0  0  0  0  0  0  0  0
   -0.8114   -5.1896    0.5351 N   0  0  0  0  0  0  0  0  0  0  0  0
   -1.4203   -4.7250    1.7860 C   0  0  2  0  0  0  0  0  0  0  0  0
   -0.9938   -5.6493    2.9273 C   0  0  0  0  0  0  0  0  0  0  0  0
   -2.9312   -4.6594    1.6953 C   0  0  0  0  0  0  0  0  0  0  0  0
   -3.5623   -4.0578    2.6102 O   0  0  0  0  0  0  0  0  0  0  0  0
   -3.6645   -5.3098    0.6351 N   0  0  0  0  0  0  0  0  0  0  0  0
   -5.1286   -5.2609    0.5666 C   0  0  2  0  0  0  0  0  0  0  0  0
   -5.6530   -6.3923   -0.3282 C   0  0  0  0  0  0  0  0  0  0  0  0
   -5.5691   -3.9219    0.0368 C   0  0  0  0  0  0  0  0  0  0  0  0
   -5.1660   -3.5314   -1.0918 O   0  0  0  0  0  0  0  0  0  0  0  0
   -6.3355   -3.0268    0.8516 N   0  0  0  0  0  0  0  0  0  0  0  0
   -7.7980   -3.0738    0.9693 C   0  0  2  0  0  0  0  0  0  0  0  0
   -8.2494   -4.2884    1.7845 C   0  0  0  0  0  0  0  0  0  0  0  0
   -8.4638   -3.0369   -0.3873 C   0  0  0  0  0  0  0  0  0  0  0  0
   -8.3810   -4.0361   -1.1537 O   0  0  0  0  0  0  0  0  0  0  0  0
   -9.2677   -1.9137   -0.7894 N   0  0  0  0  0  0  0  0  0  0  0  0
   -8.7098   -0.6552   -1.3045 C   0  0  2  0  0  0  0  0  0  0  0  0
   -7.6179   -0.9194   -2.3506 C   0  0  0  0  0  0  0  0  0  0  0  0
   -8.2013    0.2094   -0.1803 C   0  0  0  0  0  0  0  0  0  0  0  0
   -7.1652   -0.1358    0.4455 O   0  0  0  0  0  0  0  0  0  0  0  0
   -8.8750    1.4111    0.2216 N   0  0  0  0  0  0  0  0  0  0  0  0
   -9.3526    2.4450   -0.7062 C   0  0  2  0  0  0  0  0  0  0  0  0
   -8.3766    2.6769   -1.8721 C   0  0  0  0  0  0  0  0  0  0  0  0
   -9.6384    3.7307    0.0454 C   0  0  0  0  0  0  0  0  0  0  0  0
  -10.7857    4.2376   -0.0693 O   0  0  0  0  0  0  0  0  0  0  0  0
   -8.7078    4.3420    0.9597 N   0  0  0  0  0  0  0  0  0  0  0  0
   -7.2510    4.4266    0.7575 C   0  0  2  0  0  0  0  0  0  0  0  0
   -6.5271    3.3663    1.5848 C   0  0  0  0  0  0  0  0  0  0  0  0
   -6.7290    5.7801    1.1600 C   0  0  0  0  0  0  0  0  0  0  0  0
   -7.1279    6.3183    2.2260 O   0  0  0  0  0  0  0  0  0  0  0  0
   -5.6492    6.3666    0.4169 N   0  0  0  0  0  0  0  0  0  0  0  0
   -4.8215    7.4409    0.9735 C   0  0  2  0  0  0  0  0  0  0  0  0
   -5.4822    8.7657    0.6905 C   0  0  0  0  0  0  0  0  0  0  0  0
   -5.7418    9.1683   -0.6535 N   0  0  0  0  0  0  0  0  0  0  0  0
   -5.8648    9.4896    1.6437 O   0  0  0  0  0  0  0  0  0  0  0  0
   -3.3979    7.3904    0.3889 C   0  0  0  0  0  0  0  0  0  0  0  0
   -2.5624    5.8038    0.8078 S   0  0  0  0  0  0  0  0  0  0  0  0
   -2.5094    5.0847   -0.8682 C   0  0  0  0  0  0  0  0  0  0  0  0
    8.3949    6.6769   -0.1673 H   0  0  0  0  0  0  0  0  0  0  0  0
    7.4224    6.6293   -1.6846 H   0  0  0  0  0  0  0  0  0  0  0  0
    6.8271    7.5836   -0.2711 H   0  0  0  0  0  0  0  0  0  0  0  0
    6.1998    4.6420   -1.9844 H   0  0  0  0  0  0  0  0  0  0  0  0
    4.8655    2.8459   -1.4548 H   0  0  0  0  0  0  0  0  0  0  0  0
    3.2909    2.9430    0.3754 H   0  0  0  0  0  0  0  0  0  0  0  0
    4.3534    3.9632    1.3651 H   0  0  0  0  0  0  0  0  0  0  0  0
    2.2409    5.3989   -2.5006 H   0  0  0  0  0  0  0  0  0  0  0  0
    3.0540    3.8451   -2.2541 H   0  0  0  0  0  0  0  0  0  0  0  0
    0.0118    5.8253   -1.4832 H   0  0  0  0  0  0  0  0  0  0  0  0
   -2.3650    2.3499   -0.5909 H   0  0  0  0  0  0  0  0  0  0  0  0
    1.8788    1.9916   -1.2858 H   0  0  0  0  0  0  0  0  0  0  0  0
   -1.3449    0.1349   -1.2382 H   0  0  0  0  0  0  0  0  0  0  0  0
   -0.4931    0.2527    0.3439 H   0  0  0  0  0  0  0  0  0  0  0  0
   -0.7692   -1.9857   -2.1245 H   0  0  0  0  0  0  0  0  0  0  0  0
    0.8414   -2.6794   -2.2921 H   0  0  0  0  0  0  0  0  0  0  0  0
   -1.0008   -2.4813    0.1041 H   0  0  0  0  0  0  0  0  0  0  0  0
    0.6569   -1.9922    1.5863 H   0  0  0  0  0  0  0  0  0  0  0  0
    2.5896   -3.4558   -1.2390 H   0  0  0  0  0  0  0  0  0  0  0  0
    3.6555   -1.2336   -0.6003 H   0  0  0  0  0  0  0  0  0  0  0  0
    4.7976   -2.3487   -1.4314 H   0  0  0  0  0  0  0  0  0  0  0  0
    4.8807   -2.1428    0.3558 H   0  0  0  0  0  0  0  0  0  0  0  0
    3.7848   -5.2119    0.6872 H   0  0  0  0  0  0  0  0  0  0  0  0
    6.2554   -5.8364    0.1765 H   0  0  0  0  0  0  0  0  0  0  0  0
    6.4290   -8.1369   -0.6515 H   0  0  0  0  0  0  0  0  0  0  0  0
    5.2184   -7.7938   -1.9605 H   0  0  0  0  0  0  0  0  0  0  0  0
    4.7344   -7.7209   -0.2152 H   0  0  0  0  0  0  0  0  0  0  0  0
    6.9616   -6.1366   -2.7777 H   0  0  0  0  0  0  0  0  0  0  0  0
    7.4117   -3.9974    0.2330 H   0  0  0  0  0  0  0  0  0  0  0  0
    8.6228   -6.1134    0.9330 H   0  0  0  0  0  0  0  0  0  0  0  0
   10.1831   -5.3518    0.4384 H   0  0  0  0  0  0  0  0  0  0  0  0
    9.2219   -4.6450    1.7892 H   0  0  0  0  0  0  0  0  0  0  0  0
   10.1467   -3.0660   -0.7465 H   0  0  0  0  0  0  0  0  0  0  0  0
    7.4238   -0.4653    0.8995 H   0  0  0  0  0  0  0  0  0  0  0  0
    8.6087   -1.0340    2.9976 H   0  0  0  0  0  0  0  0  0  0  0  0
    9.7082   -2.1492    2.1074 H   0  0  0  0  0  0  0  0  0  0  0  0
    7.9288   -2.4989    2.2188 H   0  0  0  0  0  0  0  0  0  0  0  0
   10.4252   -0.0847    0.5587 H   0  0  0  0  0  0  0  0  0  0  0  0
    8.2438    3.3659    1.2251 H   0  0  0  0  0  0  0  0  0  0  0  0
    9.1994    4.0214   -0.9819 H   0  0  0  0  0  0  0  0  0  0  0  0
   10.4889    3.5970    0.2047 H   0  0  0  0  0  0  0  0  0  0  0  0
   10.0397    2.4323   -1.1069 H   0  0  0  0  0  0  0  0  0  0  0  0
    7.6260    1.5150   -1.1240 H   0  0  0  0  0  0  0  0  0  0  0  0
   -0.9180   -6.2035    0.2932 H   0  0  0  0  0  0  0  0  0  0  0  0
   -1.0486   -3.7104    2.0381 H   0  0  0  0  0  0  0  0  0  0  0  0
   -1.2543   -6.7020    2.6935 H   0  0  0  0  0  0  0  0  0  0  0  0
   -1.4875   -5.3539    3.8763 H   0  0  0  0  0  0  0  0  0  0  0  0
    0.1040   -5.5787    3.0750 H   0  0  0  0  0  0  0  0  0  0  0  0
   -3.1502   -5.7738   -0.1458 H   0  0  0  0  0  0  0  0  0  0  0  0
   -5.5437   -5.4213    1.5863 H   0  0  0  0  0  0  0  0  0  0  0  0
   -5.2647   -6.2902   -1.3642 H   0  0  0  0  0  0  0  0  0  0  0  0
   -5.3336   -7.3715    0.0838 H   0  0  0  0  0  0  0  0  0  0  0  0
   -6.7612   -6.3734   -0.3721 H   0  0  0  0  0  0  0  0  0  0  0  0
   -5.8313   -2.1869    1.2250 H   0  0  0  0  0  0  0  0  0  0  0  0
   -8.1272   -2.1816    1.5418 H   0  0  0  0  0  0  0  0  0  0  0  0
   -9.3443   -4.2420    1.9585 H   0  0  0  0  0  0  0  0  0  0  0  0
   -7.7337   -4.2863    2.7689 H   0  0  0  0  0  0  0  0  0  0  0  0
   -8.0173   -5.2322    1.2564 H   0  0  0  0  0  0  0  0  0  0  0  0
  -10.2678   -2.1153   -1.0186 H   0  0  0  0  0  0  0  0  0  0  0  0
   -9.5312   -0.1098   -1.8179 H   0  0  0  0  0  0  0  0  0  0  0  0
   -6.7452   -1.4230   -1.8859 H   0  0  0  0  0  0  0  0  0  0  0  0
   -8.0185   -1.5654   -3.1614 H   0  0  0  0  0  0  0  0  0  0  0  0
   -7.2681    0.0348   -2.7992 H   0  0  0  0  0  0  0  0  0  0  0  0
   -8.8886    1.6117    1.2484 H   0  0  0  0  0  0  0  0  0  0  0  0
  -10.3089    2.0885   -1.1522 H   0  0  0  0  0  0  0  0  0  0  0  0
   -8.4547    3.7120   -2.2632 H   0  0  0  0  0  0  0  0  0  0  0  0
   -8.6239    1.9983   -2.7132 H   0  0  0  0  0  0  0  0  0  0  0  0
   -7.3262    2.4770   -1.5748 H   0  0  0  0  0  0  0  0  0  0  0  0
   -9.1279    4.8583    1.7631 H   0  0  0  0  0  0  0  0  0  0  0  0
   -7.0050    4.2867   -0.3058 H   0  0  0  0  0  0  0  0  0  0  0  0
   -6.8590    3.3915    2.6438 H   0  0  0  0  0  0  0  0  0  0  0  0
   -6.6979    2.3572    1.1704 H   0  0  0  0  0  0  0  0  0  0  0  0
   -5.4274    3.5284    1.5485 H   0  0  0  0  0  0  0  0  0  0  0  0
   -5.3415    5.8986   -0.4620 H   0  0  0  0  0  0  0  0  0  0  0  0
   -4.7273    7.2986    2.0756 H   0  0  0  0  0  0  0  0  0  0  0  0
   -5.4133    8.5925   -1.4551 H   0  0  0  0  0  0  0  0  0  0  0  0
   -6.2670   10.0490   -0.8444 H   0  0  0  0  0  0  0  0  0  0  0  0
   -3.4250    7.5741   -0.7021 H   0  0  0  0  0  0  0  0  0  0  0  0
   -2.7947    8.2109    0.8329 H   0  0  0  0  0  0  0  0  0  0  0  0
   -2.4244    5.8734   -1.6375 H   0  0  0  0  0  0  0  0  0  0  0  0
   -3.4429    4.5224   -1.0719 H   0  0  0  0  0  0  0  0  0  0  0  0
  1  2  1  0
  2  3  2  0
  2  4  1  0
  4  5  1  0
  5  6  1  0
  6  7  1  0
  7  8  1  0
  8  9  1  0
  9 10  1  0
 10 11  2  0
 11 12  1  0
 12 13  2  0
 13 14  1  0
 13 15  1  0
 15 16  1  0
 16 17  1  0
 17 18  1  0
 18 19  1  0
 19 20  1  0
 20 21  2  0
 20 22  1  0
 22 23  1  0
 22 24  1  0
 24 25  1  0
 25 26  2  0
 25 27  1  0
 27 28  1  0
 27 29  1  0
 29 30  1  0
 30 31  2  0
 30 32  1  0
 32 33  1  0
 32 34  1  0
 34 35  1  0
 35 36  2  0
 35 37  1  0
 37 38  1  0
 37 39  1  0
 39 40  1  0
 40 41  2  0
 40 42  1  0
 42 43  1  0
 42 44  1  0
 44 45  1  0
 45 46  2  0
 18 47  1  0
 47 48  2  0
 47 49  1  0
 49 50  1  0
 50 51  1  0
 50 52  1  0
 52 53  2  0
 52 54  1  0
 54 55  1  0
 55 56  1  0
 55 57  1  0
 57 58  2  0
 57 59  1  0
 59 60  1  0
 60 61  1  0
 60 62  1  0
 62 63  2  0
 62 64  1  0
 64 65  1  0
 65 66  1  0
 65 67  1  0
 67 68  2  0
 67 69  1  0
 69 70  1  0
 70 71  1  0
 70 72  1  0
 72 73  2  0
 72 74  1  0
 74 75  1  0
 75 76  1  0
 75 77  1  0
 77 78  2  0
 77 79  1  0
 79 80  1  0
 80 81  1  0
 81 82  1  0
 81 83  2  0
 80 84  1  0
 84 85  1  0
 85 86  1  0
 45  5  1  0
 14  9  2  0
 86 11  1  0
  1 87  1  0
  1 88  1  0
  1 89  1  0
  4 90  1  0
  5 91  1  6
  6 92  1  0
  6 93  1  0
  8 94  1  0
  8 95  1  0
 10 96  1  0
 12 97  1  0
 14 98  1  0
 15 99  1  0
 15100  1  0
 17101  1  0
 17102  1  0
 18103  1  1
 19104  1  0
 22105  1  6
 23106  1  0
 23107  1  0
 23108  1  0
 24109  1  0
 27110  1  1
 28111  1  0
 28112  1  0
 28113  1  0
 29114  1  0
 32115  1  1
 33116  1  0
 33117  1  0
 33118  1  0
 34119  1  0
 37120  1  1
 38121  1  0
 38122  1  0
 38123  1  0
 39124  1  0
 42125  1  1
 43126  1  0
 43127  1  0
 43128  1  0
 44129  1  0
 49130  1  0
 50131  1  1
 51132  1  0
 51133  1  0
 51134  1  0
 54135  1  0
 55136  1  1
 56137  1  0
 56138  1  0
 56139  1  0
 59140  1  0
 60141  1  1
 61142  1  0
 61143  1  0
 61144  1  0
 64145  1  0
 65146  1  6
 66147  1  0
 66148  1  0
 66149  1  0
 69150  1  0
 70151  1  6
 71152  1  0
 71153  1  0
 71154  1  0
 74155  1  0
 75156  1  6
 76157  1  0
 76158  1  0
 76159  1  0
 79160  1  0
 80161  1  1
 82162  1  0
 82163  1  0
 84164  1  0
 84165  1  0
 86166  1  0
 86167  1  0
M  END
