
     RDKit          3D

197199  0  0  0  0  0  0  0  0999 V2000
    6.8804   -7.1669   -1.8263 C   0  0  0  0  0  0  0  0  0  0  0  0
    6.3434   -5.8530   -1.3574 C   0  0  0  0  0  0  0  0  0  0  0  0
    5.1021   -5.6461   -1.3819 O   0  0  0  0  0  0  0  0  0  0  0  0
    7.2391   -4.8483   -0.8638 N   0  0  0  0  0  0  0  0  0  0  0  0
    6.7932   -3.6669   -0.1143 C   0  0  1  0  0  0  0  0  0  0  0  0
    6.1197   -4.0819    1.2096 C   0  0  0  0  0  0  0  0  0  0  0  0
    5.2486   -2.6711    1.9813 S   0  0  0  0  0  0  0  0  0  0  0  0
    3.7093   -3.5724    2.4255 C   0  0  0  0  0  0  0  0  0  0  0  0
    2.7272   -3.5652    1.2794 C   0  0  0  0  0  0  0  0  0  0  0  0
    2.3682   -4.7616    0.6360 C   0  0  0  0  0  0  0  0  0  0  0  0
    1.4528   -4.7569   -0.4361 C   0  0  0  0  0  0  0  0  0  0  0  0
    0.9380   -3.5274   -0.8831 C   0  0  0  0  0  0  0  0  0  0  0  0
    1.2924   -2.3229   -0.2473 C   0  0  0  0  0  0  0  0  0  0  0  0
    2.1518   -2.3595    0.8636 C   0  0  0  0  0  0  0  0  0  0  0  0
    0.7374   -1.0150   -0.7512 C   0  0  0  0  0  0  0  0  0  0  0  0
    2.0655    0.2309   -0.9762 S   0  0  0  0  0  0  0  0  0  0  0  0
    1.4585    1.4012    0.2892 C   0  0  0  0  0  0  0  0  0  0  0  0
    2.3113    2.6769    0.2875 C   0  0  2  0  0  0  0  0  0  0  0  0
    3.7178    2.3656    0.5841 N   0  0  0  0  0  0  0  0  0  0  0  0
    4.7729    3.3449    0.5468 C   0  0  0  0  0  0  0  0  0  0  0  0
    5.7011    3.2643    1.3988 O   0  0  0  0  0  0  0  0  0  0  0  0
    4.8112    4.4567   -0.4876 C   0  0  1  0  0  0  0  0  0  0  0  0
    4.8472    5.8273    0.1940 C   0  0  0  0  0  0  0  0  0  0  0  0
    5.9439    4.3418   -1.4186 N   0  0  0  0  0  0  0  0  0  0  0  0
    7.2041    3.7255   -1.1092 C   0  0  0  0  0  0  0  0  0  0  0  0
    7.2424    2.4965   -0.8375 O   0  0  0  0  0  0  0  0  0  0  0  0
    8.4930    4.5161   -1.0851 C   0  0  1  0  0  0  0  0  0  0  0  0
    8.3293    5.9657   -1.5658 C   0  0  0  0  0  0  0  0  0  0  0  0
    9.0195    4.5151    0.2848 N   0  0  0  0  0  0  0  0  0  0  0  0
   10.3441    4.0920    0.6696 C   0  0  0  0  0  0  0  0  0  0  0  0
   10.8466    4.5730    1.7237 O   0  0  0  0  0  0  0  0  0  0  0  0
   11.1389    3.0818   -0.1197 C   0  0  1  0  0  0  0  0  0  0  0  0
   12.3175    3.7526   -0.8256 C   0  0  0  0  0  0  0  0  0  0  0  0
   11.6342    2.0390    0.7731 N   0  0  0  0  0  0  0  0  0  0  0  0
   10.9099    0.8067    0.9073 C   0  0  0  0  0  0  0  0  0  0  0  0
    9.9623    0.7424    1.7346 O   0  0  0  0  0  0  0  0  0  0  0  0
   11.2827   -0.4194    0.1126 C   0  0  1  0  0  0  0  0  0  0  0  0
   12.1863   -0.1054   -1.0823 C   0  0  0  0  0  0  0  0  0  0  0  0
   11.9493   -1.3750    1.0006 N   0  0  0  0  0  0  0  0  0  0  0  0
   11.3924   -2.6291    1.4294 C   0  0  0  0  0  0  0  0  0  0  0  0
   11.8217   -3.1336    2.5067 O   0  0  0  0  0  0  0  0  0  0  0  0
   10.3710   -3.3988    0.6101 C   0  0  1  0  0  0  0  0  0  0  0  0
   10.5881   -4.9103    0.7768 C   0  0  0  0  0  0  0  0  0  0  0  0
    9.0088   -3.0502    1.0357 N   0  0  0  0  0  0  0  0  0  0  0  0
    7.9642   -2.7304    0.1046 C   0  0  0  0  0  0  0  0  0  0  0  0
    8.0504   -1.6856   -0.5896 O   0  0  0  0  0  0  0  0  0  0  0  0
    1.7864    3.6516    1.3150 C   0  0  0  0  0  0  0  0  0  0  0  0
    1.9892    3.4172    2.5440 O   0  0  0  0  0  0  0  0  0  0  0  0
    1.1060    4.8627    0.9519 N   0  0  0  0  0  0  0  0  0  0  0  0
    0.2284    4.9885   -0.2166 C   0  0  2  0  0  0  0  0  0  0  0  0
    0.6941    6.1533   -1.0959 C   0  0  0  0  0  0  0  0  0  0  0  0
   -1.1941    5.1819    0.2364 C   0  0  0  0  0  0  0  0  0  0  0  0
   -1.9997    4.2112    0.1983 O   0  0  0  0  0  0  0  0  0  0  0  0
   -1.6205    6.4314    0.7881 N   0  0  0  0  0  0  0  0  0  0  0  0
   -2.5134    7.3153    0.0393 C   0  0  2  0  0  0  0  0  0  0  0  0
   -2.2760    8.7766    0.4460 C   0  0  0  0  0  0  0  0  0  0  0  0
   -3.9524    6.9238    0.2432 C   0  0  0  0  0  0  0  0  0  0  0  0
   -4.5294    7.1723    1.3376 O   0  0  0  0  0  0  0  0  0  0  0  0
   -4.6438    6.2017   -0.7769 N   0  0  0  0  0  0  0  0  0  0  0  0
   -5.6571    6.8217   -1.6375 C   0  0  2  0  0  0  0  0  0  0  0  0
   -5.0582    8.0137   -2.3992 C   0  0  0  0  0  0  0  0  0  0  0  0
   -6.8715    7.2049   -0.8222 C   0  0  0  0  0  0  0  0  0  0  0  0
   -6.9194    8.3401   -0.2742 O   0  0  0  0  0  0  0  0  0  0  0  0
   -7.9995    6.3306   -0.7419 N   0  0  0  0  0  0  0  0  0  0  0  0
   -8.6470    5.9091    0.5162 C   0  0  2  0  0  0  0  0  0  0  0  0
   -8.5580    6.9556    1.6388 C   0  0  0  0  0  0  0  0  0  0  0  0
   -8.1034    4.5587    0.9327 C   0  0  0  0  0  0  0  0  0  0  0  0
   -7.4435    4.4291    1.9992 O   0  0  0  0  0  0  0  0  0  0  0  0
   -8.2520    3.4290    0.0635 N   0  0  0  0  0  0  0  0  0  0  0  0
   -9.4391    2.5595    0.0498 C   0  0  2  0  0  0  0  0  0  0  0  0
  -10.6750    3.3217   -0.4427 C   0  0  0  0  0  0  0  0  0  0  0  0
   -9.6747    1.9383    1.4107 C   0  0  0  0  0  0  0  0  0  0  0  0
   -9.9202    2.6894    2.3962 O   0  0  0  0  0  0  0  0  0  0  0  0
   -9.5694    0.5191    1.6299 N   0  0  0  0  0  0  0  0  0  0  0  0
  -10.1600   -0.4894    0.7369 C   0  0  2  0  0  0  0  0  0  0  0  0
  -11.6813   -0.3227    0.6936 C   0  0  0  0  0  0  0  0  0  0  0  0
   -9.8252   -1.8875    1.2027 C   0  0  0  0  0  0  0  0  0  0  0  0
   -9.9485   -2.2004    2.4152 O   0  0  0  0  0  0  0  0  0  0  0  0
   -9.4552   -2.8934    0.2516 N   0  0  0  0  0  0  0  0  0  0  0  0
  -10.4302   -3.4125   -0.7090 C   0  0  2  0  0  0  0  0  0  0  0  0
  -11.5779   -4.1462    0.0080 C   0  0  0  0  0  0  0  0  0  0  0  0
   -9.7647   -4.2993   -1.7378 C   0  0  0  0  0  0  0  0  0  0  0  0
   -9.4668   -3.8034   -2.8582 O   0  0  0  0  0  0  0  0  0  0  0  0
   -9.5945   -5.7137   -1.5501 N   0  0  0  0  0  0  0  0  0  0  0  0
   -8.4999   -6.3615   -0.8055 C   0  0  2  0  0  0  0  0  0  0  0  0
   -8.7791   -6.3532    0.6988 C   0  0  0  0  0  0  0  0  0  0  0  0
   -7.1333   -5.7971   -1.1302 C   0  0  0  0  0  0  0  0  0  0  0  0
   -6.9987   -4.7808   -1.8647 O   0  0  0  0  0  0  0  0  0  0  0  0
   -5.9631   -6.4380   -0.6110 N   0  0  0  0  0  0  0  0  0  0  0  0
   -5.3011   -5.9220    0.5843 C   0  0  2  0  0  0  0  0  0  0  0  0
   -4.5357   -4.6235    0.3056 C   0  0  0  0  0  0  0  0  0  0  0  0
   -4.4667   -6.9901    1.2701 C   0  0  0  0  0  0  0  0  0  0  0  0
   -4.8532   -7.3845    2.4014 O   0  0  0  0  0  0  0  0  0  0  0  0
   -3.2771   -7.5875    0.7175 N   0  0  0  0  0  0  0  0  0  0  0  0
   -2.6426   -7.2957   -0.5698 C   0  0  2  0  0  0  0  0  0  0  0  0
   -2.5530   -8.5556   -1.3978 C   0  0  0  0  0  0  0  0  0  0  0  0
   -1.8494   -9.7061   -0.9261 N   0  0  0  0  0  0  0  0  0  0  0  0
   -3.0961   -8.5951   -2.5340 O   0  0  0  0  0  0  0  0  0  0  0  0
   -1.2507   -6.6884   -0.3312 C   0  0  0  0  0  0  0  0  0  0  0  0
   -0.4488   -6.2253   -1.9073 S   0  0  0  0  0  0  0  0  0  0  0  0
    1.2484   -6.0182   -1.2427 C   0  0  0  0  0  0  0  0  0  0  0  0
    6.4585   -7.9880   -1.2049 H   0  0  0  0  0  0  0  0  0  0  0  0
    6.6043   -7.3329   -2.8893 H   0  0  0  0  0  0  0  0  0  0  0  0
    7.9850   -7.1947   -1.7304 H   0  0  0  0  0  0  0  0  0  0  0  0
    8.2335   -4.8925   -1.1961 H   0  0  0  0  0  0  0  0  0  0  0  0
    6.0326   -3.1402   -0.7407 H   0  0  0  0  0  0  0  0  0  0  0  0
    5.4062   -4.9040    1.0085 H   0  0  0  0  0  0  0  0  0  0  0  0
    6.8684   -4.4835    1.9187 H   0  0  0  0  0  0  0  0  0  0  0  0
    3.9464   -4.6074    2.7534 H   0  0  0  0  0  0  0  0  0  0  0  0
    3.2460   -3.0584    3.2932 H   0  0  0  0  0  0  0  0  0  0  0  0
    2.8010   -5.7005    0.9625 H   0  0  0  0  0  0  0  0  0  0  0  0
    0.2821   -3.5062   -1.7484 H   0  0  0  0  0  0  0  0  0  0  0  0
    2.4039   -1.4384    1.3790 H   0  0  0  0  0  0  0  0  0  0  0  0
   -0.0678   -0.6674   -0.0753 H   0  0  0  0  0  0  0  0  0  0  0  0
    0.2892   -1.1550   -1.7532 H   0  0  0  0  0  0  0  0  0  0  0  0
    0.4091    1.6703    0.0498 H   0  0  0  0  0  0  0  0  0  0  0  0
    1.4794    0.9115    1.2840 H   0  0  0  0  0  0  0  0  0  0  0  0
    2.2456    3.1100   -0.7281 H   0  0  0  0  0  0  0  0  0  0  0  0
    3.9274    1.4774    1.0920 H   0  0  0  0  0  0  0  0  0  0  0  0
    3.8893    4.4339   -1.0969 H   0  0  0  0  0  0  0  0  0  0  0  0
    4.7817    6.6292   -0.5685 H   0  0  0  0  0  0  0  0  0  0  0  0
    5.7915    5.9527    0.7581 H   0  0  0  0  0  0  0  0  0  0  0  0
    3.9803    5.9373    0.8839 H   0  0  0  0  0  0  0  0  0  0  0  0
    5.8968    4.9286   -2.2832 H   0  0  0  0  0  0  0  0  0  0  0  0
    9.1978    4.0369   -1.7938 H   0  0  0  0  0  0  0  0  0  0  0  0
    7.6197    6.5272   -0.9205 H   0  0  0  0  0  0  0  0  0  0  0  0
    7.9776    5.9853   -2.6186 H   0  0  0  0  0  0  0  0  0  0  0  0
    9.3157    6.4793   -1.5327 H   0  0  0  0  0  0  0  0  0  0  0  0
    8.4438    4.9969    1.0159 H   0  0  0  0  0  0  0  0  0  0  0  0
   10.5038    2.6053   -0.8933 H   0  0  0  0  0  0  0  0  0  0  0  0
   12.8438    3.0169   -1.4705 H   0  0  0  0  0  0  0  0  0  0  0  0
   13.0444    4.1485   -0.0862 H   0  0  0  0  0  0  0  0  0  0  0  0
   11.9573    4.5894   -1.4623 H   0  0  0  0  0  0  0  0  0  0  0  0
   12.2815    2.2928    1.5501 H   0  0  0  0  0  0  0  0  0  0  0  0
   10.3513   -0.8552   -0.2921 H   0  0  0  0  0  0  0  0  0  0  0  0
   13.1501    0.3357   -0.7485 H   0  0  0  0  0  0  0  0  0  0  0  0
   12.4029   -1.0411   -1.6482 H   0  0  0  0  0  0  0  0  0  0  0  0
   11.6798    0.5981   -1.7760 H   0  0  0  0  0  0  0  0  0  0  0  0
   12.8274   -1.0571    1.4722 H   0  0  0  0  0  0  0  0  0  0  0  0
   10.5093   -3.1581   -0.4646 H   0  0  0  0  0  0  0  0  0  0  0  0
   10.3020   -5.2439    1.7996 H   0  0  0  0  0  0  0  0  0  0  0  0
   11.6587   -5.1691    0.6144 H   0  0  0  0  0  0  0  0  0  0  0  0
   10.0021   -5.4850    0.0318 H   0  0  0  0  0  0  0  0  0  0  0  0
    8.7697   -3.1106    2.0531 H   0  0  0  0  0  0  0  0  0  0  0  0
    1.1100    5.6437    1.6451 H   0  0  0  0  0  0  0  0  0  0  0  0
    0.2581    4.0678   -0.8302 H   0  0  0  0  0  0  0  0  0  0  0  0
    0.7194    7.0999   -0.5168 H   0  0  0  0  0  0  0  0  0  0  0  0
    1.7129    5.9459   -1.4777 H   0  0  0  0  0  0  0  0  0  0  0  0
    0.0092    6.2770   -1.9577 H   0  0  0  0  0  0  0  0  0  0  0  0
   -1.3932    6.6406    1.7886 H   0  0  0  0  0  0  0  0  0  0  0  0
   -2.2756    7.2340   -1.0459 H   0  0  0  0  0  0  0  0  0  0  0  0
   -2.9975    9.4489   -0.0607 H   0  0  0  0  0  0  0  0  0  0  0  0
   -2.3858    8.9072    1.5437 H   0  0  0  0  0  0  0  0  0  0  0  0
   -1.2515    9.0879    0.1459 H   0  0  0  0  0  0  0  0  0  0  0  0
   -4.2710    5.2646   -1.0574 H   0  0  0  0  0  0  0  0  0  0  0  0
   -5.9697    6.0771   -2.4002 H   0  0  0  0  0  0  0  0  0  0  0  0
   -4.1936    7.6728   -3.0059 H   0  0  0  0  0  0  0  0  0  0  0  0
   -4.7203    8.8050   -1.6962 H   0  0  0  0  0  0  0  0  0  0  0  0
   -5.8158    8.4552   -3.0861 H   0  0  0  0  0  0  0  0  0  0  0  0
   -8.2145    5.7445   -1.5835 H   0  0  0  0  0  0  0  0  0  0  0  0
   -9.7272    5.7932    0.3016 H   0  0  0  0  0  0  0  0  0  0  0  0
   -7.5106    7.1847    1.9170 H   0  0  0  0  0  0  0  0  0  0  0  0
   -9.0616    7.8918    1.3175 H   0  0  0  0  0  0  0  0  0  0  0  0
   -9.0902    6.5766    2.5320 H   0  0  0  0  0  0  0  0  0  0  0  0
   -7.4216    3.1499   -0.5003 H   0  0  0  0  0  0  0  0  0  0  0  0
   -9.2427    1.7616   -0.6938 H   0  0  0  0  0  0  0  0  0  0  0  0
  -11.0991    3.9750    0.3503 H   0  0  0  0  0  0  0  0  0  0  0  0
  -11.4652    2.6093   -0.7626 H   0  0  0  0  0  0  0  0  0  0  0  0
  -10.4166    3.9388   -1.3265 H   0  0  0  0  0  0  0  0  0  0  0  0
   -9.2163    0.2210    2.5745 H   0  0  0  0  0  0  0  0  0  0  0  0
   -9.7518   -0.3744   -0.2887 H   0  0  0  0  0  0  0  0  0  0  0  0
  -12.1129   -0.2935    1.7207 H   0  0  0  0  0  0  0  0  0  0  0  0
  -12.1651   -1.1407    0.1232 H   0  0  0  0  0  0  0  0  0  0  0  0
  -11.9484    0.6249    0.1749 H   0  0  0  0  0  0  0  0  0  0  0  0
   -8.4627   -3.2193    0.2464 H   0  0  0  0  0  0  0  0  0  0  0  0
  -10.8780   -2.5566   -1.2608 H   0  0  0  0  0  0  0  0  0  0  0  0
  -12.2254   -4.6688   -0.7317 H   0  0  0  0  0  0  0  0  0  0  0  0
  -12.2045   -3.4240    0.5741 H   0  0  0  0  0  0  0  0  0  0  0  0
  -11.1807   -4.8924    0.7258 H   0  0  0  0  0  0  0  0  0  0  0  0
  -10.1739   -6.3254   -2.1664 H   0  0  0  0  0  0  0  0  0  0  0  0
   -8.4843   -7.4313   -1.1107 H   0  0  0  0  0  0  0  0  0  0  0  0
   -9.7965   -6.7504    0.9034 H   0  0  0  0  0  0  0  0  0  0  0  0
   -8.6953   -5.3334    1.1169 H   0  0  0  0  0  0  0  0  0  0  0  0
   -8.0552   -7.0165    1.2246 H   0  0  0  0  0  0  0  0  0  0  0  0
   -5.5221   -7.1952   -1.1875 H   0  0  0  0  0  0  0  0  0  0  0  0
   -6.0978   -5.6421    1.3111 H   0  0  0  0  0  0  0  0  0  0  0  0
   -3.8132   -4.4128    1.1189 H   0  0  0  0  0  0  0  0  0  0  0  0
   -5.2505   -3.7715    0.2587 H   0  0  0  0  0  0  0  0  0  0  0  0
   -4.0043   -4.6375   -0.6654 H   0  0  0  0  0  0  0  0  0  0  0  0
   -2.8029   -8.3026    1.3203 H   0  0  0  0  0  0  0  0  0  0  0  0
   -3.2464   -6.5748   -1.1470 H   0  0  0  0  0  0  0  0  0  0  0  0
   -1.5287   -9.7834    0.0632 H   0  0  0  0  0  0  0  0  0  0  0  0
   -1.6729  -10.5127   -1.5682 H   0  0  0  0  0  0  0  0  0  0  0  0
   -1.3454   -5.7741    0.2894 H   0  0  0  0  0  0  0  0  0  0  0  0
   -0.6135   -7.4093    0.2287 H   0  0  0  0  0  0  0  0  0  0  0  0
    1.9496   -5.9928   -2.1076 H   0  0  0  0  0  0  0  0  0  0  0  0
    1.5114   -6.9173   -0.6531 H   0  0  0  0  0  0  0  0  0  0  0  0
  1  2  1  0
  2  3  2  0
  2  4  1  0
  4  5  1  0
  5  6  1  0
  6  7  1  0
  7  8  1  0
  8  9  1  0
  9 10  1  0
 10 11  2  0
 11 12  1  0
 12 13  2  0
 13 14  1  0
 13 15  1  0
 15 16  1  0
 16 17  1  0
 17 18  1  0
 18 19  1  0
 19 20  1  0
 20 21  2  0
 20 22  1  0
 22 23  1  0
 22 24  1  0
 24 25  1  0
 25 26  2  0
 25 27  1  0
 27 28  1  0
 27 29  1  0
 29 30  1  0
 30 31  2  0
 30 32  1  0
 32 33  1  0
 32 34  1  0
 34 35  1  0
 35 36  2  0
 35 37  1  0
 37 38  1  0
 37 39  1  0
 39 40  1  0
 40 41  2  0
 40 42  1  0
 42 43  1  0
 42 44  1  0
 44 45  1  0
 45 46  2  0
 18 47  1  0
 47 48  2  0
 47 49  1  0
 49 50  1  0
 50 51  1  0
 50 52  1  0
 52 53  2  0
 52 54  1  0
 54 55  1  0
 55 56  1  0
 55 57  1  0
 57 58  2  0
 57 59  1  0
 59 60  1  0
 60 61  1  0
 60 62  1  0
 62 63  2  0
 62 64  1  0
 64 65  1  0
 65 66  1  0
 65 67  1  0
 67 68  2  0
 67 69  1  0
 69 70  1  0
 70 71  1  0
 70 72  1  0
 72 73  2  0
 72 74  1  0
 74 75  1  0
 75 76  1  0
 75 77  1  0
 77 78  2  0
 77 79  1  0
 79 80  1  0
 80 81  1  0
 80 82  1  0
 82 83  2  0
 82 84  1  0
 84 85  1  0
 85 86  1  0
 85 87  1  0
 87 88  2  0
 87 89  1  0
 89 90  1  0
 90 91  1  0
 90 92  1  0
 92 93  2  0
 92 94  1  0
 94 95  1  0
 95 96  1  0
 96 97  1  0
 96 98  2  0
 95 99  1  0
 99100  1  0
100101  1  0
 45  5  1  0
 14  9  2  0
101 11  1  0
  1102  1  0
  1103  1  0
  1104  1  0
  4105  1  0
  5106  1  6
  6107  1  0
  6108  1  0
  8109  1  0
  8110  1  0
 10111  1  0
 12112  1  0
 14113  1  0
 15114  1  0
 15115  1  0
 17116  1  0
 17117  1  0
 18118  1  6
 19119  1  0
 22120  1  6
 23121  1  0
 23122  1  0
 23123  1  0
 24124  1  0
 27125  1  6
 28126  1  0
 28127  1  0
 28128  1  0
 29129  1  0
 32130  1  6
 33131  1  0
 33132  1  0
 33133  1  0
 34134  1  0
 37135  1  6
 38136  1  0
 38137  1  0
 38138  1  0
 39139  1  0
 42140  1  6
 43141  1  0
 43142  1  0
 43143  1  0
 44144  1  0
 49145  1  0
 50146  1  6
 51147  1  0
 51148  1  0
 51149  1  0
 54150  1  0
 55151  1  6
 56152  1  0
 56153  1  0
 56154  1  0
 59155  1  0
 60156  1  6
 61157  1  0
 61158  1  0
 61159  1  0
 64160  1  0
 65161  1  6
 66162  1  0
 66163  1  0
 66164  1  0
 69165  1  0
 70166  1  6
 71167  1  0
 71168  1  0
 71169  1  0
 74170  1  0
 75171  1  6
 76172  1  0
 76173  1  0
 76174  1  0
 79175  1  0
 80176  1  6
 81177  1  0
 81178  1  0
 81179  1  0
 84180  1  0
 85181  1  6
 86182  1  0
 86183  1  0
 86184  1  0
 89185  1  0
 90186  1  1
 91187  1  0
 91188  1  0
 91189  1  0
 94190  1  0
 95191  1  6
 97192  1  0
 97193  1  0
 99194  1  0
 99195  1  0
101196  1  0
101197  1  0
M  END
