
     RDKit          3D

187189  0  0  0  0  0  0  0  0999 V2000
   -7.9471   -7.0291   -1.4176 C   0  0  0  0  0  0  0  0  0  0  0  0
   -7.3535   -6.7457   -0.0726 C   0  0  0  0  0  0  0  0  0  0  0  0
   -6.6902   -7.6561    0.4881 O   0  0  0  0  0  0  0  0  0  0  0  0
   -7.5812   -5.5148    0.6319 N   0  0  0  0  0  0  0  0  0  0  0  0
   -7.3689   -4.1634    0.0957 C   0  0  1  0  0  0  0  0  0  0  0  0
   -5.8854   -3.9362   -0.2952 C   0  0  0  0  0  0  0  0  0  0  0  0
   -5.3840   -4.8016   -1.8381 S   0  0  0  0  0  0  0  0  0  0  0  0
   -3.6647   -5.1994   -1.3425 C   0  0  0  0  0  0  0  0  0  0  0  0
   -2.8355   -3.9864   -0.9679 C   0  0  0  0  0  0  0  0  0  0  0  0
   -1.9339   -4.0737    0.1053 C   0  0  0  0  0  0  0  0  0  0  0  0
   -1.1617   -2.9641    0.4814 C   0  0  0  0  0  0  0  0  0  0  0  0
   -1.3568   -1.7384   -0.1793 C   0  0  0  0  0  0  0  0  0  0  0  0
   -2.2090   -1.6476   -1.2955 C   0  0  0  0  0  0  0  0  0  0  0  0
   -2.9373   -2.7844   -1.6853 C   0  0  0  0  0  0  0  0  0  0  0  0
   -2.4442   -0.3411   -2.0085 C   0  0  0  0  0  0  0  0  0  0  0  0
   -0.8984    0.6320   -2.1962 S   0  0  0  0  0  0  0  0  0  0  0  0
   -1.2102    1.8225   -0.8278 C   0  0  0  0  0  0  0  0  0  0  0  0
   -1.6555    3.2062   -1.3334 C   0  0  2  0  0  0  0  0  0  0  0  0
   -2.8921    3.1109   -2.1248 N   0  0  0  0  0  0  0  0  0  0  0  0
   -4.0390    3.9478   -1.9012 C   0  0  0  0  0  0  0  0  0  0  0  0
   -4.5772    4.5098   -2.8933 O   0  0  0  0  0  0  0  0  0  0  0  0
   -4.6225    4.1579   -0.5168 C   0  0  1  0  0  0  0  0  0  0  0  0
   -4.1940    5.4893    0.1057 C   0  0  0  0  0  0  0  0  0  0  0  0
   -6.0926    4.0469   -0.5367 N   0  0  0  0  0  0  0  0  0  0  0  0
   -6.9788    5.0912   -0.9841 C   0  0  0  0  0  0  0  0  0  0  0  0
   -6.5792    5.9385   -1.8301 O   0  0  0  0  0  0  0  0  0  0  0  0
   -8.4013    5.1365   -0.4854 C   0  0  1  0  0  0  0  0  0  0  0  0
   -9.0019    6.5486   -0.5838 C   0  0  0  0  0  0  0  0  0  0  0  0
   -9.2278    4.2067   -1.2673 N   0  0  0  0  0  0  0  0  0  0  0  0
  -10.1195    3.2246   -0.7099 C   0  0  0  0  0  0  0  0  0  0  0  0
  -11.0203    2.7428   -1.4517 O   0  0  0  0  0  0  0  0  0  0  0  0
  -10.0546    2.7890    0.7368 C   0  0  1  0  0  0  0  0  0  0  0  0
  -10.9271    3.7034    1.6042 C   0  0  0  0  0  0  0  0  0  0  0  0
  -10.4964    1.3903    0.8801 N   0  0  0  0  0  0  0  0  0  0  0  0
   -9.6729    0.3011    0.4365 C   0  0  0  0  0  0  0  0  0  0  0  0
   -8.7307    0.5138   -0.3760 O   0  0  0  0  0  0  0  0  0  0  0  0
   -9.8772   -1.0871    0.9824 C   0  0  1  0  0  0  0  0  0  0  0  0
   -9.6822   -1.1011    2.4997 C   0  0  0  0  0  0  0  0  0  0  0  0
  -11.2025   -1.6058    0.6333 N   0  0  0  0  0  0  0  0  0  0  0  0
  -11.5341   -3.0073    0.5832 C   0  0  0  0  0  0  0  0  0  0  0  0
  -12.7538   -3.3389    0.5821 O   0  0  0  0  0  0  0  0  0  0  0  0
  -10.4657   -4.0840    0.5074 C   0  0  1  0  0  0  0  0  0  0  0  0
  -11.0541   -5.4847    0.6864 C   0  0  0  0  0  0  0  0  0  0  0  0
   -9.7881   -3.9994   -0.7889 N   0  0  0  0  0  0  0  0  0  0  0  0
   -8.3805   -3.8014   -0.9797 C   0  0  0  0  0  0  0  0  0  0  0  0
   -7.9859   -3.3026   -2.0654 O   0  0  0  0  0  0  0  0  0  0  0  0
   -0.5599    3.8593   -2.1512 C   0  0  0  0  0  0  0  0  0  0  0  0
   -0.4417    3.5502   -3.3701 O   0  0  0  0  0  0  0  0  0  0  0  0
    0.4004    4.7819   -1.5983 N   0  0  0  0  0  0  0  0  0  0  0  0
    0.4835    5.1690   -0.1872 C   0  0  2  0  0  0  0  0  0  0  0  0
   -0.1978    6.5243    0.0113 C   0  0  0  0  0  0  0  0  0  0  0  0
    1.9278    5.1645    0.2614 C   0  0  0  0  0  0  0  0  0  0  0  0
    2.5115    4.0542    0.3969 O   0  0  0  0  0  0  0  0  0  0  0  0
    2.6507    6.3794    0.5289 N   0  0  0  0  0  0  0  0  0  0  0  0
    3.3846    6.5474    1.7885 C   0  0  2  0  0  0  0  0  0  0  0  0
    3.6237    8.0371    2.0671 C   0  0  0  0  0  0  0  0  0  0  0  0
    4.6661    5.7515    1.7633 C   0  0  0  0  0  0  0  0  0  0  0  0
    4.6597    4.5882    2.2446 O   0  0  0  0  0  0  0  0  0  0  0  0
    5.8828    6.2872    1.2114 N   0  0  0  0  0  0  0  0  0  0  0  0
    6.7259    5.5723    0.2447 C   0  0  2  0  0  0  0  0  0  0  0  0
    5.9731    5.3504   -1.0693 C   0  0  0  0  0  0  0  0  0  0  0  0
    7.2528    4.2793    0.8140 C   0  0  0  0  0  0  0  0  0  0  0  0
    6.5311    3.2462    0.8358 O   0  0  0  0  0  0  0  0  0  0  0  0
    8.5798    4.2118    1.3437 N   0  0  0  0  0  0  0  0  0  0  0  0
    9.7511    3.8730    0.5299 C   0  0  2  0  0  0  0  0  0  0  0  0
   10.1558    5.0507   -0.3586 C   0  0  0  0  0  0  0  0  0  0  0  0
    9.5130    2.6328   -0.2985 C   0  0  0  0  0  0  0  0  0  0  0  0
    8.6468    2.6343   -1.2141 O   0  0  0  0  0  0  0  0  0  0  0  0
   10.3236    1.4711   -0.1084 N   0  0  0  0  0  0  0  0  0  0  0  0
    9.9837    0.4301    0.8716 C   0  0  2  0  0  0  0  0  0  0  0  0
    9.6843    1.0177    2.2576 C   0  0  0  0  0  0  0  0  0  0  0  0
   11.1116   -0.5610    0.9747 C   0  0  0  0  0  0  0  0  0  0  0  0
   12.3076   -0.1650    0.8912 O   0  0  0  0  0  0  0  0  0  0  0  0
   10.8315   -1.9422    1.2361 N   0  0  0  0  0  0  0  0  0  0  0  0
   11.2568   -3.0392    0.3596 C   0  0  2  0  0  0  0  0  0  0  0  0
   12.7558   -2.9882    0.0524 C   0  0  0  0  0  0  0  0  0  0  0  0
   10.4329   -3.0134   -0.9113 C   0  0  0  0  0  0  0  0  0  0  0  0
   10.5436   -2.0178   -1.6739 O   0  0  0  0  0  0  0  0  0  0  0  0
    9.4729   -4.0337   -1.2508 N   0  0  0  0  0  0  0  0  0  0  0  0
    9.3092   -5.3164   -0.5569 C   0  0  2  0  0  0  0  0  0  0  0  0
   10.4887   -6.2467   -0.8712 C   0  0  0  0  0  0  0  0  0  0  0  0
    7.9987   -5.9500   -0.9629 C   0  0  0  0  0  0  0  0  0  0  0  0
    7.9330   -6.6079   -2.0362 O   0  0  0  0  0  0  0  0  0  0  0  0
    6.8122   -5.8241   -0.1583 N   0  0  0  0  0  0  0  0  0  0  0  0
    6.5626   -4.7393    0.7940 C   0  0  2  0  0  0  0  0  0  0  0  0
    6.6555   -5.2949    2.2215 C   0  0  0  0  0  0  0  0  0  0  0  0
    5.2389   -4.0965    0.4745 C   0  0  0  0  0  0  0  0  0  0  0  0
    5.1563   -3.3792   -0.5591 O   0  0  0  0  0  0  0  0  0  0  0  0
    4.0579   -4.3351    1.2644 N   0  0  0  0  0  0  0  0  0  0  0  0
    2.7524   -4.7251    0.7030 C   0  0  2  0  0  0  0  0  0  0  0  0
    2.9152   -5.8871   -0.2491 C   0  0  0  0  0  0  0  0  0  0  0  0
    3.3564   -5.7035   -1.5987 N   0  0  0  0  0  0  0  0  0  0  0  0
    2.6969   -7.0583    0.1712 O   0  0  0  0  0  0  0  0  0  0  0  0
    2.0111   -3.5360    0.0545 C   0  0  0  0  0  0  0  0  0  0  0  0
    1.4309   -2.3203    1.3026 S   0  0  0  0  0  0  0  0  0  0  0  0
   -0.2087   -3.0759    1.6515 C   0  0  0  0  0  0  0  0  0  0  0  0
   -7.1347   -7.1982   -2.1554 H   0  0  0  0  0  0  0  0  0  0  0  0
   -8.5687   -7.9474   -1.3584 H   0  0  0  0  0  0  0  0  0  0  0  0
   -8.5999   -6.2128   -1.7761 H   0  0  0  0  0  0  0  0  0  0  0  0
   -7.6739   -5.5900    1.6722 H   0  0  0  0  0  0  0  0  0  0  0  0
   -7.5432   -3.4525    0.9301 H   0  0  0  0  0  0  0  0  0  0  0  0
   -5.2489   -4.2588    0.5563 H   0  0  0  0  0  0  0  0  0  0  0  0
   -5.7120   -2.8476   -0.4494 H   0  0  0  0  0  0  0  0  0  0  0  0
   -3.7053   -5.9223   -0.5005 H   0  0  0  0  0  0  0  0  0  0  0  0
   -3.1730   -5.7146   -2.1886 H   0  0  0  0  0  0  0  0  0  0  0  0
   -1.8419   -5.0128    0.6472 H   0  0  0  0  0  0  0  0  0  0  0  0
   -0.8219   -0.8642    0.1755 H   0  0  0  0  0  0  0  0  0  0  0  0
   -3.6108   -2.7165   -2.5291 H   0  0  0  0  0  0  0  0  0  0  0  0
   -2.8097   -0.5418   -3.0385 H   0  0  0  0  0  0  0  0  0  0  0  0
   -3.2350    0.2415   -1.4932 H   0  0  0  0  0  0  0  0  0  0  0  0
   -0.2563    1.9452   -0.2712 H   0  0  0  0  0  0  0  0  0  0  0  0
   -1.9513    1.4283   -0.1041 H   0  0  0  0  0  0  0  0  0  0  0  0
   -1.8644    3.8240   -0.4442 H   0  0  0  0  0  0  0  0  0  0  0  0
   -2.8492    2.6152   -3.0489 H   0  0  0  0  0  0  0  0  0  0  0  0
   -4.2368    3.3402    0.1379 H   0  0  0  0  0  0  0  0  0  0  0  0
   -4.2751    6.3260   -0.6224 H   0  0  0  0  0  0  0  0  0  0  0  0
   -3.1494    5.4289    0.4708 H   0  0  0  0  0  0  0  0  0  0  0  0
   -4.8297    5.7223    0.9888 H   0  0  0  0  0  0  0  0  0  0  0  0
   -6.5216    3.2448   -0.0177 H   0  0  0  0  0  0  0  0  0  0  0  0
   -8.3923    4.8690    0.5857 H   0  0  0  0  0  0  0  0  0  0  0  0
   -9.0383    6.8894   -1.6416 H   0  0  0  0  0  0  0  0  0  0  0  0
   -8.3961    7.2639    0.0113 H   0  0  0  0  0  0  0  0  0  0  0  0
  -10.0353    6.5349   -0.1859 H   0  0  0  0  0  0  0  0  0  0  0  0
   -9.2518    4.3411   -2.3041 H   0  0  0  0  0  0  0  0  0  0  0  0
   -9.0079    2.8472    1.1030 H   0  0  0  0  0  0  0  0  0  0  0  0
  -10.5873    4.7600    1.5307 H   0  0  0  0  0  0  0  0  0  0  0  0
  -10.8478    3.3974    2.6666 H   0  0  0  0  0  0  0  0  0  0  0  0
  -11.9918    3.6466    1.2893 H   0  0  0  0  0  0  0  0  0  0  0  0
  -11.3191    1.1814    1.4830 H   0  0  0  0  0  0  0  0  0  0  0  0
   -9.1006   -1.7330    0.5332 H   0  0  0  0  0  0  0  0  0  0  0  0
  -10.4399   -0.4751    3.0080 H   0  0  0  0  0  0  0  0  0  0  0  0
   -9.7669   -2.1389    2.8920 H   0  0  0  0  0  0  0  0  0  0  0  0
   -8.6712   -0.7181    2.7545 H   0  0  0  0  0  0  0  0  0  0  0  0
  -11.9968   -0.9327    0.5353 H   0  0  0  0  0  0  0  0  0  0  0  0
   -9.7480   -3.9283    1.3401 H   0  0  0  0  0  0  0  0  0  0  0  0
  -11.6188   -5.5481    1.6445 H   0  0  0  0  0  0  0  0  0  0  0  0
  -11.7433   -5.7313   -0.1520 H   0  0  0  0  0  0  0  0  0  0  0  0
  -10.2441   -6.2431    0.7139 H   0  0  0  0  0  0  0  0  0  0  0  0
  -10.3901   -4.0078   -1.6433 H   0  0  0  0  0  0  0  0  0  0  0  0
    1.0438    5.2621   -2.2702 H   0  0  0  0  0  0  0  0  0  0  0  0
   -0.0243    4.4302    0.4581 H   0  0  0  0  0  0  0  0  0  0  0  0
   -1.2748    6.4487   -0.2434 H   0  0  0  0  0  0  0  0  0  0  0  0
   -0.1129    6.8431    1.0763 H   0  0  0  0  0  0  0  0  0  0  0  0
    0.2475    7.2993   -0.6452 H   0  0  0  0  0  0  0  0  0  0  0  0
    2.4295    7.2200   -0.0431 H   0  0  0  0  0  0  0  0  0  0  0  0
    2.7535    6.1624    2.6147 H   0  0  0  0  0  0  0  0  0  0  0  0
    2.6462    8.5519    2.1955 H   0  0  0  0  0  0  0  0  0  0  0  0
    4.2188    8.1703    2.9973 H   0  0  0  0  0  0  0  0  0  0  0  0
    4.1570    8.5168    1.2166 H   0  0  0  0  0  0  0  0  0  0  0  0
    6.1423    7.2739    1.4333 H   0  0  0  0  0  0  0  0  0  0  0  0
    7.5953    6.2233    0.0146 H   0  0  0  0  0  0  0  0  0  0  0  0
    5.0828    4.7000   -0.9112 H   0  0  0  0  0  0  0  0  0  0  0  0
    6.6427    4.8707   -1.8166 H   0  0  0  0  0  0  0  0  0  0  0  0
    5.6316    6.3246   -1.4742 H   0  0  0  0  0  0  0  0  0  0  0  0
    8.6827    4.1874    2.3873 H   0  0  0  0  0  0  0  0  0  0  0  0
   10.6090    3.6781    1.2146 H   0  0  0  0  0  0  0  0  0  0  0  0
   10.2734    5.9647    0.2599 H   0  0  0  0  0  0  0  0  0  0  0  0
   11.1283    4.8356   -0.8488 H   0  0  0  0  0  0  0  0  0  0  0  0
    9.3982    5.2382   -1.1493 H   0  0  0  0  0  0  0  0  0  0  0  0
   10.8380    1.1551   -0.9600 H   0  0  0  0  0  0  0  0  0  0  0  0
    9.0756   -0.0992    0.5196 H   0  0  0  0  0  0  0  0  0  0  0  0
    8.7733    1.6449    2.2193 H   0  0  0  0  0  0  0  0  0  0  0  0
    9.4988    0.2004    2.9869 H   0  0  0  0  0  0  0  0  0  0  0  0
   10.5419    1.6311    2.6196 H   0  0  0  0  0  0  0  0  0  0  0  0
   10.1212   -2.1570    1.9765 H   0  0  0  0  0  0  0  0  0  0  0  0
   11.0851   -3.9787    0.9168 H   0  0  0  0  0  0  0  0  0  0  0  0
   13.3321   -2.9097    0.9991 H   0  0  0  0  0  0  0  0  0  0  0  0
   13.0659   -3.9152   -0.4696 H   0  0  0  0  0  0  0  0  0  0  0  0
   13.0021   -2.1247   -0.6015 H   0  0  0  0  0  0  0  0  0  0  0  0
    8.8545   -3.8330   -2.0727 H   0  0  0  0  0  0  0  0  0  0  0  0
    9.2836   -5.1547    0.5399 H   0  0  0  0  0  0  0  0  0  0  0  0
   10.3476   -7.2298   -0.3721 H   0  0  0  0  0  0  0  0  0  0  0  0
   11.4384   -5.8082   -0.5022 H   0  0  0  0  0  0  0  0  0  0  0  0
   10.5778   -6.4018   -1.9675 H   0  0  0  0  0  0  0  0  0  0  0  0
    6.0522   -6.5279   -0.3003 H   0  0  0  0  0  0  0  0  0  0  0  0
    7.3467   -3.9505    0.7005 H   0  0  0  0  0  0  0  0  0  0  0  0
    7.6577   -5.7331    2.3794 H   0  0  0  0  0  0  0  0  0  0  0  0
    5.8918   -6.0859    2.3923 H   0  0  0  0  0  0  0  0  0  0  0  0
    6.5143   -4.4757    2.9592 H   0  0  0  0  0  0  0  0  0  0  0  0
    4.1566   -4.3504    2.3086 H   0  0  0  0  0  0  0  0  0  0  0  0
    2.1236   -5.0806    1.5495 H   0  0  0  0  0  0  0  0  0  0  0  0
    3.6026   -6.5380   -2.1735 H   0  0  0  0  0  0  0  0  0  0  0  0
    3.4916   -4.7514   -2.0050 H   0  0  0  0  0  0  0  0  0  0  0  0
    2.6881   -2.9924   -0.6345 H   0  0  0  0  0  0  0  0  0  0  0  0
    1.1632   -3.8925   -0.5597 H   0  0  0  0  0  0  0  0  0  0  0  0
   -0.6535   -2.5382    2.5201 H   0  0  0  0  0  0  0  0  0  0  0  0
   -0.0638   -4.1380    1.9523 H   0  0  0  0  0  0  0  0  0  0  0  0
  1  2  1  0
  2  3  2  0
  2  4  1  0
  4  5  1  0
  5  6  1  0
  6  7  1  0
  7  8  1  0
  8  9  1  0
  9 10  1  0
 10 11  2  0
 11 12  1  0
 12 13  2  0
 13 14  1  0
 13 15  1  0
 15 16  1  0
 16 17  1  0
 17 18  1  0
 18 19  1  0
 19 20  1  0
 20 21  2  0
 20 22  1  0
 22 23  1  0
 22 24  1  0
 24 25  1  0
 25 26  2  0
 25 27  1  0
 27 28  1  0
 27 29  1  0
 29 30  1  0
 30 31  2  0
 30 32  1  0
 32 33  1  0
 32 34  1  0
 34 35  1  0
 35 36  2  0
 35 37  1  0
 37 38  1  0
 37 39  1  0
 39 40  1  0
 40 41  2  0
 40 42  1  0
 42 43  1  0
 42 44  1  0
 44 45  1  0
 45 46  2  0
 18 47  1  0
 47 48  2  0
 47 49  1  0
 49 50  1  0
 50 51  1  0
 50 52  1  0
 52 53  2  0
 52 54  1  0
 54 55  1  0
 55 56  1  0
 55 57  1  0
 57 58  2  0
 57 59  1  0
 59 60  1  0
 60 61  1  0
 60 62  1  0
 62 63  2  0
 62 64  1  0
 64 65  1  0
 65 66  1  0
 65 67  1  0
 67 68  2  0
 67 69  1  0
 69 70  1  0
 70 71  1  0
 70 72  1  0
 72 73  2  0
 72 74  1  0
 74 75  1  0
 75 76  1  0
 75 77  1  0
 77 78  2  0
 77 79  1  0
 79 80  1  0
 80 81  1  0
 80 82  1  0
 82 83  2  0
 82 84  1  0
 84 85  1  0
 85 86  1  0
 85 87  1  0
 87 88  2  0
 87 89  1  0
 89 90  1  0
 90 91  1  0
 91 92  1  0
 91 93  2  0
 90 94  1  0
 94 95  1  0
 95 96  1  0
 45  5  1  0
 14  9  2  0
 96 11  1  0
  1 97  1  0
  1 98  1  0
  1 99  1  0
  4100  1  0
  5101  1  1
  6102  1  0
  6103  1  0
  8104  1  0
  8105  1  0
 10106  1  0
 12107  1  0
 14108  1  0
 15109  1  0
 15110  1  0
 17111  1  0
 17112  1  0
 18113  1  1
 19114  1  0
 22115  1  1
 23116  1  0
 23117  1  0
 23118  1  0
 24119  1  0
 27120  1  1
 28121  1  0
 28122  1  0
 28123  1  0
 29124  1  0
 32125  1  1
 33126  1  0
 33127  1  0
 33128  1  0
 34129  1  0
 37130  1  6
 38131  1  0
 38132  1  0
 38133  1  0
 39134  1  0
 42135  1  1
 43136  1  0
 43137  1  0
 43138  1  0
 44139  1  0
 49140  1  0
 50141  1  1
 51142  1  0
 51143  1  0
 51144  1  0
 54145  1  0
 55146  1  1
 56147  1  0
 56148  1  0
 56149  1  0
 59150  1  0
 60151  1  6
 61152  1  0
 61153  1  0
 61154  1  0
 64155  1  0
 65156  1  1
 66157  1  0
 66158  1  0
 66159  1  0
 69160  1  0
 70161  1  6
 71162  1  0
 71163  1  0
 71164  1  0
 74165  1  0
 75166  1  1
 76167  1  0
 76168  1  0
 76169  1  0
 79170  1  0
 80171  1  1
 81172  1  0
 81173  1  0
 81174  1  0
 84175  1  0
 85176  1  1
 86177  1  0
 86178  1  0
 86179  1  0
 89180  1  0
 90181  1  1
 92182  1  0
 92183  1  0
 94184  1  0
 94185  1  0
 96186  1  0
 96187  1  0
M  END
