
     RDKit          3D

197199  0  0  0  0  0  0  0  0999 V2000
   -8.6454    7.6841   -0.2698 C   0  0  0  0  0  0  0  0  0  0  0  0
   -8.4690    6.8076    0.9338 C   0  0  0  0  0  0  0  0  0  0  0  0
   -8.9110    7.2026    2.0399 O   0  0  0  0  0  0  0  0  0  0  0  0
   -7.7995    5.5365    0.8559 N   0  0  0  0  0  0  0  0  0  0  0  0
   -7.5934    4.8103   -0.4007 C   0  0  1  0  0  0  0  0  0  0  0  0
   -6.2531    4.0537   -0.3741 C   0  0  0  0  0  0  0  0  0  0  0  0
   -4.8766    5.2729   -0.3083 S   0  0  0  0  0  0  0  0  0  0  0  0
   -3.8344    4.6130   -1.6714 C   0  0  0  0  0  0  0  0  0  0  0  0
   -2.6861    3.8398   -1.1005 C   0  0  0  0  0  0  0  0  0  0  0  0
   -1.6474    4.5168   -0.4382 C   0  0  0  0  0  0  0  0  0  0  0  0
   -0.6022    3.8019    0.1671 C   0  0  0  0  0  0  0  0  0  0  0  0
   -0.6172    2.4004    0.1284 C   0  0  0  0  0  0  0  0  0  0  0  0
   -1.6298    1.7089   -0.5692 C   0  0  0  0  0  0  0  0  0  0  0  0
   -2.6430    2.4472   -1.2077 C   0  0  0  0  0  0  0  0  0  0  0  0
   -1.5572    0.1997   -0.6779 C   0  0  0  0  0  0  0  0  0  0  0  0
   -3.2071   -0.5738   -0.8961 S   0  0  0  0  0  0  0  0  0  0  0  0
   -2.6522   -2.3103   -1.0956 C   0  0  0  0  0  0  0  0  0  0  0  0
   -2.7872   -3.1665    0.1822 C   0  0  2  0  0  0  0  0  0  0  0  0
   -3.8764   -2.6854    1.0572 N   0  0  0  0  0  0  0  0  0  0  0  0
   -5.0945   -3.3907    1.3563 C   0  0  0  0  0  0  0  0  0  0  0  0
   -5.8838   -2.8961    2.2071 O   0  0  0  0  0  0  0  0  0  0  0  0
   -5.4125   -4.7584    0.7900 C   0  0  1  0  0  0  0  0  0  0  0  0
   -4.7377   -5.8239    1.6604 C   0  0  0  0  0  0  0  0  0  0  0  0
   -6.8630   -4.9955    0.7336 N   0  0  0  0  0  0  0  0  0  0  0  0
   -7.6886   -4.3248   -0.2325 C   0  0  0  0  0  0  0  0  0  0  0  0
   -7.3273   -3.2192   -0.7116 O   0  0  0  0  0  0  0  0  0  0  0  0
   -8.9715   -4.9596   -0.7202 C   0  0  1  0  0  0  0  0  0  0  0  0
   -8.6893   -6.3228   -1.3688 C   0  0  0  0  0  0  0  0  0  0  0  0
   -9.9148   -5.1252    0.4006 N   0  0  0  0  0  0  0  0  0  0  0  0
  -11.2465   -4.5894    0.4733 C   0  0  0  0  0  0  0  0  0  0  0  0
  -11.9533   -4.8808    1.4692 O   0  0  0  0  0  0  0  0  0  0  0  0
  -11.8380   -3.7133   -0.6134 C   0  0  1  0  0  0  0  0  0  0  0  0
  -12.3477   -4.5734   -1.7714 C   0  0  0  0  0  0  0  0  0  0  0  0
  -12.9551   -2.9200   -0.0798 N   0  0  0  0  0  0  0  0  0  0  0  0
  -13.0143   -1.4802   -0.0944 C   0  0  0  0  0  0  0  0  0  0  0  0
  -14.1457   -0.9152   -0.1617 O   0  0  0  0  0  0  0  0  0  0  0  0
  -11.7640   -0.6324   -0.0594 C   0  0  1  0  0  0  0  0  0  0  0  0
  -11.4049   -0.1670   -1.4769 C   0  0  0  0  0  0  0  0  0  0  0  0
  -11.9402    0.5327    0.8167 N   0  0  0  0  0  0  0  0  0  0  0  0
  -10.8225    1.3352    1.1949 C   0  0  0  0  0  0  0  0  0  0  0  0
  -10.0412    0.9438    2.1025 O   0  0  0  0  0  0  0  0  0  0  0  0
  -10.6211    2.6824    0.5466 C   0  0  1  0  0  0  0  0  0  0  0  0
  -11.2442    3.8008    1.3927 C   0  0  0  0  0  0  0  0  0  0  0  0
   -9.1963    2.9621    0.3262 N   0  0  0  0  0  0  0  0  0  0  0  0
   -8.7721    3.9122   -0.6599 C   0  0  0  0  0  0  0  0  0  0  0  0
   -9.4293    4.0491   -1.7229 O   0  0  0  0  0  0  0  0  0  0  0  0
   -1.4790   -3.2219    0.9460 C   0  0  0  0  0  0  0  0  0  0  0  0
   -1.2015   -2.2998    1.7670 O   0  0  0  0  0  0  0  0  0  0  0  0
   -0.5531   -4.3159    0.7920 N   0  0  0  0  0  0  0  0  0  0  0  0
   -0.5228   -5.2299   -0.3592 C   0  0  2  0  0  0  0  0  0  0  0  0
   -1.1938   -6.5591    0.0049 C   0  0  0  0  0  0  0  0  0  0  0  0
    0.8954   -5.4895   -0.7802 C   0  0  0  0  0  0  0  0  0  0  0  0
    1.2371   -5.2984   -1.9762 O   0  0  0  0  0  0  0  0  0  0  0  0
    1.8231   -6.0781    0.1346 N   0  0  0  0  0  0  0  0  0  0  0  0
    2.4387   -7.3886   -0.1412 C   0  0  2  0  0  0  0  0  0  0  0  0
    2.5841   -8.1779    1.1622 C   0  0  0  0  0  0  0  0  0  0  0  0
    3.7616   -7.1921   -0.8272 C   0  0  0  0  0  0  0  0  0  0  0  0
    3.9641   -7.7294   -1.9537 O   0  0  0  0  0  0  0  0  0  0  0  0
    4.7632   -6.3484   -0.2404 N   0  0  0  0  0  0  0  0  0  0  0  0
    5.3202   -5.2162   -0.9833 C   0  0  2  0  0  0  0  0  0  0  0  0
    6.4072   -5.6784   -1.9618 C   0  0  0  0  0  0  0  0  0  0  0  0
    5.7979   -4.1193   -0.0487 C   0  0  0  0  0  0  0  0  0  0  0  0
    5.1976   -3.0102   -0.0922 O   0  0  0  0  0  0  0  0  0  0  0  0
    6.8686   -4.2782    0.8992 N   0  0  0  0  0  0  0  0  0  0  0  0
    7.7047   -5.4696    1.0995 C   0  0  2  0  0  0  0  0  0  0  0  0
    7.9790   -5.6851    2.5933 C   0  0  0  0  0  0  0  0  0  0  0  0
    9.0099   -5.3092    0.3679 C   0  0  0  0  0  0  0  0  0  0  0  0
    9.4398   -6.2445   -0.3599 O   0  0  0  0  0  0  0  0  0  0  0  0
    9.7985   -4.1254    0.5311 N   0  0  0  0  0  0  0  0  0  0  0  0
    9.7164   -3.0317   -0.4303 C   0  0  2  0  0  0  0  0  0  0  0  0
   10.7391   -3.2904   -1.5423 C   0  0  0  0  0  0  0  0  0  0  0  0
    9.9679   -1.7046    0.2617 C   0  0  0  0  0  0  0  0  0  0  0  0
    9.8747   -1.6327    1.5102 O   0  0  0  0  0  0  0  0  0  0  0  0
   10.2831   -0.5349   -0.5099 N   0  0  0  0  0  0  0  0  0  0  0  0
   11.0671    0.5993    0.0173 C   0  0  2  0  0  0  0  0  0  0  0  0
   12.4403    0.1223    0.5150 C   0  0  0  0  0  0  0  0  0  0  0  0
   10.3056    1.3375    1.0997 C   0  0  0  0  0  0  0  0  0  0  0  0
   10.3967    0.9269    2.2814 O   0  0  0  0  0  0  0  0  0  0  0  0
    9.3689    2.3962    0.8218 N   0  0  0  0  0  0  0  0  0  0  0  0
    9.4894    3.4942   -0.1419 C   0  0  2  0  0  0  0  0  0  0  0  0
    9.1547    3.0538   -1.5760 C   0  0  0  0  0  0  0  0  0  0  0  0
   10.8212    4.2066   -0.0303 C   0  0  0  0  0  0  0  0  0  0  0  0
   11.8815    3.5804   -0.3129 O   0  0  0  0  0  0  0  0  0  0  0  0
   10.9252    5.5740    0.4032 N   0  0  0  0  0  0  0  0  0  0  0  0
    9.8640    6.5875    0.2778 C   0  0  2  0  0  0  0  0  0  0  0  0
   10.4952    7.9836    0.1417 C   0  0  0  0  0  0  0  0  0  0  0  0
    8.9719    6.5381    1.4914 C   0  0  0  0  0  0  0  0  0  0  0  0
    9.5198    6.4887    2.6301 O   0  0  0  0  0  0  0  0  0  0  0  0
    7.5248    6.5202    1.4219 N   0  0  0  0  0  0  0  0  0  0  0  0
    6.7216    6.5103    0.1833 C   0  0  2  0  0  0  0  0  0  0  0  0
    6.6301    7.9263   -0.4111 C   0  0  0  0  0  0  0  0  0  0  0  0
    5.3407    5.9638    0.4581 C   0  0  0  0  0  0  0  0  0  0  0  0
    5.0860    4.7703    0.1397 O   0  0  0  0  0  0  0  0  0  0  0  0
    4.3760    6.7550    1.1781 N   0  0  0  0  0  0  0  0  0  0  0  0
    2.9217    6.8216    0.9209 C   0  0  1  0  0  0  0  0  0  0  0  0
    2.4978    8.2821    0.8446 C   0  0  0  0  0  0  0  0  0  0  0  0
    1.1130    8.6428    0.8221 N   0  0  0  0  0  0  0  0  0  0  0  0
    3.3684    9.2010    0.8346 O   0  0  0  0  0  0  0  0  0  0  0  0
    2.4659    6.0863   -0.3792 C   0  0  0  0  0  0  0  0  0  0  0  0
    2.0990    4.3151   -0.0799 S   0  0  0  0  0  0  0  0  0  0  0  0
    0.5260    4.5259    0.8552 C   0  0  0  0  0  0  0  0  0  0  0  0
   -9.2720    7.1590   -1.0209 H   0  0  0  0  0  0  0  0  0  0  0  0
   -9.1496    8.6325    0.0115 H   0  0  0  0  0  0  0  0  0  0  0  0
   -7.6489    7.9202   -0.7043 H   0  0  0  0  0  0  0  0  0  0  0  0
   -7.6616    5.0177    1.7510 H   0  0  0  0  0  0  0  0  0  0  0  0
   -7.5077    5.5354   -1.2479 H   0  0  0  0  0  0  0  0  0  0  0  0
   -6.1913    3.3912   -1.2683 H   0  0  0  0  0  0  0  0  0  0  0  0
   -6.1913    3.4015    0.5241 H   0  0  0  0  0  0  0  0  0  0  0  0
   -4.4181    4.0008   -2.3860 H   0  0  0  0  0  0  0  0  0  0  0  0
   -3.4355    5.4698   -2.2525 H   0  0  0  0  0  0  0  0  0  0  0  0
   -1.6567    5.6047   -0.3822 H   0  0  0  0  0  0  0  0  0  0  0  0
    0.1705    1.8498    0.6318 H   0  0  0  0  0  0  0  0  0  0  0  0
   -3.4166    1.9473   -1.7802 H   0  0  0  0  0  0  0  0  0  0  0  0
   -0.8855   -0.0851   -1.5258 H   0  0  0  0  0  0  0  0  0  0  0  0
   -1.1197   -0.2094    0.2639 H   0  0  0  0  0  0  0  0  0  0  0  0
   -1.6222   -2.3595   -1.5213 H   0  0  0  0  0  0  0  0  0  0  0  0
   -3.3239   -2.7433   -1.8692 H   0  0  0  0  0  0  0  0  0  0  0  0
   -2.9997   -4.1948   -0.1456 H   0  0  0  0  0  0  0  0  0  0  0  0
   -3.7554   -1.7490    1.5137 H   0  0  0  0  0  0  0  0  0  0  0  0
   -5.0241   -4.8410   -0.2476 H   0  0  0  0  0  0  0  0  0  0  0  0
   -4.8226   -6.8170    1.1791 H   0  0  0  0  0  0  0  0  0  0  0  0
   -5.1921   -5.8523    2.6734 H   0  0  0  0  0  0  0  0  0  0  0  0
   -3.6522   -5.5907    1.7843 H   0  0  0  0  0  0  0  0  0  0  0  0
   -7.2501   -5.8355    1.2144 H   0  0  0  0  0  0  0  0  0  0  0  0
   -9.3869   -4.3175   -1.5112 H   0  0  0  0  0  0  0  0  0  0  0  0
   -7.9962   -6.2031   -2.2320 H   0  0  0  0  0  0  0  0  0  0  0  0
   -8.2412   -7.0250   -0.6242 H   0  0  0  0  0  0  0  0  0  0  0  0
   -9.6407   -6.7628   -1.7365 H   0  0  0  0  0  0  0  0  0  0  0  0
   -9.6121   -5.7439    1.1845 H   0  0  0  0  0  0  0  0  0  0  0  0
  -11.0557   -3.0352   -1.0045 H   0  0  0  0  0  0  0  0  0  0  0  0
  -12.8034   -3.9218   -2.5530 H   0  0  0  0  0  0  0  0  0  0  0  0
  -13.1072   -5.3039   -1.4145 H   0  0  0  0  0  0  0  0  0  0  0  0
  -11.4979   -5.1336   -2.2270 H   0  0  0  0  0  0  0  0  0  0  0  0
  -13.8271   -3.4297    0.2041 H   0  0  0  0  0  0  0  0  0  0  0  0
  -10.9272   -1.2412    0.3516 H   0  0  0  0  0  0  0  0  0  0  0  0
  -12.1522    0.5684   -1.8382 H   0  0  0  0  0  0  0  0  0  0  0  0
  -10.4029    0.3019   -1.4650 H   0  0  0  0  0  0  0  0  0  0  0  0
  -11.3847   -1.0231   -2.1808 H   0  0  0  0  0  0  0  0  0  0  0  0
  -12.8940    0.8356    1.1475 H   0  0  0  0  0  0  0  0  0  0  0  0
  -11.1397    2.6590   -0.4384 H   0  0  0  0  0  0  0  0  0  0  0  0
  -12.3171    3.5809    1.5931 H   0  0  0  0  0  0  0  0  0  0  0  0
  -10.7091    3.9023    2.3672 H   0  0  0  0  0  0  0  0  0  0  0  0
  -11.1852    4.7714    0.8494 H   0  0  0  0  0  0  0  0  0  0  0  0
   -8.4726    2.5343    0.9613 H   0  0  0  0  0  0  0  0  0  0  0  0
    0.0934   -4.4983    1.5965 H   0  0  0  0  0  0  0  0  0  0  0  0
   -1.0608   -4.7823   -1.2229 H   0  0  0  0  0  0  0  0  0  0  0  0
   -2.2878   -6.4253    0.1278 H   0  0  0  0  0  0  0  0  0  0  0  0
   -0.7628   -6.9833    0.9418 H   0  0  0  0  0  0  0  0  0  0  0  0
   -1.0541   -7.2982   -0.8153 H   0  0  0  0  0  0  0  0  0  0  0  0
    2.1296   -5.5252    0.9679 H   0  0  0  0  0  0  0  0  0  0  0  0
    1.7624   -7.9642   -0.8070 H   0  0  0  0  0  0  0  0  0  0  0  0
    1.5806   -8.2861    1.6461 H   0  0  0  0  0  0  0  0  0  0  0  0
    3.2605   -7.6624    1.8775 H   0  0  0  0  0  0  0  0  0  0  0  0
    2.9742   -9.2051    0.9522 H   0  0  0  0  0  0  0  0  0  0  0  0
    4.9131   -6.4083    0.7980 H   0  0  0  0  0  0  0  0  0  0  0  0
    4.4971   -4.7838   -1.5989 H   0  0  0  0  0  0  0  0  0  0  0  0
    7.0663   -6.4443   -1.4998 H   0  0  0  0  0  0  0  0  0  0  0  0
    7.0201   -4.8143   -2.3037 H   0  0  0  0  0  0  0  0  0  0  0  0
    5.9383   -6.1278   -2.8645 H   0  0  0  0  0  0  0  0  0  0  0  0
    7.1442   -3.4200    1.4305 H   0  0  0  0  0  0  0  0  0  0  0  0
    7.1877   -6.3826    0.7464 H   0  0  0  0  0  0  0  0  0  0  0  0
    8.6075   -6.5857    2.7331 H   0  0  0  0  0  0  0  0  0  0  0  0
    8.4955   -4.8051    3.0270 H   0  0  0  0  0  0  0  0  0  0  0  0
    7.0183   -5.8368    3.1300 H   0  0  0  0  0  0  0  0  0  0  0  0
   10.6799   -4.2292    1.0856 H   0  0  0  0  0  0  0  0  0  0  0  0
    8.7050   -2.9981   -0.8851 H   0  0  0  0  0  0  0  0  0  0  0  0
   10.6359   -4.3217   -1.9244 H   0  0  0  0  0  0  0  0  0  0  0  0
   10.5657   -2.6151   -2.3978 H   0  0  0  0  0  0  0  0  0  0  0  0
   11.7752   -3.1557   -1.1595 H   0  0  0  0  0  0  0  0  0  0  0  0
   10.0817   -0.5416   -1.5392 H   0  0  0  0  0  0  0  0  0  0  0  0
   11.2960    1.2880   -0.8236 H   0  0  0  0  0  0  0  0  0  0  0  0
   13.0350    0.9889    0.8742 H   0  0  0  0  0  0  0  0  0  0  0  0
   12.9946   -0.3548   -0.3262 H   0  0  0  0  0  0  0  0  0  0  0  0
   12.3504   -0.6127    1.3379 H   0  0  0  0  0  0  0  0  0  0  0  0
    8.6178    2.5175    1.5371 H   0  0  0  0  0  0  0  0  0  0  0  0
    8.7039    4.2149    0.1237 H   0  0  0  0  0  0  0  0  0  0  0  0
    9.1273    3.9469   -2.2394 H   0  0  0  0  0  0  0  0  0  0  0  0
    9.8825    2.3567   -2.0133 H   0  0  0  0  0  0  0  0  0  0  0  0
    8.1567    2.5719   -1.5943 H   0  0  0  0  0  0  0  0  0  0  0  0
   11.8664    5.8885    0.7301 H   0  0  0  0  0  0  0  0  0  0  0  0
    9.2964    6.4062   -0.6586 H   0  0  0  0  0  0  0  0  0  0  0  0
   11.1228    8.0212   -0.7768 H   0  0  0  0  0  0  0  0  0  0  0  0
    9.7155    8.7679    0.0733 H   0  0  0  0  0  0  0  0  0  0  0  0
   11.1438    8.2163    1.0091 H   0  0  0  0  0  0  0  0  0  0  0  0
    7.0146    6.5625    2.3274 H   0  0  0  0  0  0  0  0  0  0  0  0
    7.2060    5.8423   -0.5660 H   0  0  0  0  0  0  0  0  0  0  0  0
    5.9412    7.9259   -1.2792 H   0  0  0  0  0  0  0  0  0  0  0  0
    6.2616    8.6508    0.3482 H   0  0  0  0  0  0  0  0  0  0  0  0
    7.6272    8.2498   -0.7707 H   0  0  0  0  0  0  0  0  0  0  0  0
    4.7569    7.3891    1.9180 H   0  0  0  0  0  0  0  0  0  0  0  0
    2.4061    6.3811    1.7902 H   0  0  0  0  0  0  0  0  0  0  0  0
    0.3542    7.9333    0.9303 H   0  0  0  0  0  0  0  0  0  0  0  0
    0.8430    9.6315    0.6370 H   0  0  0  0  0  0  0  0  0  0  0  0
    1.5455    6.5482   -0.8029 H   0  0  0  0  0  0  0  0  0  0  0  0
    3.2367    6.1610   -1.1651 H   0  0  0  0  0  0  0  0  0  0  0  0
    0.2679    5.5988    0.9982 H   0  0  0  0  0  0  0  0  0  0  0  0
    0.6559    4.1033    1.8720 H   0  0  0  0  0  0  0  0  0  0  0  0
  1  2  1  0
  2  3  2  0
  2  4  1  0
  4  5  1  0
  5  6  1  0
  6  7  1  0
  7  8  1  0
  8  9  1  0
  9 10  1  0
 10 11  2  0
 11 12  1  0
 12 13  2  0
 13 14  1  0
 13 15  1  0
 15 16  1  0
 16 17  1  0
 17 18  1  0
 18 19  1  0
 19 20  1  0
 20 21  2  0
 20 22  1  0
 22 23  1  0
 22 24  1  0
 24 25  1  0
 25 26  2  0
 25 27  1  0
 27 28  1  0
 27 29  1  0
 29 30  1  0
 30 31  2  0
 30 32  1  0
 32 33  1  0
 32 34  1  0
 34 35  1  0
 35 36  2  0
 35 37  1  0
 37 38  1  0
 37 39  1  0
 39 40  1  0
 40 41  2  0
 40 42  1  0
 42 43  1  0
 42 44  1  0
 44 45  1  0
 45 46  2  0
 18 47  1  0
 47 48  2  0
 47 49  1  0
 49 50  1  0
 50 51  1  0
 50 52  1  0
 52 53  2  0
 52 54  1  0
 54 55  1  0
 55 56  1  0
 55 57  1  0
 57 58  2  0
 57 59  1  0
 59 60  1  0
 60 61  1  0
 60 62  1  0
 62 63  2  0
 62 64  1  0
 64 65  1  0
 65 66  1  0
 65 67  1  0
 67 68  2  0
 67 69  1  0
 69 70  1  0
 70 71  1  0
 70 72  1  0
 72 73  2  0
 72 74  1  0
 74 75  1  0
 75 76  1  0
 75 77  1  0
 77 78  2  0
 77 79  1  0
 79 80  1  0
 80 81  1  0
 80 82  1  0
 82 83  2  0
 82 84  1  0
 84 85  1  0
 85 86  1  0
 85 87  1  0
 87 88  2  0
 87 89  1  0
 89 90  1  0
 90 91  1  0
 90 92  1  0
 92 93  2  0
 92 94  1  0
 94 95  1  0
 95 96  1  0
 96 97  1  0
 96 98  2  0
 95 99  1  0
 99100  1  0
100101  1  0
 45  5  1  0
 14  9  2  0
101 11  1  0
  1102  1  0
  1103  1  0
  1104  1  0
  4105  1  0
  5106  1  6
  6107  1  0
  6108  1  0
  8109  1  0
  8110  1  0
 10111  1  0
 12112  1  0
 14113  1  0
 15114  1  0
 15115  1  0
 17116  1  0
 17117  1  0
 18118  1  6
 19119  1  0
 22120  1  6
 23121  1  0
 23122  1  0
 23123  1  0
 24124  1  0
 27125  1  6
 28126  1  0
 28127  1  0
 28128  1  0
 29129  1  0
 32130  1  6
 33131  1  0
 33132  1  0
 33133  1  0
 34134  1  0
 37135  1  1
 38136  1  0
 38137  1  0
 38138  1  0
 39139  1  0
 42140  1  6
 43141  1  0
 43142  1  0
 43143  1  0
 44144  1  0
 49145  1  0
 50146  1  6
 51147  1  0
 51148  1  0
 51149  1  0
 54150  1  0
 55151  1  6
 56152  1  0
 56153  1  0
 56154  1  0
 59155  1  0
 60156  1  6
 61157  1  0
 61158  1  0
 61159  1  0
 64160  1  0
 65161  1  6
 66162  1  0
 66163  1  0
 66164  1  0
 69165  1  0
 70166  1  6
 71167  1  0
 71168  1  0
 71169  1  0
 74170  1  0
 75171  1  6
 76172  1  0
 76173  1  0
 76174  1  0
 79175  1  0
 80176  1  1
 81177  1  0
 81178  1  0
 81179  1  0
 84180  1  0
 85181  1  6
 86182  1  0
 86183  1  0
 86184  1  0
 89185  1  0
 90186  1  6
 91187  1  0
 91188  1  0
 91189  1  0
 94190  1  0
 95191  1  1
 97192  1  0
 97193  1  0
 99194  1  0
 99195  1  0
101196  1  0
101197  1  0
M  END
