
     RDKit          3D

167169  0  0  0  0  0  0  0  0999 V2000
   11.7093    0.2717    3.0238 C   0  0  0  0  0  0  0  0  0  0  0  0
   11.6236    0.5926    1.5642 C   0  0  0  0  0  0  0  0  0  0  0  0
   12.6824    0.8430    0.9282 O   0  0  0  0  0  0  0  0  0  0  0  0
   10.3473    0.6321    0.9025 N   0  0  0  0  0  0  0  0  0  0  0  0
   10.1484    1.1201   -0.4692 C   0  0  1  0  0  0  0  0  0  0  0  0
   10.4849    2.6201   -0.5636 C   0  0  0  0  0  0  0  0  0  0  0  0
    9.3667    3.5867    0.5168 S   0  0  0  0  0  0  0  0  0  0  0  0
    8.0100    3.7795   -0.6944 C   0  0  0  0  0  0  0  0  0  0  0  0
    6.6811    3.5381   -0.0336 C   0  0  0  0  0  0  0  0  0  0  0  0
    6.2864    2.2315    0.2782 C   0  0  0  0  0  0  0  0  0  0  0  0
    4.9939    1.9680    0.7508 C   0  0  0  0  0  0  0  0  0  0  0  0
    4.1044    3.0373    0.9552 C   0  0  0  0  0  0  0  0  0  0  0  0
    4.5186    4.3645    0.7313 C   0  0  0  0  0  0  0  0  0  0  0  0
    5.8161    4.6047    0.2386 C   0  0  0  0  0  0  0  0  0  0  0  0
    3.6325    5.5153    1.1357 C   0  0  0  0  0  0  0  0  0  0  0  0
    3.5382    6.7754   -0.1931 S   0  0  0  0  0  0  0  0  0  0  0  0
    1.8186    6.4351   -0.7378 C   0  0  0  0  0  0  0  0  0  0  0  0
    0.7591    7.0993    0.1677 C   0  0  1  0  0  0  0  0  0  0  0  0
    1.0731    8.5570    0.4115 C   0  0  0  0  0  0  0  0  0  0  0  0
    1.0815    9.4936   -0.6698 N   0  0  0  0  0  0  0  0  0  0  0  0
    1.3419    8.9511    1.5777 O   0  0  0  0  0  0  0  0  0  0  0  0
   -0.5724    6.9834   -0.4335 N   0  0  0  0  0  0  0  0  0  0  0  0
   -1.7537    7.3871    0.2726 C   0  0  0  0  0  0  0  0  0  0  0  0
   -1.8029    7.2626    1.5286 O   0  0  0  0  0  0  0  0  0  0  0  0
   -2.9667    7.9061   -0.4569 C   0  0  1  0  0  0  0  0  0  0  0  0
   -2.5792    8.8220   -1.6268 C   0  0  0  0  0  0  0  0  0  0  0  0
   -3.7915    6.7919   -0.9237 N   0  0  0  0  0  0  0  0  0  0  0  0
   -5.1852    6.9828   -1.1900 C   0  0  0  0  0  0  0  0  0  0  0  0
   -5.5386    7.5475   -2.2596 O   0  0  0  0  0  0  0  0  0  0  0  0
   -6.2106    6.5732   -0.1674 C   0  0  1  0  0  0  0  0  0  0  0  0
   -6.4897    7.7299    0.7937 C   0  0  0  0  0  0  0  0  0  0  0  0
   -7.4616    6.1770   -0.8296 N   0  0  0  0  0  0  0  0  0  0  0  0
   -8.1501    4.9242   -0.6586 C   0  0  0  0  0  0  0  0  0  0  0  0
   -9.2859    4.7913   -1.1918 O   0  0  0  0  0  0  0  0  0  0  0  0
   -7.5849    3.7889    0.1664 C   0  0  1  0  0  0  0  0  0  0  0  0
   -7.7921    4.0285    1.6708 C   0  0  0  0  0  0  0  0  0  0  0  0
   -8.1518    2.4935   -0.2449 N   0  0  0  0  0  0  0  0  0  0  0  0
   -9.4285    1.9970    0.1945 C   0  0  0  0  0  0  0  0  0  0  0  0
  -10.3814    2.7931    0.4037 O   0  0  0  0  0  0  0  0  0  0  0  0
   -9.5993    0.5299    0.4906 C   0  0  1  0  0  0  0  0  0  0  0  0
   -9.8317    0.3490    1.9950 C   0  0  0  0  0  0  0  0  0  0  0  0
  -10.7172   -0.0329   -0.2756 N   0  0  0  0  0  0  0  0  0  0  0  0
  -10.9482   -1.4369   -0.5042 C   0  0  0  0  0  0  0  0  0  0  0  0
  -11.9729   -1.7818   -1.1585 O   0  0  0  0  0  0  0  0  0  0  0  0
  -10.0370   -2.5215    0.0395 C   0  0  1  0  0  0  0  0  0  0  0  0
  -10.7840   -3.3383    1.1020 C   0  0  0  0  0  0  0  0  0  0  0  0
   -9.5816   -3.3995   -1.0454 N   0  0  0  0  0  0  0  0  0  0  0  0
   -8.5316   -4.3794   -0.9332 C   0  0  0  0  0  0  0  0  0  0  0  0
   -8.4977   -5.3182   -1.7782 O   0  0  0  0  0  0  0  0  0  0  0  0
   -7.4573   -4.3264    0.1373 C   0  0  1  0  0  0  0  0  0  0  0  0
   -7.4682   -5.5970    0.9876 C   0  0  0  0  0  0  0  0  0  0  0  0
   -6.1383   -4.0689   -0.4593 N   0  0  0  0  0  0  0  0  0  0  0  0
   -5.5024   -4.9198   -1.4277 C   0  0  0  0  0  0  0  0  0  0  0  0
   -5.3413   -4.4969   -2.6060 O   0  0  0  0  0  0  0  0  0  0  0  0
   -4.9370   -6.2618   -1.0372 C   0  0  1  0  0  0  0  0  0  0  0  0
   -5.5422   -7.3758   -1.9001 C   0  0  0  0  0  0  0  0  0  0  0  0
   -3.4764   -6.2489   -1.1692 N   0  0  0  0  0  0  0  0  0  0  0  0
   -2.6605   -5.7992   -0.0766 C   0  0  0  0  0  0  0  0  0  0  0  0
   -3.0404   -4.8260    0.6292 O   0  0  0  0  0  0  0  0  0  0  0  0
   -1.3809   -6.5142    0.2774 C   0  0  1  0  0  0  0  0  0  0  0  0
   -1.6083   -8.0303    0.3450 C   0  0  0  0  0  0  0  0  0  0  0  0
   -0.3337   -6.2014   -0.6962 N   0  0  0  0  0  0  0  0  0  0  0  0
    0.6989   -5.2531   -0.4015 C   0  0  0  0  0  0  0  0  0  0  0  0
    0.5608   -4.0559   -0.7762 O   0  0  0  0  0  0  0  0  0  0  0  0
    1.9971   -5.6787    0.2408 C   0  0  1  0  0  0  0  0  0  0  0  0
    1.7668   -6.5774    1.4579 C   0  0  0  0  0  0  0  0  0  0  0  0
    2.8267   -6.3786   -0.7449 N   0  0  0  0  0  0  0  0  0  0  0  0
    4.2500   -6.2190   -0.8623 C   0  0  0  0  0  0  0  0  0  0  0  0
    4.8144   -6.6065   -1.9219 O   0  0  0  0  0  0  0  0  0  0  0  0
    5.0837   -5.5893    0.2374 C   0  0  1  0  0  0  0  0  0  0  0  0
    6.3806   -6.3777    0.4408 C   0  0  0  0  0  0  0  0  0  0  0  0
    5.4042   -4.1763   -0.0149 N   0  0  0  0  0  0  0  0  0  0  0  0
    4.9653   -3.3882   -1.1350 C   0  0  0  0  0  0  0  0  0  0  0  0
    3.8128   -3.5515   -1.6240 O   0  0  0  0  0  0  0  0  0  0  0  0
    5.8636   -2.3114   -1.6849 C   0  0  1  0  0  0  0  0  0  0  0  0
    5.8991   -1.1001   -0.7370 C   0  0  0  0  0  0  0  0  0  0  0  0
    4.2300   -0.3653   -0.5099 S   0  0  0  0  0  0  0  0  0  0  0  0
    4.5729    0.5490    1.0409 C   0  0  0  0  0  0  0  0  0  0  0  0
    7.2072   -2.8706   -1.8779 N   0  0  0  0  0  0  0  0  0  0  0  0
    8.3416   -2.0587   -2.1896 C   0  0  0  0  0  0  0  0  0  0  0  0
    8.4451   -1.5513   -3.3421 O   0  0  0  0  0  0  0  0  0  0  0  0
    9.3878   -1.7951   -1.1360 C   0  0  1  0  0  0  0  0  0  0  0  0
    9.8500   -3.0956   -0.4734 C   0  0  0  0  0  0  0  0  0  0  0  0
   10.5502   -1.1054   -1.7139 N   0  0  0  0  0  0  0  0  0  0  0  0
   10.9186    0.2629   -1.4503 C   0  0  0  0  0  0  0  0  0  0  0  0
   11.9107    0.7529   -2.0600 O   0  0  0  0  0  0  0  0  0  0  0  0
   12.1124    1.1490    3.5699 H   0  0  0  0  0  0  0  0  0  0  0  0
   10.7079    0.0242    3.4307 H   0  0  0  0  0  0  0  0  0  0  0  0
   12.3827   -0.5954    3.1780 H   0  0  0  0  0  0  0  0  0  0  0  0
    9.5001    0.3379    1.4350 H   0  0  0  0  0  0  0  0  0  0  0  0
    9.0740    1.0217   -0.7341 H   0  0  0  0  0  0  0  0  0  0  0  0
   10.3981    2.9722   -1.6153 H   0  0  0  0  0  0  0  0  0  0  0  0
   11.5321    2.8067   -0.2448 H   0  0  0  0  0  0  0  0  0  0  0  0
    8.0603    4.7977   -1.1281 H   0  0  0  0  0  0  0  0  0  0  0  0
    8.1034    3.0697   -1.5419 H   0  0  0  0  0  0  0  0  0  0  0  0
    6.9887    1.4192    0.1535 H   0  0  0  0  0  0  0  0  0  0  0  0
    3.1067    2.8401    1.3339 H   0  0  0  0  0  0  0  0  0  0  0  0
    6.1524    5.6224    0.0818 H   0  0  0  0  0  0  0  0  0  0  0  0
    4.0779    5.9992    2.0305 H   0  0  0  0  0  0  0  0  0  0  0  0
    2.6216    5.1608    1.4364 H   0  0  0  0  0  0  0  0  0  0  0  0
    1.7186    6.8277   -1.7738 H   0  0  0  0  0  0  0  0  0  0  0  0
    1.6530    5.3357   -0.7901 H   0  0  0  0  0  0  0  0  0  0  0  0
    0.7566    6.5629    1.1400 H   0  0  0  0  0  0  0  0  0  0  0  0
    0.8282    9.1967   -1.6398 H   0  0  0  0  0  0  0  0  0  0  0  0
    1.2833   10.5029   -0.4895 H   0  0  0  0  0  0  0  0  0  0  0  0
   -0.6619    6.7096   -1.4406 H   0  0  0  0  0  0  0  0  0  0  0  0
   -3.5550    8.5228    0.2614 H   0  0  0  0  0  0  0  0  0  0  0  0
   -1.8778    9.6094   -1.2801 H   0  0  0  0  0  0  0  0  0  0  0  0
   -3.4818    9.3212   -2.0321 H   0  0  0  0  0  0  0  0  0  0  0  0
   -2.1057    8.2432   -2.4473 H   0  0  0  0  0  0  0  0  0  0  0  0
   -3.3230    5.9709   -1.3719 H   0  0  0  0  0  0  0  0  0  0  0  0
   -5.7824    5.7426    0.4233 H   0  0  0  0  0  0  0  0  0  0  0  0
   -5.5957    7.9358    1.4160 H   0  0  0  0  0  0  0  0  0  0  0  0
   -6.7682    8.6475    0.2340 H   0  0  0  0  0  0  0  0  0  0  0  0
   -7.3276    7.4618    1.4721 H   0  0  0  0  0  0  0  0  0  0  0  0
   -7.9434    6.9006   -1.4124 H   0  0  0  0  0  0  0  0  0  0  0  0
   -6.4929    3.7298   -0.0264 H   0  0  0  0  0  0  0  0  0  0  0  0
   -8.8529    4.2651    1.8935 H   0  0  0  0  0  0  0  0  0  0  0  0
   -7.1690    4.8730    2.0287 H   0  0  0  0  0  0  0  0  0  0  0  0
   -7.4957    3.1208    2.2418 H   0  0  0  0  0  0  0  0  0  0  0  0
   -7.5180    1.8341   -0.7523 H   0  0  0  0  0  0  0  0  0  0  0  0
   -8.6550    0.0222    0.2033 H   0  0  0  0  0  0  0  0  0  0  0  0
  -10.7868    0.8315    2.3000 H   0  0  0  0  0  0  0  0  0  0  0  0
   -8.9970    0.8046    2.5706 H   0  0  0  0  0  0  0  0  0  0  0  0
   -9.8827   -0.7226    2.2686 H   0  0  0  0  0  0  0  0  0  0  0  0
  -11.3844    0.6227   -0.7509 H   0  0  0  0  0  0  0  0  0  0  0  0
   -9.1597   -2.0535    0.5097 H   0  0  0  0  0  0  0  0  0  0  0  0
  -10.0905   -4.0413    1.6036 H   0  0  0  0  0  0  0  0  0  0  0  0
  -11.2106   -2.6705    1.8778 H   0  0  0  0  0  0  0  0  0  0  0  0
  -11.6077   -3.9231    0.6373 H   0  0  0  0  0  0  0  0  0  0  0  0
  -10.1470   -3.4336   -1.9254 H   0  0  0  0  0  0  0  0  0  0  0  0
   -7.6544   -3.5017    0.8447 H   0  0  0  0  0  0  0  0  0  0  0  0
   -8.4008   -5.6507    1.5894 H   0  0  0  0  0  0  0  0  0  0  0  0
   -6.6080   -5.5875    1.6927 H   0  0  0  0  0  0  0  0  0  0  0  0
   -7.4276   -6.5077    0.3568 H   0  0  0  0  0  0  0  0  0  0  0  0
   -5.8172   -3.0710   -0.4547 H   0  0  0  0  0  0  0  0  0  0  0  0
   -5.1806   -6.4910    0.0191 H   0  0  0  0  0  0  0  0  0  0  0  0
   -5.1559   -8.3579   -1.5598 H   0  0  0  0  0  0  0  0  0  0  0  0
   -5.2739   -7.2340   -2.9673 H   0  0  0  0  0  0  0  0  0  0  0  0
   -6.6486   -7.3838   -1.7982 H   0  0  0  0  0  0  0  0  0  0  0  0
   -3.0304   -6.8417   -1.9023 H   0  0  0  0  0  0  0  0  0  0  0  0
   -1.0700   -6.1765    1.2896 H   0  0  0  0  0  0  0  0  0  0  0  0
   -1.8501   -8.4449   -0.6543 H   0  0  0  0  0  0  0  0  0  0  0  0
   -2.4431   -8.2585    1.0420 H   0  0  0  0  0  0  0  0  0  0  0  0
   -0.6990   -8.5415    0.7195 H   0  0  0  0  0  0  0  0  0  0  0  0
   -0.4984   -6.4372   -1.7000 H   0  0  0  0  0  0  0  0  0  0  0  0
    2.5145   -4.7585    0.5931 H   0  0  0  0  0  0  0  0  0  0  0  0
    2.7314   -6.8247    1.9497 H   0  0  0  0  0  0  0  0  0  0  0  0
    1.1268   -6.0631    2.2020 H   0  0  0  0  0  0  0  0  0  0  0  0
    1.2997   -7.5336    1.1526 H   0  0  0  0  0  0  0  0  0  0  0  0
    2.3568   -7.0320   -1.4142 H   0  0  0  0  0  0  0  0  0  0  0  0
    4.5392   -5.6450    1.2017 H   0  0  0  0  0  0  0  0  0  0  0  0
    6.9367   -5.9476    1.3066 H   0  0  0  0  0  0  0  0  0  0  0  0
    7.0324   -6.3081   -0.4613 H   0  0  0  0  0  0  0  0  0  0  0  0
    6.1592   -7.4452    0.6566 H   0  0  0  0  0  0  0  0  0  0  0  0
    6.0597   -3.7184    0.6618 H   0  0  0  0  0  0  0  0  0  0  0  0
    5.4764   -1.9810   -2.6751 H   0  0  0  0  0  0  0  0  0  0  0  0
    6.5446   -0.3213   -1.1868 H   0  0  0  0  0  0  0  0  0  0  0  0
    6.3381   -1.4002    0.2356 H   0  0  0  0  0  0  0  0  0  0  0  0
    5.3461    0.0428    1.6571 H   0  0  0  0  0  0  0  0  0  0  0  0
    3.6436    0.5404    1.6485 H   0  0  0  0  0  0  0  0  0  0  0  0
    7.2949   -3.8904   -2.1106 H   0  0  0  0  0  0  0  0  0  0  0  0
    8.9095   -1.1842   -0.3471 H   0  0  0  0  0  0  0  0  0  0  0  0
    9.0127   -3.5576    0.0971 H   0  0  0  0  0  0  0  0  0  0  0  0
   10.6697   -2.8809    0.2449 H   0  0  0  0  0  0  0  0  0  0  0  0
   10.2193   -3.8152   -1.2359 H   0  0  0  0  0  0  0  0  0  0  0  0
   11.1196   -1.6261   -2.4207 H   0  0  0  0  0  0  0  0  0  0  0  0
  1  2  1  0
  2  3  2  0
  2  4  1  0
  4  5  1  0
  5  6  1  0
  6  7  1  0
  7  8  1  0
  8  9  1  0
  9 10  1  0
 10 11  2  0
 11 12  1  0
 12 13  2  0
 13 14  1  0
 13 15  1  0
 15 16  1  0
 16 17  1  0
 17 18  1  0
 18 19  1  0
 19 20  1  0
 19 21  2  0
 18 22  1  0
 22 23  1  0
 23 24  2  0
 23 25  1  0
 25 26  1  0
 25 27  1  0
 27 28  1  0
 28 29  2  0
 28 30  1  0
 30 31  1  0
 30 32  1  0
 32 33  1  0
 33 34  2  0
 33 35  1  0
 35 36  1  0
 35 37  1  0
 37 38  1  0
 38 39  2  0
 38 40  1  0
 40 41  1  0
 40 42  1  0
 42 43  1  0
 43 44  2  0
 43 45  1  0
 45 46  1  0
 45 47  1  0
 47 48  1  0
 48 49  2  0
 48 50  1  0
 50 51  1  0
 50 52  1  0
 52 53  1  0
 53 54  2  0
 53 55  1  0
 55 56  1  0
 55 57  1  0
 57 58  1  0
 58 59  2  0
 58 60  1  0
 60 61  1  0
 60 62  1  0
 62 63  1  0
 63 64  2  0
 63 65  1  0
 65 66  1  0
 65 67  1  0
 67 68  1  0
 68 69  2  0
 68 70  1  0
 70 71  1  0
 70 72  1  0
 72 73  1  0
 73 74  2  0
 73 75  1  0
 75 76  1  0
 76 77  1  0
 77 78  1  0
 75 79  1  0
 79 80  1  0
 80 81  2  0
 80 82  1  0
 82 83  1  0
 82 84  1  0
 84 85  1  0
 85 86  2  0
 85  5  1  0
 14  9  2  0
 78 11  1  0
  1 87  1  0
  1 88  1  0
  1 89  1  0
  4 90  1  0
  5 91  1  6
  6 92  1  0
  6 93  1  0
  8 94  1  0
  8 95  1  0
 10 96  1  0
 12 97  1  0
 14 98  1  0
 15 99  1  0
 15100  1  0
 17101  1  0
 17102  1  0
 18103  1  1
 20104  1  0
 20105  1  0
 22106  1  0
 25107  1  1
 26108  1  0
 26109  1  0
 26110  1  0
 27111  1  0
 30112  1  1
 31113  1  0
 31114  1  0
 31115  1  0
 32116  1  0
 35117  1  1
 36118  1  0
 36119  1  0
 36120  1  0
 37121  1  0
 40122  1  6
 41123  1  0
 41124  1  0
 41125  1  0
 42126  1  0
 45127  1  1
 46128  1  0
 46129  1  0
 46130  1  0
 47131  1  0
 50132  1  1
 51133  1  0
 51134  1  0
 51135  1  0
 52136  1  0
 55137  1  1
 56138  1  0
 56139  1  0
 56140  1  0
 57141  1  0
 60142  1  1
 61143  1  0
 61144  1  0
 61145  1  0
 62146  1  0
 65147  1  1
 66148  1  0
 66149  1  0
 66150  1  0
 67151  1  0
 70152  1  1
 71153  1  0
 71154  1  0
 71155  1  0
 72156  1  0
 75157  1  6
 76158  1  0
 76159  1  0
 78160  1  0
 78161  1  0
 79162  1  0
 82163  1  1
 83164  1  0
 83165  1  0
 83166  1  0
 84167  1  0
M  END
