
     RDKit          3D

187189  0  0  0  0  0  0  0  0999 V2000
   -8.8771    4.7479   -4.2089 C   0  0  0  0  0  0  0  0  0  0  0  0
   -8.4139    5.3307   -2.9064 C   0  0  0  0  0  0  0  0  0  0  0  0
   -8.5239    6.5693   -2.7114 O   0  0  0  0  0  0  0  0  0  0  0  0
   -7.8094    4.4880   -1.9111 N   0  0  0  0  0  0  0  0  0  0  0  0
   -7.3525    5.0111   -0.6191 C   0  0  2  0  0  0  0  0  0  0  0  0
   -6.2880    4.0803   -0.0092 C   0  0  0  0  0  0  0  0  0  0  0  0
   -5.3904    4.9279    1.3426 S   0  0  0  0  0  0  0  0  0  0  0  0
   -4.3023    3.5249    1.7682 C   0  0  0  0  0  0  0  0  0  0  0  0
   -3.2429    3.2814    0.7242 C   0  0  0  0  0  0  0  0  0  0  0  0
   -2.4412    4.3410    0.2665 C   0  0  0  0  0  0  0  0  0  0  0  0
   -1.4315    4.1167   -0.6770 C   0  0  0  0  0  0  0  0  0  0  0  0
   -1.1661    2.8060   -1.1013 C   0  0  0  0  0  0  0  0  0  0  0  0
   -1.9304    1.7258   -0.6265 C   0  0  0  0  0  0  0  0  0  0  0  0
   -2.9969    1.9755    0.2566 C   0  0  0  0  0  0  0  0  0  0  0  0
   -1.4764    0.3135   -0.9308 C   0  0  0  0  0  0  0  0  0  0  0  0
   -2.8622   -0.8517   -1.1377 S   0  0  0  0  0  0  0  0  0  0  0  0
   -1.8784   -2.3107   -1.6821 C   0  0  0  0  0  0  0  0  0  0  0  0
   -1.1257   -3.0779   -0.5513 C   0  0  2  0  0  0  0  0  0  0  0  0
   -1.8186   -2.8991    0.7318 N   0  0  0  0  0  0  0  0  0  0  0  0
   -2.7237   -3.8539    1.3119 C   0  0  0  0  0  0  0  0  0  0  0  0
   -2.8174   -3.9025    2.5659 O   0  0  0  0  0  0  0  0  0  0  0  0
   -3.5533   -4.8159    0.4798 C   0  0  1  0  0  0  0  0  0  0  0  0
   -2.9255   -6.2095    0.5695 C   0  0  0  0  0  0  0  0  0  0  0  0
   -4.9345   -4.8300    0.9779 N   0  0  0  0  0  0  0  0  0  0  0  0
   -5.9544   -5.7301    0.4915 C   0  0  0  0  0  0  0  0  0  0  0  0
   -5.7445   -6.4556   -0.5079 O   0  0  0  0  0  0  0  0  0  0  0  0
   -7.2943   -5.7875    1.1828 C   0  0  1  0  0  0  0  0  0  0  0  0
   -7.1277   -6.1436    2.6660 C   0  0  0  0  0  0  0  0  0  0  0  0
   -7.9736   -4.5027    1.0395 N   0  0  0  0  0  0  0  0  0  0  0  0
   -8.8892   -4.2491   -0.0360 C   0  0  0  0  0  0  0  0  0  0  0  0
   -9.4806   -5.2094   -0.6066 O   0  0  0  0  0  0  0  0  0  0  0  0
   -9.1062   -2.8341   -0.4975 C   0  0  1  0  0  0  0  0  0  0  0  0
  -10.1164   -2.7259   -1.6510 C   0  0  0  0  0  0  0  0  0  0  0  0
   -9.5558   -2.0075    0.6276 N   0  0  0  0  0  0  0  0  0  0  0  0
   -8.7611   -0.9392    1.1576 C   0  0  0  0  0  0  0  0  0  0  0  0
   -8.3399   -1.0213    2.3389 O   0  0  0  0  0  0  0  0  0  0  0  0
   -8.5334    0.3344    0.3843 C   0  0  1  0  0  0  0  0  0  0  0  0
   -7.6005    0.1509   -0.8120 C   0  0  0  0  0  0  0  0  0  0  0  0
   -9.8176    0.8877   -0.0554 N   0  0  0  0  0  0  0  0  0  0  0  0
   -9.9541    2.2573   -0.4533 C   0  0  0  0  0  0  0  0  0  0  0  0
  -10.0340    2.5156   -1.6847 O   0  0  0  0  0  0  0  0  0  0  0  0
  -10.2678    3.3449    0.5422 C   0  0  1  0  0  0  0  0  0  0  0  0
   -9.7471    3.0638    1.9561 C   0  0  0  0  0  0  0  0  0  0  0  0
   -9.8109    4.6507    0.0406 N   0  0  0  0  0  0  0  0  0  0  0  0
   -8.5163    5.1979    0.3271 C   0  0  0  0  0  0  0  0  0  0  0  0
   -8.3691    5.8925    1.3640 O   0  0  0  0  0  0  0  0  0  0  0  0
    0.3375   -2.6686   -0.4188 C   0  0  0  0  0  0  0  0  0  0  0  0
    0.7865   -1.7086   -1.1144 O   0  0  0  0  0  0  0  0  0  0  0  0
    1.2664   -3.3266    0.4696 N   0  0  0  0  0  0  0  0  0  0  0  0
    0.9628   -4.4281    1.3940 C   0  0  2  0  0  0  0  0  0  0  0  0
    2.0113   -4.4878    2.5190 C   0  0  0  0  0  0  0  0  0  0  0  0
    0.9051   -5.7598    0.6960 C   0  0  0  0  0  0  0  0  0  0  0  0
    0.3126   -6.7104    1.2723 O   0  0  0  0  0  0  0  0  0  0  0  0
    1.5390   -6.0071   -0.5708 N   0  0  0  0  0  0  0  0  0  0  0  0
    2.9616   -5.7311   -0.8008 C   0  0  2  0  0  0  0  0  0  0  0  0
    3.2528   -5.7461   -2.3072 C   0  0  0  0  0  0  0  0  0  0  0  0
    3.8260   -6.7226   -0.0532 C   0  0  0  0  0  0  0  0  0  0  0  0
    3.3971   -7.2443    1.0125 O   0  0  0  0  0  0  0  0  0  0  0  0
    5.1385   -7.0591   -0.5126 N   0  0  0  0  0  0  0  0  0  0  0  0
    6.3584   -6.6099    0.1665 C   0  0  2  0  0  0  0  0  0  0  0  0
    6.2939   -6.8581    1.6797 C   0  0  0  0  0  0  0  0  0  0  0  0
    6.6779   -5.1838   -0.2184 C   0  0  0  0  0  0  0  0  0  0  0  0
    6.7438   -4.8843   -1.4435 O   0  0  0  0  0  0  0  0  0  0  0  0
    6.9903   -4.1756    0.7616 N   0  0  0  0  0  0  0  0  0  0  0  0
    8.1013   -3.2375    0.5445 C   0  0  2  0  0  0  0  0  0  0  0  0
    9.4250   -3.9565    0.8041 C   0  0  0  0  0  0  0  0  0  0  0  0
    7.9910   -2.0427    1.4601 C   0  0  0  0  0  0  0  0  0  0  0  0
    7.8008   -2.2555    2.6895 O   0  0  0  0  0  0  0  0  0  0  0  0
    8.2194   -0.6822    1.0384 N   0  0  0  0  0  0  0  0  0  0  0  0
    8.1059   -0.0923   -0.3084 C   0  0  2  0  0  0  0  0  0  0  0  0
    6.8161   -0.5054   -1.0335 C   0  0  0  0  0  0  0  0  0  0  0  0
    9.3504   -0.3222   -1.1417 C   0  0  0  0  0  0  0  0  0  0  0  0
    9.6791   -1.4995   -1.4462 O   0  0  0  0  0  0  0  0  0  0  0  0
   10.1754    0.7506   -1.6343 N   0  0  0  0  0  0  0  0  0  0  0  0
    9.8886    2.1820   -1.4868 C   0  0  2  0  0  0  0  0  0  0  0  0
   10.6806    2.9810   -2.5253 C   0  0  0  0  0  0  0  0  0  0  0  0
   10.2484    2.6490   -0.0934 C   0  0  0  0  0  0  0  0  0  0  0  0
   11.0525    1.9633    0.5945 O   0  0  0  0  0  0  0  0  0  0  0  0
    9.7595    3.8843    0.4715 N   0  0  0  0  0  0  0  0  0  0  0  0
    8.8185    4.8123   -0.1668 C   0  0  2  0  0  0  0  0  0  0  0  0
    9.5326    6.1591   -0.3792 C   0  0  0  0  0  0  0  0  0  0  0  0
    7.5729    4.9129    0.6901 C   0  0  0  0  0  0  0  0  0  0  0  0
    7.0927    3.8386    1.1530 O   0  0  0  0  0  0  0  0  0  0  0  0
    6.9066    6.1697    0.9564 N   0  0  0  0  0  0  0  0  0  0  0  0
    5.8573    6.3341    1.9653 C   0  0  2  0  0  0  0  0  0  0  0  0
    6.3851    6.0479    3.3733 C   0  0  0  0  0  0  0  0  0  0  0  0
    4.6535    5.4952    1.6161 C   0  0  0  0  0  0  0  0  0  0  0  0
    4.5510    4.3163    2.0447 O   0  0  0  0  0  0  0  0  0  0  0  0
    3.6713    6.0081    0.7167 N   0  0  0  0  0  0  0  0  0  0  0  0
    3.0660    5.1536   -0.3046 C   0  0  2  0  0  0  0  0  0  0  0  0
    3.0517    5.8217   -1.6672 C   0  0  0  0  0  0  0  0  0  0  0  0
    3.6608    7.0950   -1.8983 N   0  0  0  0  0  0  0  0  0  0  0  0
    2.5318    5.2117   -2.6380 O   0  0  0  0  0  0  0  0  0  0  0  0
    1.6679    4.6888    0.1463 C   0  0  0  0  0  0  0  0  0  0  0  0
    0.4199    6.0301    0.0724 S   0  0  0  0  0  0  0  0  0  0  0  0
   -0.6385    5.2807   -1.2199 C   0  0  0  0  0  0  0  0  0  0  0  0
   -9.2618    5.5431   -4.8777 H   0  0  0  0  0  0  0  0  0  0  0  0
   -8.0323    4.2320   -4.7057 H   0  0  0  0  0  0  0  0  0  0  0  0
   -9.6923    4.0181   -4.0236 H   0  0  0  0  0  0  0  0  0  0  0  0
   -7.6242    3.4883   -2.1545 H   0  0  0  0  0  0  0  0  0  0  0  0
   -6.8766    5.9977   -0.7997 H   0  0  0  0  0  0  0  0  0  0  0  0
   -5.5555    3.8048   -0.7987 H   0  0  0  0  0  0  0  0  0  0  0  0
   -6.7643    3.1504    0.3748 H   0  0  0  0  0  0  0  0  0  0  0  0
   -3.8052    3.7722    2.7263 H   0  0  0  0  0  0  0  0  0  0  0  0
   -4.9238    2.6195    1.9439 H   0  0  0  0  0  0  0  0  0  0  0  0
   -2.6129    5.3489    0.6438 H   0  0  0  0  0  0  0  0  0  0  0  0
   -0.3440    2.6249   -1.7929 H   0  0  0  0  0  0  0  0  0  0  0  0
   -3.5812    1.1549    0.6420 H   0  0  0  0  0  0  0  0  0  0  0  0
   -0.8305   -0.0291   -0.1007 H   0  0  0  0  0  0  0  0  0  0  0  0
   -0.8749    0.3023   -1.8637 H   0  0  0  0  0  0  0  0  0  0  0  0
   -2.5948   -3.0172   -2.1562 H   0  0  0  0  0  0  0  0  0  0  0  0
   -1.1954   -2.0113   -2.5074 H   0  0  0  0  0  0  0  0  0  0  0  0
   -1.1204   -4.1538   -0.8293 H   0  0  0  0  0  0  0  0  0  0  0  0
   -1.5400   -2.0881    1.3257 H   0  0  0  0  0  0  0  0  0  0  0  0
   -3.5680   -4.4874   -0.5783 H   0  0  0  0  0  0  0  0  0  0  0  0
   -2.9879   -6.6092    1.6050 H   0  0  0  0  0  0  0  0  0  0  0  0
   -3.4133   -6.9234   -0.1285 H   0  0  0  0  0  0  0  0  0  0  0  0
   -1.8647   -6.1585    0.2574 H   0  0  0  0  0  0  0  0  0  0  0  0
   -5.2530   -4.0407    1.5987 H   0  0  0  0  0  0  0  0  0  0  0  0
   -7.9034   -6.5895    0.7215 H   0  0  0  0  0  0  0  0  0  0  0  0
   -6.5159   -5.3876    3.2003 H   0  0  0  0  0  0  0  0  0  0  0  0
   -8.1237   -6.2020    3.1526 H   0  0  0  0  0  0  0  0  0  0  0  0
   -6.6315   -7.1326    2.7599 H   0  0  0  0  0  0  0  0  0  0  0  0
   -7.5865   -3.6787    1.5571 H   0  0  0  0  0  0  0  0  0  0  0  0
   -8.1265   -2.4763   -0.8679 H   0  0  0  0  0  0  0  0  0  0  0  0
  -11.1008   -3.1416   -1.3510 H   0  0  0  0  0  0  0  0  0  0  0  0
  -10.2484   -1.6672   -1.9463 H   0  0  0  0  0  0  0  0  0  0  0  0
   -9.7411   -3.2796   -2.5362 H   0  0  0  0  0  0  0  0  0  0  0  0
  -10.3304   -2.3786    1.2278 H   0  0  0  0  0  0  0  0  0  0  0  0
   -8.0423    1.0549    1.0674 H   0  0  0  0  0  0  0  0  0  0  0  0
   -7.2564    1.1408   -1.1805 H   0  0  0  0  0  0  0  0  0  0  0  0
   -6.7035   -0.4443   -0.5210 H   0  0  0  0  0  0  0  0  0  0  0  0
   -8.1230   -0.3445   -1.6511 H   0  0  0  0  0  0  0  0  0  0  0  0
  -10.4951    0.2223   -0.4972 H   0  0  0  0  0  0  0  0  0  0  0  0
  -11.3793    3.3888    0.6261 H   0  0  0  0  0  0  0  0  0  0  0  0
  -10.0847    3.8612    2.6504 H   0  0  0  0  0  0  0  0  0  0  0  0
  -10.1437    2.0963    2.3322 H   0  0  0  0  0  0  0  0  0  0  0  0
   -8.6406    3.0410    1.9825 H   0  0  0  0  0  0  0  0  0  0  0  0
  -10.4903    5.2434   -0.4922 H   0  0  0  0  0  0  0  0  0  0  0  0
    2.2187   -2.8907    0.5350 H   0  0  0  0  0  0  0  0  0  0  0  0
   -0.0080   -4.2288    1.8830 H   0  0  0  0  0  0  0  0  0  0  0  0
    1.7607   -5.3038    3.2338 H   0  0  0  0  0  0  0  0  0  0  0  0
    3.0203   -4.6809    2.1026 H   0  0  0  0  0  0  0  0  0  0  0  0
    2.0336   -3.5275    3.0774 H   0  0  0  0  0  0  0  0  0  0  0  0
    1.1099   -6.7653   -1.1494 H   0  0  0  0  0  0  0  0  0  0  0  0
    3.2202   -4.7251   -0.4210 H   0  0  0  0  0  0  0  0  0  0  0  0
    4.2960   -5.4174   -2.5078 H   0  0  0  0  0  0  0  0  0  0  0  0
    3.1123   -6.7693   -2.7209 H   0  0  0  0  0  0  0  0  0  0  0  0
    2.5670   -5.0515   -2.8371 H   0  0  0  0  0  0  0  0  0  0  0  0
    5.2278   -7.5899   -1.4078 H   0  0  0  0  0  0  0  0  0  0  0  0
    7.2006   -7.2238   -0.2222 H   0  0  0  0  0  0  0  0  0  0  0  0
    6.0774   -7.9283    1.8739 H   0  0  0  0  0  0  0  0  0  0  0  0
    5.4950   -6.2471    2.1518 H   0  0  0  0  0  0  0  0  0  0  0  0
    7.2635   -6.6061    2.1534 H   0  0  0  0  0  0  0  0  0  0  0  0
    6.4984   -4.1908    1.6826 H   0  0  0  0  0  0  0  0  0  0  0  0
    8.0869   -2.9305   -0.5066 H   0  0  0  0  0  0  0  0  0  0  0  0
    9.5595   -4.7987    0.0887 H   0  0  0  0  0  0  0  0  0  0  0  0
    9.4525   -4.3646    1.8381 H   0  0  0  0  0  0  0  0  0  0  0  0
   10.2805   -3.2539    0.6762 H   0  0  0  0  0  0  0  0  0  0  0  0
    8.3409    0.0121    1.8131 H   0  0  0  0  0  0  0  0  0  0  0  0
    7.9874    0.9969   -0.1495 H   0  0  0  0  0  0  0  0  0  0  0  0
    6.5653    0.2558   -1.8061 H   0  0  0  0  0  0  0  0  0  0  0  0
    5.9684   -0.5579   -0.3147 H   0  0  0  0  0  0  0  0  0  0  0  0
    6.9043   -1.4788   -1.5663 H   0  0  0  0  0  0  0  0  0  0  0  0
   11.0501    0.4720   -2.1428 H   0  0  0  0  0  0  0  0  0  0  0  0
    8.8085    2.3408   -1.6954 H   0  0  0  0  0  0  0  0  0  0  0  0
   10.4255    4.0591   -2.4781 H   0  0  0  0  0  0  0  0  0  0  0  0
   10.4456    2.6155   -3.5460 H   0  0  0  0  0  0  0  0  0  0  0  0
   11.7766    2.8666   -2.3438 H   0  0  0  0  0  0  0  0  0  0  0  0
   10.1065    4.1406    1.4262 H   0  0  0  0  0  0  0  0  0  0  0  0
    8.5018    4.4418   -1.1582 H   0  0  0  0  0  0  0  0  0  0  0  0
    8.9249    6.8161   -1.0316 H   0  0  0  0  0  0  0  0  0  0  0  0
    9.7304    6.6628    0.5867 H   0  0  0  0  0  0  0  0  0  0  0  0
   10.5009    5.9940   -0.8919 H   0  0  0  0  0  0  0  0  0  0  0  0
    7.2026    7.0254    0.4421 H   0  0  0  0  0  0  0  0  0  0  0  0
    5.5379    7.3953    1.9610 H   0  0  0  0  0  0  0  0  0  0  0  0
    5.6068    6.2852    4.1275 H   0  0  0  0  0  0  0  0  0  0  0  0
    6.6855    4.9842    3.4913 H   0  0  0  0  0  0  0  0  0  0  0  0
    7.2802    6.6816    3.5683 H   0  0  0  0  0  0  0  0  0  0  0  0
    3.3543    7.0000    0.8293 H   0  0  0  0  0  0  0  0  0  0  0  0
    3.6940    4.2382   -0.4282 H   0  0  0  0  0  0  0  0  0  0  0  0
    3.5908    7.5470   -2.8380 H   0  0  0  0  0  0  0  0  0  0  0  0
    4.2298    7.5825   -1.1643 H   0  0  0  0  0  0  0  0  0  0  0  0
    1.3582    3.8077   -0.4497 H   0  0  0  0  0  0  0  0  0  0  0  0
    1.7245    4.3549    1.2014 H   0  0  0  0  0  0  0  0  0  0  0  0
   -0.0219    4.9752   -2.0849 H   0  0  0  0  0  0  0  0  0  0  0  0
   -1.3494    6.0559   -1.5772 H   0  0  0  0  0  0  0  0  0  0  0  0
  1  2  1  0
  2  3  2  0
  2  4  1  0
  4  5  1  0
  5  6  1  0
  6  7  1  0
  7  8  1  0
  8  9  1  0
  9 10  1  0
 10 11  2  0
 11 12  1  0
 12 13  2  0
 13 14  1  0
 13 15  1  0
 15 16  1  0
 16 17  1  0
 17 18  1  0
 18 19  1  0
 19 20  1  0
 20 21  2  0
 20 22  1  0
 22 23  1  0
 22 24  1  0
 24 25  1  0
 25 26  2  0
 25 27  1  0
 27 28  1  0
 27 29  1  0
 29 30  1  0
 30 31  2  0
 30 32  1  0
 32 33  1  0
 32 34  1  0
 34 35  1  0
 35 36  2  0
 35 37  1  0
 37 38  1  0
 37 39  1  0
 39 40  1  0
 40 41  2  0
 40 42  1  0
 42 43  1  0
 42 44  1  0
 44 45  1  0
 45 46  2  0
 18 47  1  0
 47 48  2  0
 47 49  1  0
 49 50  1  0
 50 51  1  0
 50 52  1  0
 52 53  2  0
 52 54  1  0
 54 55  1  0
 55 56  1  0
 55 57  1  0
 57 58  2  0
 57 59  1  0
 59 60  1  0
 60 61  1  0
 60 62  1  0
 62 63  2  0
 62 64  1  0
 64 65  1  0
 65 66  1  0
 65 67  1  0
 67 68  2  0
 67 69  1  0
 69 70  1  0
 70 71  1  0
 70 72  1  0
 72 73  2  0
 72 74  1  0
 74 75  1  0
 75 76  1  0
 75 77  1  0
 77 78  2  0
 77 79  1  0
 79 80  1  0
 80 81  1  0
 80 82  1  0
 82 83  2  0
 82 84  1  0
 84 85  1  0
 85 86  1  0
 85 87  1  0
 87 88  2  0
 87 89  1  0
 89 90  1  0
 90 91  1  0
 91 92  1  0
 91 93  2  0
 90 94  1  0
 94 95  1  0
 95 96  1  0
 45  5  1  0
 14  9  2  0
 96 11  1  0
  1 97  1  0
  1 98  1  0
  1 99  1  0
  4100  1  0
  5101  1  6
  6102  1  0
  6103  1  0
  8104  1  0
  8105  1  0
 10106  1  0
 12107  1  0
 14108  1  0
 15109  1  0
 15110  1  0
 17111  1  0
 17112  1  0
 18113  1  6
 19114  1  0
 22115  1  6
 23116  1  0
 23117  1  0
 23118  1  0
 24119  1  0
 27120  1  6
 28121  1  0
 28122  1  0
 28123  1  0
 29124  1  0
 32125  1  6
 33126  1  0
 33127  1  0
 33128  1  0
 34129  1  0
 37130  1  1
 38131  1  0
 38132  1  0
 38133  1  0
 39134  1  0
 42135  1  1
 43136  1  0
 43137  1  0
 43138  1  0
 44139  1  0
 49140  1  0
 50141  1  1
 51142  1  0
 51143  1  0
 51144  1  0
 54145  1  0
 55146  1  1
 56147  1  0
 56148  1  0
 56149  1  0
 59150  1  0
 60151  1  6
 61152  1  0
 61153  1  0
 61154  1  0
 64155  1  0
 65156  1  6
 66157  1  0
 66158  1  0
 66159  1  0
 69160  1  0
 70161  1  1
 71162  1  0
 71163  1  0
 71164  1  0
 74165  1  0
 75166  1  6
 76167  1  0
 76168  1  0
 76169  1  0
 79170  1  0
 80171  1  6
 81172  1  0
 81173  1  0
 81174  1  0
 84175  1  0
 85176  1  1
 86177  1  0
 86178  1  0
 86179  1  0
 89180  1  0
 90181  1  6
 92182  1  0
 92183  1  0
 94184  1  0
 94185  1  0
 96186  1  0
 96187  1  0
M  END
