
     RDKit          3D

 97 99  0  0  0  0  0  0  0  0999 V2000
   -7.5454    2.1872   -2.1910 C   0  0  0  0  0  0  0  0  0  0  0  0
   -6.5219    1.1219   -1.9675 C   0  0  0  0  0  0  0  0  0  0  0  0
   -6.0796    0.4834   -2.9569 O   0  0  0  0  0  0  0  0  0  0  0  0
   -6.1149    0.7813   -0.6346 N   0  0  0  0  0  0  0  0  0  0  0  0
   -4.7246    0.5749   -0.1992 C   0  0  2  0  0  0  0  0  0  0  0  0
   -4.1099    1.9045    0.2645 C   0  0  0  0  0  0  0  0  0  0  0  0
   -4.7854    2.3811    1.8917 S   0  0  0  0  0  0  0  0  0  0  0  0
   -3.7602    3.8845    2.1014 C   0  0  0  0  0  0  0  0  0  0  0  0
   -2.2857    3.5828    2.2353 C   0  0  0  0  0  0  0  0  0  0  0  0
   -1.3444    4.3566    1.5381 C   0  0  0  0  0  0  0  0  0  0  0  0
    0.0337    4.1388    1.6927 C   0  0  0  0  0  0  0  0  0  0  0  0
    0.4650    3.0977    2.5339 C   0  0  0  0  0  0  0  0  0  0  0  0
   -0.4643    2.2602    3.1735 C   0  0  0  0  0  0  0  0  0  0  0  0
   -1.8324    2.5604    3.0808 C   0  0  0  0  0  0  0  0  0  0  0  0
    0.0338    1.0848    3.9769 C   0  0  0  0  0  0  0  0  0  0  0  0
   -0.9892   -0.4224    3.7788 S   0  0  0  0  0  0  0  0  0  0  0  0
   -0.8285   -0.5920    1.9524 C   0  0  0  0  0  0  0  0  0  0  0  0
   -1.5734   -1.8241    1.4058 C   0  0  2  0  0  0  0  0  0  0  0  0
   -2.9921   -1.7981    1.7827 N   0  0  0  0  0  0  0  0  0  0  0  0
   -4.0497   -2.4046    1.0234 C   0  0  0  0  0  0  0  0  0  0  0  0
   -5.0637   -2.8184    1.6498 O   0  0  0  0  0  0  0  0  0  0  0  0
   -3.9997   -2.5643   -0.4865 C   0  0  1  0  0  0  0  0  0  0  0  0
   -5.3784   -2.8465   -1.0917 C   0  0  0  0  0  0  0  0  0  0  0  0
   -3.3765   -1.4248   -1.1825 N   0  0  0  0  0  0  0  0  0  0  0  0
   -3.8469   -0.0658   -1.2605 C   0  0  0  0  0  0  0  0  0  0  0  0
   -3.4342    0.6562   -2.2132 O   0  0  0  0  0  0  0  0  0  0  0  0
   -0.9112   -3.1026    1.8663 C   0  0  0  0  0  0  0  0  0  0  0  0
   -1.4145   -3.7485    2.8234 O   0  0  0  0  0  0  0  0  0  0  0  0
    0.3299   -3.5581    1.2968 N   0  0  0  0  0  0  0  0  0  0  0  0
    0.6609   -3.4940   -0.1301 C   0  0  2  0  0  0  0  0  0  0  0  0
    0.2086   -4.7844   -0.8171 C   0  0  0  0  0  0  0  0  0  0  0  0
    2.1301   -3.1823   -0.2955 C   0  0  0  0  0  0  0  0  0  0  0  0
    2.5236   -2.0354    0.0475 O   0  0  0  0  0  0  0  0  0  0  0  0
    3.0783   -4.1337   -0.8219 N   0  0  0  0  0  0  0  0  0  0  0  0
    4.3541   -3.7047   -1.4083 C   0  0  2  0  0  0  0  0  0  0  0  0
    5.0968   -4.8933   -2.0348 C   0  0  0  0  0  0  0  0  0  0  0  0
    5.2185   -3.0539   -0.3502 C   0  0  0  0  0  0  0  0  0  0  0  0
    5.6317   -3.7541    0.6124 O   0  0  0  0  0  0  0  0  0  0  0  0
    5.5257   -1.6447   -0.3523 N   0  0  0  0  0  0  0  0  0  0  0  0
    5.2463   -0.7185   -1.4555 C   0  0  2  0  0  0  0  0  0  0  0  0
    6.2556   -0.9239   -2.5889 C   0  0  0  0  0  0  0  0  0  0  0  0
    5.3070    0.7071   -0.9665 C   0  0  0  0  0  0  0  0  0  0  0  0
    6.3793    1.1549   -0.4738 O   0  0  0  0  0  0  0  0  0  0  0  0
    4.1569    1.5547   -1.0616 N   0  0  0  0  0  0  0  0  0  0  0  0
    4.1468    2.9033   -0.4970 C   0  0  1  0  0  0  0  0  0  0  0  0
    4.6680    3.8721   -1.5217 C   0  0  0  0  0  0  0  0  0  0  0  0
    5.8736    4.6049   -1.2924 N   0  0  0  0  0  0  0  0  0  0  0  0
    4.0459    4.0383   -2.6099 O   0  0  0  0  0  0  0  0  0  0  0  0
    2.7265    3.2791   -0.0501 C   0  0  0  0  0  0  0  0  0  0  0  0
    2.7644    4.6968    1.1104 S   0  0  0  0  0  0  0  0  0  0  0  0
    0.9795    5.1032    1.0056 C   0  0  0  0  0  0  0  0  0  0  0  0
   -7.1195    2.9694   -2.8548 H   0  0  0  0  0  0  0  0  0  0  0  0
   -7.8482    2.6640   -1.2307 H   0  0  0  0  0  0  0  0  0  0  0  0
   -8.4431    1.7403   -2.6703 H   0  0  0  0  0  0  0  0  0  0  0  0
   -6.8152    0.9612    0.1276 H   0  0  0  0  0  0  0  0  0  0  0  0
   -4.7597   -0.0783    0.6834 H   0  0  0  0  0  0  0  0  0  0  0  0
   -4.3241    2.6999   -0.4786 H   0  0  0  0  0  0  0  0  0  0  0  0
   -3.0124    1.7886    0.3597 H   0  0  0  0  0  0  0  0  0  0  0  0
   -4.0988    4.4113    3.0153 H   0  0  0  0  0  0  0  0  0  0  0  0
   -3.9548    4.5664    1.2429 H   0  0  0  0  0  0  0  0  0  0  0  0
   -1.6820    5.1629    0.8998 H   0  0  0  0  0  0  0  0  0  0  0  0
    1.5172    2.9218    2.6985 H   0  0  0  0  0  0  0  0  0  0  0  0
   -2.5478    1.9703    3.6303 H   0  0  0  0  0  0  0  0  0  0  0  0
    0.0417    1.3621    5.0508 H   0  0  0  0  0  0  0  0  0  0  0  0
    1.0768    0.8246    3.6840 H   0  0  0  0  0  0  0  0  0  0  0  0
    0.2484   -0.6521    1.6818 H   0  0  0  0  0  0  0  0  0  0  0  0
   -1.2484    0.3080    1.4584 H   0  0  0  0  0  0  0  0  0  0  0  0
   -1.5068   -1.7638    0.3149 H   0  0  0  0  0  0  0  0  0  0  0  0
   -3.2295   -1.5710    2.7751 H   0  0  0  0  0  0  0  0  0  0  0  0
   -3.3788   -3.4666   -0.6770 H   0  0  0  0  0  0  0  0  0  0  0  0
   -5.7857   -3.7985   -0.6871 H   0  0  0  0  0  0  0  0  0  0  0  0
   -6.0904   -2.0269   -0.8627 H   0  0  0  0  0  0  0  0  0  0  0  0
   -5.2941   -2.9536   -2.1927 H   0  0  0  0  0  0  0  0  0  0  0  0
   -2.5886   -1.6728   -1.8202 H   0  0  0  0  0  0  0  0  0  0  0  0
    0.8905   -4.2262    1.8758 H   0  0  0  0  0  0  0  0  0  0  0  0
    0.1299   -2.6628   -0.6334 H   0  0  0  0  0  0  0  0  0  0  0  0
   -0.8989   -4.8596   -0.7730 H   0  0  0  0  0  0  0  0  0  0  0  0
    0.6393   -5.6704   -0.3100 H   0  0  0  0  0  0  0  0  0  0  0  0
    0.5118   -4.7764   -1.8861 H   0  0  0  0  0  0  0  0  0  0  0  0
    2.7835   -5.1238   -0.9339 H   0  0  0  0  0  0  0  0  0  0  0  0
    4.1272   -3.0092   -2.2449 H   0  0  0  0  0  0  0  0  0  0  0  0
    4.4663   -5.3503   -2.8299 H   0  0  0  0  0  0  0  0  0  0  0  0
    5.3200   -5.6657   -1.2609 H   0  0  0  0  0  0  0  0  0  0  0  0
    6.0532   -4.5460   -2.4876 H   0  0  0  0  0  0  0  0  0  0  0  0
    5.9965   -1.2620    0.5024 H   0  0  0  0  0  0  0  0  0  0  0  0
    4.2249   -0.8980   -1.8425 H   0  0  0  0  0  0  0  0  0  0  0  0
    6.2199   -1.9696   -2.9535 H   0  0  0  0  0  0  0  0  0  0  0  0
    6.0128   -0.2454   -3.4317 H   0  0  0  0  0  0  0  0  0  0  0  0
    7.2847   -0.7085   -2.2355 H   0  0  0  0  0  0  0  0  0  0  0  0
    3.3142    1.2109   -1.5802 H   0  0  0  0  0  0  0  0  0  0  0  0
    4.8010    2.9234    0.4063 H   0  0  0  0  0  0  0  0  0  0  0  0
    6.1865    5.3217   -1.9834 H   0  0  0  0  0  0  0  0  0  0  0  0
    6.4551    4.4411   -0.4394 H   0  0  0  0  0  0  0  0  0  0  0  0
    2.0968    3.5101   -0.9364 H   0  0  0  0  0  0  0  0  0  0  0  0
    2.2720    2.4134    0.4733 H   0  0  0  0  0  0  0  0  0  0  0  0
    0.8509    6.0971    1.4857 H   0  0  0  0  0  0  0  0  0  0  0  0
    0.6915    5.2110   -0.0628 H   0  0  0  0  0  0  0  0  0  0  0  0
  1  2  1  0
  2  3  2  0
  2  4  1  0
  4  5  1  0
  5  6  1  0
  6  7  1  0
  7  8  1  0
  8  9  1  0
  9 10  1  0
 10 11  2  0
 11 12  1  0
 12 13  2  0
 13 14  1  0
 13 15  1  0
 15 16  1  0
 16 17  1  0
 17 18  1  0
 18 19  1  0
 19 20  1  0
 20 21  2  0
 20 22  1  0
 22 23  1  0
 22 24  1  0
 24 25  1  0
 25 26  2  0
 18 27  1  0
 27 28  2  0
 27 29  1  0
 29 30  1  0
 30 31  1  0
 30 32  1  0
 32 33  2  0
 32 34  1  0
 34 35  1  0
 35 36  1  0
 35 37  1  0
 37 38  2  0
 37 39  1  0
 39 40  1  0
 40 41  1  0
 40 42  1  0
 42 43  2  0
 42 44  1  0
 44 45  1  0
 45 46  1  0
 46 47  1  0
 46 48  2  0
 45 49  1  0
 49 50  1  0
 50 51  1  0
 25  5  1  0
 14  9  2  0
 51 11  1  0
  1 52  1  0
  1 53  1  0
  1 54  1  0
  4 55  1  0
  5 56  1  1
  6 57  1  0
  6 58  1  0
  8 59  1  0
  8 60  1  0
 10 61  1  0
 12 62  1  0
 14 63  1  0
 15 64  1  0
 15 65  1  0
 17 66  1  0
 17 67  1  0
 18 68  1  6
 19 69  1  0
 22 70  1  1
 23 71  1  0
 23 72  1  0
 23 73  1  0
 24 74  1  0
 29 75  1  0
 30 76  1  6
 31 77  1  0
 31 78  1  0
 31 79  1  0
 34 80  1  0
 35 81  1  6
 36 82  1  0
 36 83  1  0
 36 84  1  0
 39 85  1  0
 40 86  1  6
 41 87  1  0
 41 88  1  0
 41 89  1  0
 44 90  1  0
 45 91  1  1
 47 92  1  0
 47 93  1  0
 49 94  1  0
 49 95  1  0
 51 96  1  0
 51 97  1  0
M  END
