
     RDKit          3D

147149  0  0  0  0  0  0  0  0999 V2000
    4.2512    7.8339    0.1768 C   0  0  0  0  0  0  0  0  0  0  0  0
    3.9707    6.6688   -0.7212 C   0  0  0  0  0  0  0  0  0  0  0  0
    4.2706    6.7544   -1.9439 O   0  0  0  0  0  0  0  0  0  0  0  0
    3.3826    5.4508   -0.2311 N   0  0  0  0  0  0  0  0  0  0  0  0
    2.9877    5.2166    1.1640 C   0  0  1  0  0  0  0  0  0  0  0  0
    1.5658    4.6421    1.2334 C   0  0  0  0  0  0  0  0  0  0  0  0
    0.3388    5.8830    0.6632 S   0  0  0  0  0  0  0  0  0  0  0  0
    0.1349    5.2503   -1.0416 C   0  0  0  0  0  0  0  0  0  0  0  0
   -0.9446    4.2081   -1.0870 C   0  0  0  0  0  0  0  0  0  0  0  0
   -2.2909    4.5865   -1.0445 C   0  0  0  0  0  0  0  0  0  0  0  0
   -3.3037    3.6193   -1.1251 C   0  0  0  0  0  0  0  0  0  0  0  0
   -2.9583    2.2555   -1.1929 C   0  0  0  0  0  0  0  0  0  0  0  0
   -1.6084    1.8663   -1.2368 C   0  0  0  0  0  0  0  0  0  0  0  0
   -0.6114    2.8494   -1.1951 C   0  0  0  0  0  0  0  0  0  0  0  0
   -1.2175    0.4186   -1.3943 C   0  0  0  0  0  0  0  0  0  0  0  0
   -0.1897   -0.1454    0.0112 S   0  0  0  0  0  0  0  0  0  0  0  0
   -1.5159   -0.9687    0.9633 C   0  0  0  0  0  0  0  0  0  0  0  0
   -1.7732   -2.4007    0.4582 C   0  0  1  0  0  0  0  0  0  0  0  0
   -0.5917   -3.2434    0.6047 N   0  0  0  0  0  0  0  0  0  0  0  0
   -0.3760   -4.3214   -0.3060 C   0  0  0  0  0  0  0  0  0  0  0  0
   -0.1117   -4.0583   -1.5084 O   0  0  0  0  0  0  0  0  0  0  0  0
   -0.5953   -5.7406    0.1497 C   0  0  1  0  0  0  0  0  0  0  0  0
   -0.9420   -6.6854   -1.0062 C   0  0  0  0  0  0  0  0  0  0  0  0
    0.5434   -6.2374    0.9242 N   0  0  0  0  0  0  0  0  0  0  0  0
    1.7469   -6.7482    0.3349 C   0  0  0  0  0  0  0  0  0  0  0  0
    1.9041   -7.9981    0.2560 O   0  0  0  0  0  0  0  0  0  0  0  0
    2.8576   -5.8389   -0.1232 C   0  0  1  0  0  0  0  0  0  0  0  0
    2.8789   -5.7492   -1.6519 C   0  0  0  0  0  0  0  0  0  0  0  0
    2.7465   -4.5148    0.4999 N   0  0  0  0  0  0  0  0  0  0  0  0
    3.6733   -3.4696    0.1942 C   0  0  0  0  0  0  0  0  0  0  0  0
    3.3643   -2.6079   -0.6703 O   0  0  0  0  0  0  0  0  0  0  0  0
    5.0335   -3.4102    0.8416 C   0  0  1  0  0  0  0  0  0  0  0  0
    5.0771   -4.1532    2.1847 C   0  0  0  0  0  0  0  0  0  0  0  0
    6.0242   -3.9841   -0.0739 N   0  0  0  0  0  0  0  0  0  0  0  0
    7.1462   -3.3009   -0.6641 C   0  0  0  0  0  0  0  0  0  0  0  0
    7.8809   -3.9469   -1.4595 O   0  0  0  0  0  0  0  0  0  0  0  0
    7.5439   -1.8887   -0.2715 C   0  0  1  0  0  0  0  0  0  0  0  0
    8.3674   -1.9493    1.0196 C   0  0  0  0  0  0  0  0  0  0  0  0
    8.3157   -1.2239   -1.3396 N   0  0  0  0  0  0  0  0  0  0  0  0
    8.5242    0.1971   -1.4591 C   0  0  0  0  0  0  0  0  0  0  0  0
    9.1422    0.6230   -2.4706 O   0  0  0  0  0  0  0  0  0  0  0  0
    8.1049    1.1957   -0.3930 C   0  0  1  0  0  0  0  0  0  0  0  0
    9.3489    1.6543    0.3757 C   0  0  0  0  0  0  0  0  0  0  0  0
    7.4347    2.3532   -1.0078 N   0  0  0  0  0  0  0  0  0  0  0  0
    6.7554    3.4014   -0.2894 C   0  0  0  0  0  0  0  0  0  0  0  0
    6.5604    4.5009   -0.8758 O   0  0  0  0  0  0  0  0  0  0  0  0
    6.2080    3.2294    1.1128 C   0  0  1  0  0  0  0  0  0  0  0  0
    6.8722    4.2487    2.0540 C   0  0  0  0  0  0  0  0  0  0  0  0
    4.7417    3.3597    1.0644 N   0  0  0  0  0  0  0  0  0  0  0  0
    3.9730    4.2953    1.8315 C   0  0  0  0  0  0  0  0  0  0  0  0
    4.0933    4.3242    3.0852 O   0  0  0  0  0  0  0  0  0  0  0  0
   -2.9085   -3.0280    1.2271 C   0  0  0  0  0  0  0  0  0  0  0  0
   -2.7944   -3.1366    2.4813 O   0  0  0  0  0  0  0  0  0  0  0  0
   -4.0966   -3.5492    0.5998 N   0  0  0  0  0  0  0  0  0  0  0  0
   -4.3779   -3.6006   -0.8444 C   0  0  2  0  0  0  0  0  0  0  0  0
   -4.4338   -2.2035   -1.4962 C   0  0  0  0  0  0  0  0  0  0  0  0
   -5.6739   -4.3464   -1.1022 C   0  0  0  0  0  0  0  0  0  0  0  0
   -5.6228   -5.4187   -1.7663 O   0  0  0  0  0  0  0  0  0  0  0  0
   -6.9597   -3.8768   -0.6436 N   0  0  0  0  0  0  0  0  0  0  0  0
   -7.1906   -2.7329    0.2512 C   0  0  2  0  0  0  0  0  0  0  0  0
   -8.1605   -3.1352    1.3640 C   0  0  0  0  0  0  0  0  0  0  0  0
   -7.7245   -1.5648   -0.5290 C   0  0  0  0  0  0  0  0  0  0  0  0
   -8.7950   -1.6847   -1.1803 O   0  0  0  0  0  0  0  0  0  0  0  0
   -6.9723   -0.3493   -0.6423 N   0  0  0  0  0  0  0  0  0  0  0  0
   -6.7589    0.6179    0.4431 C   0  0  2  0  0  0  0  0  0  0  0  0
   -5.9434    0.0498    1.6115 C   0  0  0  0  0  0  0  0  0  0  0  0
   -8.0727    1.1885    0.9207 C   0  0  0  0  0  0  0  0  0  0  0  0
   -8.8527    0.4543    1.5815 O   0  0  0  0  0  0  0  0  0  0  0  0
   -8.4469    2.5542    0.6811 N   0  0  0  0  0  0  0  0  0  0  0  0
   -8.0022    3.3531   -0.4683 C   0  0  1  0  0  0  0  0  0  0  0  0
   -9.2040    3.8474   -1.2384 C   0  0  0  0  0  0  0  0  0  0  0  0
  -10.2067    4.6486   -0.6091 N   0  0  0  0  0  0  0  0  0  0  0  0
   -9.2957    3.6015   -2.4647 O   0  0  0  0  0  0  0  0  0  0  0  0
   -7.1455    4.5443    0.0008 C   0  0  0  0  0  0  0  0  0  0  0  0
   -5.4660    4.0236    0.5148 S   0  0  0  0  0  0  0  0  0  0  0  0
   -4.7429    4.0472   -1.1652 C   0  0  0  0  0  0  0  0  0  0  0  0
    4.7763    8.6350   -0.3826 H   0  0  0  0  0  0  0  0  0  0  0  0
    3.2955    8.2394    0.5706 H   0  0  0  0  0  0  0  0  0  0  0  0
    4.8987    7.5094    1.0172 H   0  0  0  0  0  0  0  0  0  0  0  0
    3.3068    4.6542   -0.9026 H   0  0  0  0  0  0  0  0  0  0  0  0
    2.9854    6.1728    1.7329 H   0  0  0  0  0  0  0  0  0  0  0  0
    1.4940    3.6981    0.6549 H   0  0  0  0  0  0  0  0  0  0  0  0
    1.3158    4.4089    2.2929 H   0  0  0  0  0  0  0  0  0  0  0  0
    1.0895    4.8405   -1.4262 H   0  0  0  0  0  0  0  0  0  0  0  0
   -0.1357    6.0948   -1.7110 H   0  0  0  0  0  0  0  0  0  0  0  0
   -2.5502    5.6389   -0.9954 H   0  0  0  0  0  0  0  0  0  0  0  0
   -3.7416    1.5068   -1.2422 H   0  0  0  0  0  0  0  0  0  0  0  0
    0.4314    2.5515   -1.2513 H   0  0  0  0  0  0  0  0  0  0  0  0
   -0.6019    0.3278   -2.3120 H   0  0  0  0  0  0  0  0  0  0  0  0
   -2.1065   -0.2245   -1.5418 H   0  0  0  0  0  0  0  0  0  0  0  0
   -1.2032   -0.9970    2.0284 H   0  0  0  0  0  0  0  0  0  0  0  0
   -2.4475   -0.3654    0.9024 H   0  0  0  0  0  0  0  0  0  0  0  0
   -2.0093   -2.3381   -0.6145 H   0  0  0  0  0  0  0  0  0  0  0  0
    0.0619   -3.1166    1.4204 H   0  0  0  0  0  0  0  0  0  0  0  0
   -1.4841   -5.7259    0.8219 H   0  0  0  0  0  0  0  0  0  0  0  0
   -1.1309   -7.7059   -0.6135 H   0  0  0  0  0  0  0  0  0  0  0  0
   -1.8601   -6.3334   -1.5242 H   0  0  0  0  0  0  0  0  0  0  0  0
   -0.1126   -6.7381   -1.7450 H   0  0  0  0  0  0  0  0  0  0  0  0
    0.3674   -6.4973    1.9232 H   0  0  0  0  0  0  0  0  0  0  0  0
    3.8197   -6.2953    0.1996 H   0  0  0  0  0  0  0  0  0  0  0  0
    3.7733   -5.1889   -1.9948 H   0  0  0  0  0  0  0  0  0  0  0  0
    2.9301   -6.7686   -2.0948 H   0  0  0  0  0  0  0  0  0  0  0  0
    1.9736   -5.2440   -2.0401 H   0  0  0  0  0  0  0  0  0  0  0  0
    2.2940   -4.4445    1.4384 H   0  0  0  0  0  0  0  0  0  0  0  0
    5.2459   -2.3509    1.0685 H   0  0  0  0  0  0  0  0  0  0  0  0
    6.0823   -4.0502    2.6404 H   0  0  0  0  0  0  0  0  0  0  0  0
    4.8599   -5.2311    2.0607 H   0  0  0  0  0  0  0  0  0  0  0  0
    4.3361   -3.7136    2.8834 H   0  0  0  0  0  0  0  0  0  0  0  0
    5.8997   -4.9903   -0.3363 H   0  0  0  0  0  0  0  0  0  0  0  0
    6.6213   -1.2982   -0.1168 H   0  0  0  0  0  0  0  0  0  0  0  0
    8.5085   -0.9400    1.4568 H   0  0  0  0  0  0  0  0  0  0  0  0
    7.8500   -2.5685    1.7853 H   0  0  0  0  0  0  0  0  0  0  0  0
    9.3624   -2.3969    0.8167 H   0  0  0  0  0  0  0  0  0  0  0  0
    8.6961   -1.8013   -2.1251 H   0  0  0  0  0  0  0  0  0  0  0  0
    7.4021    0.7114    0.3005 H   0  0  0  0  0  0  0  0  0  0  0  0
    9.0536    2.2347    1.2750 H   0  0  0  0  0  0  0  0  0  0  0  0
    9.9913    2.2844   -0.2729 H   0  0  0  0  0  0  0  0  0  0  0  0
    9.9439    0.7802    0.7159 H   0  0  0  0  0  0  0  0  0  0  0  0
    7.5575    2.5169   -2.0368 H   0  0  0  0  0  0  0  0  0  0  0  0
    6.4393    2.2218    1.5065 H   0  0  0  0  0  0  0  0  0  0  0  0
    6.6247    4.0184    3.1086 H   0  0  0  0  0  0  0  0  0  0  0  0
    6.5383    5.2822    1.8175 H   0  0  0  0  0  0  0  0  0  0  0  0
    7.9772    4.2129    1.9532 H   0  0  0  0  0  0  0  0  0  0  0  0
    4.2394    2.8465    0.3074 H   0  0  0  0  0  0  0  0  0  0  0  0
   -4.7521   -4.0536    1.2414 H   0  0  0  0  0  0  0  0  0  0  0  0
   -3.5518   -4.1709   -1.3267 H   0  0  0  0  0  0  0  0  0  0  0  0
   -4.3759   -1.3976   -0.7422 H   0  0  0  0  0  0  0  0  0  0  0  0
   -3.5889   -2.0804   -2.2081 H   0  0  0  0  0  0  0  0  0  0  0  0
   -5.3517   -2.0572   -2.1020 H   0  0  0  0  0  0  0  0  0  0  0  0
   -7.8003   -4.3842   -1.0015 H   0  0  0  0  0  0  0  0  0  0  0  0
   -6.2512   -2.4336    0.7316 H   0  0  0  0  0  0  0  0  0  0  0  0
   -7.7249   -3.9763    1.9496 H   0  0  0  0  0  0  0  0  0  0  0  0
   -9.1336   -3.4633    0.9399 H   0  0  0  0  0  0  0  0  0  0  0  0
   -8.3367   -2.2839    2.0546 H   0  0  0  0  0  0  0  0  0  0  0  0
   -6.8282    0.0114   -1.6125 H   0  0  0  0  0  0  0  0  0  0  0  0
   -6.1271    1.4254    0.0313 H   0  0  0  0  0  0  0  0  0  0  0  0
   -5.6632    0.8749    2.3011 H   0  0  0  0  0  0  0  0  0  0  0  0
   -6.5215   -0.6940    2.1944 H   0  0  0  0  0  0  0  0  0  0  0  0
   -5.0077   -0.4116    1.2440 H   0  0  0  0  0  0  0  0  0  0  0  0
   -9.1311    2.9826    1.3463 H   0  0  0  0  0  0  0  0  0  0  0  0
   -7.4149    2.7309   -1.1699 H   0  0  0  0  0  0  0  0  0  0  0  0
  -11.0411    4.9663   -1.1498 H   0  0  0  0  0  0  0  0  0  0  0  0
  -10.1136    4.9391    0.3886 H   0  0  0  0  0  0  0  0  0  0  0  0
   -7.6321    5.0444    0.8693 H   0  0  0  0  0  0  0  0  0  0  0  0
   -7.0644    5.3088   -0.8073 H   0  0  0  0  0  0  0  0  0  0  0  0
   -5.3115    3.3755   -1.8427 H   0  0  0  0  0  0  0  0  0  0  0  0
   -4.8222    5.0790   -1.5753 H   0  0  0  0  0  0  0  0  0  0  0  0
  1  2  1  0
  2  3  2  0
  2  4  1  0
  4  5  1  0
  5  6  1  0
  6  7  1  0
  7  8  1  0
  8  9  1  0
  9 10  2  0
 10 11  1  0
 11 12  2  0
 12 13  1  0
 13 14  2  0
 13 15  1  0
 15 16  1  0
 16 17  1  0
 17 18  1  0
 18 19  1  0
 19 20  1  0
 20 21  2  0
 20 22  1  0
 22 23  1  0
 22 24  1  0
 24 25  1  0
 25 26  2  0
 25 27  1  0
 27 28  1  0
 27 29  1  0
 29 30  1  0
 30 31  2  0
 30 32  1  0
 32 33  1  0
 32 34  1  0
 34 35  1  0
 35 36  2  0
 35 37  1  0
 37 38  1  0
 37 39  1  0
 39 40  1  0
 40 41  2  0
 40 42  1  0
 42 43  1  0
 42 44  1  0
 44 45  1  0
 45 46  2  0
 45 47  1  0
 47 48  1  0
 47 49  1  0
 49 50  1  0
 50 51  2  0
 18 52  1  0
 52 53  2  0
 52 54  1  0
 54 55  1  0
 55 56  1  0
 55 57  1  0
 57 58  2  0
 57 59  1  0
 59 60  1  0
 60 61  1  0
 60 62  1  0
 62 63  2  0
 62 64  1  0
 64 65  1  0
 65 66  1  0
 65 67  1  0
 67 68  2  0
 67 69  1  0
 69 70  1  0
 70 71  1  0
 71 72  1  0
 71 73  2  0
 70 74  1  0
 74 75  1  0
 75 76  1  0
 50  5  1  0
 14  9  1  0
 76 11  1  0
  1 77  1  0
  1 78  1  0
  1 79  1  0
  4 80  1  0
  5 81  1  1
  6 82  1  0
  6 83  1  0
  8 84  1  0
  8 85  1  0
 10 86  1  0
 12 87  1  0
 14 88  1  0
 15 89  1  0
 15 90  1  0
 17 91  1  0
 17 92  1  0
 18 93  1  6
 19 94  1  0
 22 95  1  1
 23 96  1  0
 23 97  1  0
 23 98  1  0
 24 99  1  0
 27100  1  1
 28101  1  0
 28102  1  0
 28103  1  0
 29104  1  0
 32105  1  1
 33106  1  0
 33107  1  0
 33108  1  0
 34109  1  0
 37110  1  1
 38111  1  0
 38112  1  0
 38113  1  0
 39114  1  0
 42115  1  1
 43116  1  0
 43117  1  0
 43118  1  0
 44119  1  0
 47120  1  1
 48121  1  0
 48122  1  0
 48123  1  0
 49124  1  0
 54125  1  0
 55126  1  6
 56127  1  0
 56128  1  0
 56129  1  0
 59130  1  0
 60131  1  1
 61132  1  0
 61133  1  0
 61134  1  0
 64135  1  0
 65136  1  6
 66137  1  0
 66138  1  0
 66139  1  0
 69140  1  0
 70141  1  6
 72142  1  0
 72143  1  0
 74144  1  0
 74145  1  0
 76146  1  0
 76147  1  0
M  END
