
     RDKit          3D

157159  0  0  0  0  0  0  0  0999 V2000
    3.6113    8.8893   -0.2165 C   0  0  0  0  0  0  0  0  0  0  0  0
    3.8657    7.4386    0.0428 C   0  0  0  0  0  0  0  0  0  0  0  0
    4.7700    7.1166    0.8608 O   0  0  0  0  0  0  0  0  0  0  0  0
    3.0726    6.4289   -0.6200 N   0  0  0  0  0  0  0  0  0  0  0  0
    3.1793    4.9707   -0.4230 C   0  0  2  0  0  0  0  0  0  0  0  0
    3.1465    4.5864    1.0707 C   0  0  0  0  0  0  0  0  0  0  0  0
    3.1496    2.7644    1.2976 S   0  0  0  0  0  0  0  0  0  0  0  0
    1.5483    2.6172    2.1624 C   0  0  0  0  0  0  0  0  0  0  0  0
    0.4220    2.5623    1.1714 C   0  0  0  0  0  0  0  0  0  0  0  0
    0.3181    1.4643    0.3044 C   0  0  0  0  0  0  0  0  0  0  0  0
   -0.7731    1.3464   -0.5731 C   0  0  0  0  0  0  0  0  0  0  0  0
   -1.7301    2.3716   -0.6106 C   0  0  0  0  0  0  0  0  0  0  0  0
   -1.6218    3.4917    0.2253 C   0  0  0  0  0  0  0  0  0  0  0  0
   -0.5432    3.5763    1.1262 C   0  0  0  0  0  0  0  0  0  0  0  0
   -2.5888    4.6437    0.0847 C   0  0  0  0  0  0  0  0  0  0  0  0
   -3.4566    5.0133    1.6569 S   0  0  0  0  0  0  0  0  0  0  0  0
   -4.9312    3.9607    1.3886 C   0  0  0  0  0  0  0  0  0  0  0  0
   -6.1424    4.7852    0.9125 C   0  0  1  0  0  0  0  0  0  0  0  0
   -5.8804    5.3754   -0.4556 C   0  0  0  0  0  0  0  0  0  0  0  0
   -5.7417    4.5398   -1.6047 N   0  0  0  0  0  0  0  0  0  0  0  0
   -5.7928    6.6294   -0.5869 O   0  0  0  0  0  0  0  0  0  0  0  0
   -7.3588    3.9515    0.9604 N   0  0  0  0  0  0  0  0  0  0  0  0
   -8.4321    3.9142   -0.0165 C   0  0  0  0  0  0  0  0  0  0  0  0
   -8.4904    4.7625   -0.9479 O   0  0  0  0  0  0  0  0  0  0  0  0
   -9.4299    2.7809    0.0152 C   0  0  1  0  0  0  0  0  0  0  0  0
  -10.7711    3.2016   -0.5946 C   0  0  0  0  0  0  0  0  0  0  0  0
   -8.8743    1.6445   -0.7293 N   0  0  0  0  0  0  0  0  0  0  0  0
   -9.3465    0.3103   -0.5056 C   0  0  0  0  0  0  0  0  0  0  0  0
  -10.2711   -0.1454   -1.2336 O   0  0  0  0  0  0  0  0  0  0  0  0
   -8.6416   -0.6007    0.4676 C   0  0  1  0  0  0  0  0  0  0  0  0
   -8.3783    0.0878    1.8091 C   0  0  0  0  0  0  0  0  0  0  0  0
   -9.4348   -1.8198    0.6904 N   0  0  0  0  0  0  0  0  0  0  0  0
   -9.1173   -3.1454    0.2209 C   0  0  0  0  0  0  0  0  0  0  0  0
  -10.0434   -3.9857    0.1232 O   0  0  0  0  0  0  0  0  0  0  0  0
   -7.7296   -3.5727   -0.2332 C   0  0  1  0  0  0  0  0  0  0  0  0
   -7.5165   -3.1571   -1.6995 C   0  0  0  0  0  0  0  0  0  0  0  0
   -6.6913   -3.0551    0.6650 N   0  0  0  0  0  0  0  0  0  0  0  0
   -5.3085   -2.9378    0.3095 C   0  0  0  0  0  0  0  0  0  0  0  0
   -4.7536   -1.8202    0.4318 O   0  0  0  0  0  0  0  0  0  0  0  0
   -4.4811   -4.1519   -0.0479 C   0  0  1  0  0  0  0  0  0  0  0  0
   -3.7722   -4.0095   -1.3988 C   0  0  0  0  0  0  0  0  0  0  0  0
   -3.5316   -4.4612    1.0288 N   0  0  0  0  0  0  0  0  0  0  0  0
   -2.5738   -3.5178    1.5393 C   0  0  0  0  0  0  0  0  0  0  0  0
   -2.7381   -3.0376    2.6968 O   0  0  0  0  0  0  0  0  0  0  0  0
   -1.3429   -3.1505    0.7533 C   0  0  1  0  0  0  0  0  0  0  0  0
   -1.3889   -1.6781    0.3164 C   0  0  0  0  0  0  0  0  0  0  0  0
   -0.1465   -1.3595   -0.9863 S   0  0  0  0  0  0  0  0  0  0  0  0
   -0.8785    0.2160   -1.5723 C   0  0  0  0  0  0  0  0  0  0  0  0
   -0.1362   -3.4047    1.5514 N   0  0  0  0  0  0  0  0  0  0  0  0
    0.3824   -4.7201    1.8094 C   0  0  0  0  0  0  0  0  0  0  0  0
    0.6322   -5.0455    3.0028 O   0  0  0  0  0  0  0  0  0  0  0  0
    0.6736   -5.7281    0.7202 C   0  0  1  0  0  0  0  0  0  0  0  0
   -0.5586   -6.5848    0.4123 C   0  0  0  0  0  0  0  0  0  0  0  0
    1.1725   -5.0871   -0.5006 N   0  0  0  0  0  0  0  0  0  0  0  0
    2.2924   -5.5657   -1.2596 C   0  0  0  0  0  0  0  0  0  0  0  0
    2.3099   -5.3660   -2.5087 O   0  0  0  0  0  0  0  0  0  0  0  0
    3.4540   -6.2776   -0.6179 C   0  0  1  0  0  0  0  0  0  0  0  0
    3.3232   -7.7943   -0.8077 C   0  0  0  0  0  0  0  0  0  0  0  0
    4.7173   -5.8071   -1.1947 N   0  0  0  0  0  0  0  0  0  0  0  0
    5.2445   -4.5329   -0.8203 C   0  0  0  0  0  0  0  0  0  0  0  0
    4.6713   -3.4807   -1.2142 O   0  0  0  0  0  0  0  0  0  0  0  0
    6.5207   -4.4239   -0.0338 C   0  0  1  0  0  0  0  0  0  0  0  0
    6.7924   -5.6715    0.8060 C   0  0  0  0  0  0  0  0  0  0  0  0
    7.6406   -4.1849   -0.9498 N   0  0  0  0  0  0  0  0  0  0  0  0
    8.3665   -2.9461   -1.0709 C   0  0  0  0  0  0  0  0  0  0  0  0
    9.4659   -2.9465   -1.6872 O   0  0  0  0  0  0  0  0  0  0  0  0
    7.8811   -1.6538   -0.4560 C   0  0  1  0  0  0  0  0  0  0  0  0
    8.4801   -1.4870    0.9471 C   0  0  0  0  0  0  0  0  0  0  0  0
    8.1894   -0.5220   -1.3455 N   0  0  0  0  0  0  0  0  0  0  0  0
    9.2570    0.4042   -1.1290 C   0  0  0  0  0  0  0  0  0  0  0  0
   10.3800    0.2041   -1.6696 O   0  0  0  0  0  0  0  0  0  0  0  0
    9.0215    1.6550   -0.3188 C   0  0  1  0  0  0  0  0  0  0  0  0
   10.1409    1.8625    0.7045 C   0  0  0  0  0  0  0  0  0  0  0  0
    8.9414    2.8101   -1.2121 N   0  0  0  0  0  0  0  0  0  0  0  0
    7.7517    3.5922   -1.4226 C   0  0  0  0  0  0  0  0  0  0  0  0
    7.5594    4.0907   -2.5697 O   0  0  0  0  0  0  0  0  0  0  0  0
    6.6969    3.7857   -0.3532 C   0  0  1  0  0  0  0  0  0  0  0  0
    7.3047    4.2583    0.9726 C   0  0  0  0  0  0  0  0  0  0  0  0
    5.7107    4.7753   -0.7869 N   0  0  0  0  0  0  0  0  0  0  0  0
    4.3777    4.3949   -1.1378 C   0  0  0  0  0  0  0  0  0  0  0  0
    4.1956    3.5264   -2.0348 O   0  0  0  0  0  0  0  0  0  0  0  0
    3.3352    9.3860    0.7320 H   0  0  0  0  0  0  0  0  0  0  0  0
    2.7808    9.0207   -0.9470 H   0  0  0  0  0  0  0  0  0  0  0  0
    4.5263    9.3597   -0.6302 H   0  0  0  0  0  0  0  0  0  0  0  0
    2.3038    6.7580   -1.2496 H   0  0  0  0  0  0  0  0  0  0  0  0
    2.2641    4.5145   -0.8754 H   0  0  0  0  0  0  0  0  0  0  0  0
    4.0461    4.9621    1.5987 H   0  0  0  0  0  0  0  0  0  0  0  0
    2.2594    5.0539    1.5450 H   0  0  0  0  0  0  0  0  0  0  0  0
    1.5549    1.6761    2.7480 H   0  0  0  0  0  0  0  0  0  0  0  0
    1.4292    3.4435    2.8913 H   0  0  0  0  0  0  0  0  0  0  0  0
    1.0896    0.7070    0.3263 H   0  0  0  0  0  0  0  0  0  0  0  0
   -2.5638    2.3026   -1.3060 H   0  0  0  0  0  0  0  0  0  0  0  0
   -0.4484    4.4468    1.7685 H   0  0  0  0  0  0  0  0  0  0  0  0
   -3.3107    4.4491   -0.7247 H   0  0  0  0  0  0  0  0  0  0  0  0
   -2.0116    5.5399   -0.2109 H   0  0  0  0  0  0  0  0  0  0  0  0
   -4.7226    3.1110    0.7096 H   0  0  0  0  0  0  0  0  0  0  0  0
   -5.1798    3.5225    2.3787 H   0  0  0  0  0  0  0  0  0  0  0  0
   -6.2882    5.6186    1.6371 H   0  0  0  0  0  0  0  0  0  0  0  0
   -5.5613    4.9600   -2.5415 H   0  0  0  0  0  0  0  0  0  0  0  0
   -5.8336    3.5006   -1.5237 H   0  0  0  0  0  0  0  0  0  0  0  0
   -7.5217    3.4210    1.8519 H   0  0  0  0  0  0  0  0  0  0  0  0
   -9.6110    2.4903    1.0700 H   0  0  0  0  0  0  0  0  0  0  0  0
  -11.1793    4.0820   -0.0555 H   0  0  0  0  0  0  0  0  0  0  0  0
  -11.5063    2.3738   -0.5093 H   0  0  0  0  0  0  0  0  0  0  0  0
  -10.6492    3.4597   -1.6681 H   0  0  0  0  0  0  0  0  0  0  0  0
   -8.4797    1.8413   -1.6783 H   0  0  0  0  0  0  0  0  0  0  0  0
   -7.6580   -0.8389    0.0246 H   0  0  0  0  0  0  0  0  0  0  0  0
   -9.3318    0.4112    2.2768 H   0  0  0  0  0  0  0  0  0  0  0  0
   -7.7205    0.9687    1.6720 H   0  0  0  0  0  0  0  0  0  0  0  0
   -7.8701   -0.6017    2.5072 H   0  0  0  0  0  0  0  0  0  0  0  0
  -10.3774   -1.6913    1.1208 H   0  0  0  0  0  0  0  0  0  0  0  0
   -7.6873   -4.6834   -0.1997 H   0  0  0  0  0  0  0  0  0  0  0  0
   -6.6867   -3.7507   -2.1295 H   0  0  0  0  0  0  0  0  0  0  0  0
   -8.4174   -3.3876   -2.3059 H   0  0  0  0  0  0  0  0  0  0  0  0
   -7.2742   -2.0843   -1.7981 H   0  0  0  0  0  0  0  0  0  0  0  0
   -6.9719   -2.6173    1.5703 H   0  0  0  0  0  0  0  0  0  0  0  0
   -5.1776   -5.0163   -0.1464 H   0  0  0  0  0  0  0  0  0  0  0  0
   -3.0817   -4.8640   -1.5534 H   0  0  0  0  0  0  0  0  0  0  0  0
   -3.1913   -3.0654   -1.4563 H   0  0  0  0  0  0  0  0  0  0  0  0
   -4.4969   -4.0122   -2.2359 H   0  0  0  0  0  0  0  0  0  0  0  0
   -3.7458   -5.2883    1.6313 H   0  0  0  0  0  0  0  0  0  0  0  0
   -1.3278   -3.7683   -0.1611 H   0  0  0  0  0  0  0  0  0  0  0  0
   -1.1906   -1.0041    1.1774 H   0  0  0  0  0  0  0  0  0  0  0  0
   -2.3870   -1.4275   -0.0831 H   0  0  0  0  0  0  0  0  0  0  0  0
   -1.9474    0.0300   -1.8172 H   0  0  0  0  0  0  0  0  0  0  0  0
   -0.3778    0.5172   -2.5211 H   0  0  0  0  0  0  0  0  0  0  0  0
    0.1085   -2.6818    2.2667 H   0  0  0  0  0  0  0  0  0  0  0  0
    1.4336   -6.4271    1.1217 H   0  0  0  0  0  0  0  0  0  0  0  0
   -0.9626   -7.0214    1.3506 H   0  0  0  0  0  0  0  0  0  0  0  0
   -1.3565   -5.9931   -0.0811 H   0  0  0  0  0  0  0  0  0  0  0  0
   -0.2675   -7.4169   -0.2637 H   0  0  0  0  0  0  0  0  0  0  0  0
    0.5789   -4.3731   -0.9726 H   0  0  0  0  0  0  0  0  0  0  0  0
    3.4870   -6.0660    0.4700 H   0  0  0  0  0  0  0  0  0  0  0  0
    2.3399   -8.1496   -0.4424 H   0  0  0  0  0  0  0  0  0  0  0  0
    4.1267   -8.3128   -0.2446 H   0  0  0  0  0  0  0  0  0  0  0  0
    3.4128   -8.0565   -1.8831 H   0  0  0  0  0  0  0  0  0  0  0  0
    5.0477   -6.2273   -2.0993 H   0  0  0  0  0  0  0  0  0  0  0  0
    6.4044   -3.5868    0.6803 H   0  0  0  0  0  0  0  0  0  0  0  0
    7.7109   -5.5251    1.4115 H   0  0  0  0  0  0  0  0  0  0  0  0
    5.9457   -5.8601    1.5012 H   0  0  0  0  0  0  0  0  0  0  0  0
    6.9341   -6.5634    0.1596 H   0  0  0  0  0  0  0  0  0  0  0  0
    7.9356   -4.9735   -1.5657 H   0  0  0  0  0  0  0  0  0  0  0  0
    6.7753   -1.6790   -0.3552 H   0  0  0  0  0  0  0  0  0  0  0  0
    8.0940   -0.5606    1.4274 H   0  0  0  0  0  0  0  0  0  0  0  0
    8.1943   -2.3442    1.5933 H   0  0  0  0  0  0  0  0  0  0  0  0
    9.5894   -1.4491    0.9025 H   0  0  0  0  0  0  0  0  0  0  0  0
    7.7676   -0.5387   -2.3016 H   0  0  0  0  0  0  0  0  0  0  0  0
    8.0692    1.5277    0.2346 H   0  0  0  0  0  0  0  0  0  0  0  0
   10.1278    1.0520    1.4624 H   0  0  0  0  0  0  0  0  0  0  0  0
   10.0070    2.8306    1.2342 H   0  0  0  0  0  0  0  0  0  0  0  0
   11.1372    1.8820    0.2102 H   0  0  0  0  0  0  0  0  0  0  0  0
    9.7471    2.9865   -1.8558 H   0  0  0  0  0  0  0  0  0  0  0  0
    6.1881    2.8140   -0.1852 H   0  0  0  0  0  0  0  0  0  0  0  0
    6.5132    4.6751    1.6327 H   0  0  0  0  0  0  0  0  0  0  0  0
    7.7658    3.4194    1.5203 H   0  0  0  0  0  0  0  0  0  0  0  0
    8.0665    5.0469    0.8013 H   0  0  0  0  0  0  0  0  0  0  0  0
    5.9839    5.7807   -0.8511 H   0  0  0  0  0  0  0  0  0  0  0  0
  1  2  1  0
  2  3  2  0
  2  4  1  0
  4  5  1  0
  5  6  1  0
  6  7  1  0
  7  8  1  0
  8  9  1  0
  9 10  2  0
 10 11  1  0
 11 12  2  0
 12 13  1  0
 13 14  2  0
 13 15  1  0
 15 16  1  0
 16 17  1  0
 17 18  1  0
 18 19  1  0
 19 20  1  0
 19 21  2  0
 18 22  1  0
 22 23  1  0
 23 24  2  0
 23 25  1  0
 25 26  1  0
 25 27  1  0
 27 28  1  0
 28 29  2  0
 28 30  1  0
 30 31  1  0
 30 32  1  0
 32 33  1  0
 33 34  2  0
 33 35  1  0
 35 36  1  0
 35 37  1  0
 37 38  1  0
 38 39  2  0
 38 40  1  0
 40 41  1  0
 40 42  1  0
 42 43  1  0
 43 44  2  0
 43 45  1  0
 45 46  1  0
 46 47  1  0
 47 48  1  0
 45 49  1  0
 49 50  1  0
 50 51  2  0
 50 52  1  0
 52 53  1  0
 52 54  1  0
 54 55  1  0
 55 56  2  0
 55 57  1  0
 57 58  1  0
 57 59  1  0
 59 60  1  0
 60 61  2  0
 60 62  1  0
 62 63  1  0
 62 64  1  0
 64 65  1  0
 65 66  2  0
 65 67  1  0
 67 68  1  0
 67 69  1  0
 69 70  1  0
 70 71  2  0
 70 72  1  0
 72 73  1  0
 72 74  1  0
 74 75  1  0
 75 76  2  0
 75 77  1  0
 77 78  1  0
 77 79  1  0
 79 80  1  0
 80 81  2  0
 80  5  1  0
 14  9  1  0
 48 11  1  0
  1 82  1  0
  1 83  1  0
  1 84  1  0
  4 85  1  0
  5 86  1  6
  6 87  1  0
  6 88  1  0
  8 89  1  0
  8 90  1  0
 10 91  1  0
 12 92  1  0
 14 93  1  0
 15 94  1  0
 15 95  1  0
 17 96  1  0
 17 97  1  0
 18 98  1  1
 20 99  1  0
 20100  1  0
 22101  1  0
 25102  1  1
 26103  1  0
 26104  1  0
 26105  1  0
 27106  1  0
 30107  1  6
 31108  1  0
 31109  1  0
 31110  1  0
 32111  1  0
 35112  1  6
 36113  1  0
 36114  1  0
 36115  1  0
 37116  1  0
 40117  1  6
 41118  1  0
 41119  1  0
 41120  1  0
 42121  1  0
 45122  1  6
 46123  1  0
 46124  1  0
 48125  1  0
 48126  1  0
 49127  1  0
 52128  1  1
 53129  1  0
 53130  1  0
 53131  1  0
 54132  1  0
 57133  1  1
 58134  1  0
 58135  1  0
 58136  1  0
 59137  1  0
 62138  1  1
 63139  1  0
 63140  1  0
 63141  1  0
 64142  1  0
 67143  1  1
 68144  1  0
 68145  1  0
 68146  1  0
 69147  1  0
 72148  1  1
 73149  1  0
 73150  1  0
 73151  1  0
 74152  1  0
 77153  1  1
 78154  1  0
 78155  1  0
 78156  1  0
 79157  1  0
M  END
