
     RDKit          3D

147149  0  0  0  0  0  0  0  0999 V2000
   -3.4111    9.1010   -1.2150 C   0  0  0  0  0  0  0  0  0  0  0  0
   -2.9045    7.9653   -0.3828 C   0  0  0  0  0  0  0  0  0  0  0  0
   -1.6693    7.7409   -0.3203 O   0  0  0  0  0  0  0  0  0  0  0  0
   -3.8358    7.1304    0.3241 N   0  0  0  0  0  0  0  0  0  0  0  0
   -3.4020    5.9461    1.0734 C   0  0  2  0  0  0  0  0  0  0  0  0
   -2.9868    4.8116    0.1104 C   0  0  0  0  0  0  0  0  0  0  0  0
   -2.3399    3.3390    0.9895 S   0  0  0  0  0  0  0  0  0  0  0  0
   -0.6197    3.9348    1.2461 C   0  0  0  0  0  0  0  0  0  0  0  0
    0.3549    3.3579    0.2459 C   0  0  0  0  0  0  0  0  0  0  0  0
    1.3866    4.1698   -0.2767 C   0  0  0  0  0  0  0  0  0  0  0  0
    2.4042    3.6089   -1.0777 C   0  0  0  0  0  0  0  0  0  0  0  0
    2.3039    2.2641   -1.4628 C   0  0  0  0  0  0  0  0  0  0  0  0
    1.2542    1.4583   -0.9939 C   0  0  0  0  0  0  0  0  0  0  0  0
    0.3192    1.9923   -0.0929 C   0  0  0  0  0  0  0  0  0  0  0  0
    1.0900    0.0626   -1.5335 C   0  0  0  0  0  0  0  0  0  0  0  0
    2.5359   -0.9642   -1.1136 S   0  0  0  0  0  0  0  0  0  0  0  0
    1.7607   -1.8737    0.2743 C   0  0  0  0  0  0  0  0  0  0  0  0
    2.7281   -2.9649    0.7792 C   0  0  1  0  0  0  0  0  0  0  0  0
    2.2534   -3.5434    2.0471 N   0  0  0  0  0  0  0  0  0  0  0  0
    1.4010   -4.6895    2.2583 C   0  0  0  0  0  0  0  0  0  0  0  0
    1.5022   -5.3103    3.3526 O   0  0  0  0  0  0  0  0  0  0  0  0
    0.3927   -5.1915    1.2435 C   0  0  1  0  0  0  0  0  0  0  0  0
    0.8908   -6.5058    0.6340 C   0  0  0  0  0  0  0  0  0  0  0  0
   -0.9086   -5.4117    1.8919 N   0  0  0  0  0  0  0  0  0  0  0  0
   -2.0813   -5.8673    1.2033 C   0  0  0  0  0  0  0  0  0  0  0  0
   -2.8135   -6.7284    1.7644 O   0  0  0  0  0  0  0  0  0  0  0  0
   -2.5078   -5.2858   -0.1218 C   0  0  1  0  0  0  0  0  0  0  0  0
   -2.8670   -6.3834   -1.1310 C   0  0  0  0  0  0  0  0  0  0  0  0
   -3.6275   -4.3616    0.0823 N   0  0  0  0  0  0  0  0  0  0  0  0
   -4.8847   -4.7640    0.6375 C   0  0  0  0  0  0  0  0  0  0  0  0
   -5.0141   -4.8158    1.8898 O   0  0  0  0  0  0  0  0  0  0  0  0
   -6.0343   -5.1510   -0.2671 C   0  0  1  0  0  0  0  0  0  0  0  0
   -7.3873   -5.2178    0.4550 C   0  0  0  0  0  0  0  0  0  0  0  0
   -6.1114   -4.2876   -1.4518 N   0  0  0  0  0  0  0  0  0  0  0  0
   -5.9304   -2.8612   -1.4324 C   0  0  0  0  0  0  0  0  0  0  0  0
   -5.0026   -2.3604   -2.1277 O   0  0  0  0  0  0  0  0  0  0  0  0
   -6.8415   -1.9396   -0.6515 C   0  0  1  0  0  0  0  0  0  0  0  0
   -6.2403   -1.5997    0.7172 C   0  0  0  0  0  0  0  0  0  0  0  0
   -7.1347   -0.7506   -1.4683 N   0  0  0  0  0  0  0  0  0  0  0  0
   -7.2025    0.5990   -0.9847 C   0  0  0  0  0  0  0  0  0  0  0  0
   -8.3345    1.1523   -0.9014 O   0  0  0  0  0  0  0  0  0  0  0  0
   -5.9613    1.3710   -0.5914 C   0  0  1  0  0  0  0  0  0  0  0  0
   -4.7810    1.0552   -1.5166 C   0  0  0  0  0  0  0  0  0  0  0  0
   -6.2277    2.8148   -0.6243 N   0  0  0  0  0  0  0  0  0  0  0  0
   -6.5333    3.5570    0.5631 C   0  0  0  0  0  0  0  0  0  0  0  0
   -6.8946    2.9539    1.6143 O   0  0  0  0  0  0  0  0  0  0  0  0
   -6.4713    5.0599    0.5480 C   0  0  1  0  0  0  0  0  0  0  0  0
   -7.8784    5.6406    0.3695 C   0  0  0  0  0  0  0  0  0  0  0  0
   -5.8736    5.5462    1.7939 N   0  0  0  0  0  0  0  0  0  0  0  0
   -4.4618    5.5158    2.0790 C   0  0  0  0  0  0  0  0  0  0  0  0
   -4.0883    5.2246    3.2485 O   0  0  0  0  0  0  0  0  0  0  0  0
    3.0457   -4.0062   -0.2775 C   0  0  0  0  0  0  0  0  0  0  0  0
    2.1891   -4.2428   -1.1745 O   0  0  0  0  0  0  0  0  0  0  0  0
    4.3445   -4.6196   -0.4127 N   0  0  0  0  0  0  0  0  0  0  0  0
    5.3227   -4.9291    0.6434 C   0  0  2  0  0  0  0  0  0  0  0  0
    4.7339   -5.9132    1.6617 C   0  0  0  0  0  0  0  0  0  0  0  0
    5.8998   -3.6822    1.2799 C   0  0  0  0  0  0  0  0  0  0  0  0
    5.6787   -3.4423    2.5002 O   0  0  0  0  0  0  0  0  0  0  0  0
    6.7230   -2.7587    0.5451 N   0  0  0  0  0  0  0  0  0  0  0  0
    7.2343   -2.9690   -0.8177 C   0  0  2  0  0  0  0  0  0  0  0  0
    8.6623   -3.5116   -0.7486 C   0  0  0  0  0  0  0  0  0  0  0  0
    7.1958   -1.6738   -1.5934 C   0  0  0  0  0  0  0  0  0  0  0  0
    7.6919   -1.6080   -2.7453 O   0  0  0  0  0  0  0  0  0  0  0  0
    6.5185   -0.5342   -1.0546 N   0  0  0  0  0  0  0  0  0  0  0  0
    7.1034    0.8140   -1.0304 C   0  0  2  0  0  0  0  0  0  0  0  0
    8.5956    0.7622   -0.6589 C   0  0  0  0  0  0  0  0  0  0  0  0
    6.3759    1.6755   -0.0235 C   0  0  0  0  0  0  0  0  0  0  0  0
    5.7702    1.1346    0.9372 O   0  0  0  0  0  0  0  0  0  0  0  0
    6.4953    3.1061   -0.0847 N   0  0  0  0  0  0  0  0  0  0  0  0
    6.1462    3.9552    1.0574 C   0  0  1  0  0  0  0  0  0  0  0  0
    7.0763    5.1407    1.1652 C   0  0  0  0  0  0  0  0  0  0  0  0
    8.4434    5.0434    0.7470 N   0  0  0  0  0  0  0  0  0  0  0  0
    6.6763    6.2173    1.6887 O   0  0  0  0  0  0  0  0  0  0  0  0
    4.6566    4.3355    1.0000 C   0  0  0  0  0  0  0  0  0  0  0  0
    4.2769    5.5674   -0.3168 S   0  0  0  0  0  0  0  0  0  0  0  0
    3.5653    4.4340   -1.5780 C   0  0  0  0  0  0  0  0  0  0  0  0
   -4.0872    8.7011   -2.0015 H   0  0  0  0  0  0  0  0  0  0  0  0
   -3.9733    9.8101   -0.5699 H   0  0  0  0  0  0  0  0  0  0  0  0
   -2.5716    9.6407   -1.6929 H   0  0  0  0  0  0  0  0  0  0  0  0
   -4.8420    7.4117    0.3048 H   0  0  0  0  0  0  0  0  0  0  0  0
   -2.5082    6.2354    1.6647 H   0  0  0  0  0  0  0  0  0  0  0  0
   -3.8501    4.4704   -0.5003 H   0  0  0  0  0  0  0  0  0  0  0  0
   -2.2168    5.1813   -0.6050 H   0  0  0  0  0  0  0  0  0  0  0  0
   -0.5735    5.0478    1.2458 H   0  0  0  0  0  0  0  0  0  0  0  0
   -0.2990    3.6024    2.2595 H   0  0  0  0  0  0  0  0  0  0  0  0
    1.4207    5.2232   -0.0200 H   0  0  0  0  0  0  0  0  0  0  0  0
    3.0456    1.8361   -2.1314 H   0  0  0  0  0  0  0  0  0  0  0  0
   -0.4547    1.3509    0.3153 H   0  0  0  0  0  0  0  0  0  0  0  0
    1.0335    0.1284   -2.6488 H   0  0  0  0  0  0  0  0  0  0  0  0
    0.1386   -0.4023   -1.1910 H   0  0  0  0  0  0  0  0  0  0  0  0
    0.8043   -2.3232   -0.0587 H   0  0  0  0  0  0  0  0  0  0  0  0
    1.5482   -1.1630    1.1019 H   0  0  0  0  0  0  0  0  0  0  0  0
    3.6717   -2.4191    0.9951 H   0  0  0  0  0  0  0  0  0  0  0  0
    2.7017   -3.1598    2.9090 H   0  0  0  0  0  0  0  0  0  0  0  0
    0.2711   -4.4380    0.4494 H   0  0  0  0  0  0  0  0  0  0  0  0
    1.9231   -6.4218    0.2496 H   0  0  0  0  0  0  0  0  0  0  0  0
    0.8755   -7.3135    1.3956 H   0  0  0  0  0  0  0  0  0  0  0  0
    0.2368   -6.8046   -0.2130 H   0  0  0  0  0  0  0  0  0  0  0  0
   -0.9569   -5.4218    2.9362 H   0  0  0  0  0  0  0  0  0  0  0  0
   -1.6732   -4.7109   -0.5662 H   0  0  0  0  0  0  0  0  0  0  0  0
   -3.6489   -7.0541   -0.7257 H   0  0  0  0  0  0  0  0  0  0  0  0
   -1.9691   -6.9898   -1.3718 H   0  0  0  0  0  0  0  0  0  0  0  0
   -3.2445   -5.9266   -2.0710 H   0  0  0  0  0  0  0  0  0  0  0  0
   -3.4154   -3.3366    0.0838 H   0  0  0  0  0  0  0  0  0  0  0  0
   -5.8305   -6.1858   -0.6178 H   0  0  0  0  0  0  0  0  0  0  0  0
   -7.6245   -4.2652    0.9638 H   0  0  0  0  0  0  0  0  0  0  0  0
   -7.3691   -6.0206    1.2174 H   0  0  0  0  0  0  0  0  0  0  0  0
   -8.1928   -5.4482   -0.2716 H   0  0  0  0  0  0  0  0  0  0  0  0
   -5.9628   -4.7535   -2.3727 H   0  0  0  0  0  0  0  0  0  0  0  0
   -7.8048   -2.4638   -0.4786 H   0  0  0  0  0  0  0  0  0  0  0  0
   -6.8832   -0.8689    1.2520 H   0  0  0  0  0  0  0  0  0  0  0  0
   -5.2086   -1.2012    0.6161 H   0  0  0  0  0  0  0  0  0  0  0  0
   -6.1899   -2.4975    1.3594 H   0  0  0  0  0  0  0  0  0  0  0  0
   -7.6188   -0.9293   -2.3781 H   0  0  0  0  0  0  0  0  0  0  0  0
   -5.6684    1.0861    0.4420 H   0  0  0  0  0  0  0  0  0  0  0  0
   -4.4088    0.0284   -1.3270 H   0  0  0  0  0  0  0  0  0  0  0  0
   -5.0788    1.1444   -2.5791 H   0  0  0  0  0  0  0  0  0  0  0  0
   -3.9411    1.7553   -1.3111 H   0  0  0  0  0  0  0  0  0  0  0  0
   -6.1718    3.3233   -1.5323 H   0  0  0  0  0  0  0  0  0  0  0  0
   -5.8744    5.4006   -0.3206 H   0  0  0  0  0  0  0  0  0  0  0  0
   -8.5345    5.3682    1.2272 H   0  0  0  0  0  0  0  0  0  0  0  0
   -7.8198    6.7478    0.3076 H   0  0  0  0  0  0  0  0  0  0  0  0
   -8.3290    5.2552   -0.5679 H   0  0  0  0  0  0  0  0  0  0  0  0
   -6.5038    5.6150    2.6244 H   0  0  0  0  0  0  0  0  0  0  0  0
    4.6051   -4.9160   -1.3750 H   0  0  0  0  0  0  0  0  0  0  0  0
    6.1696   -5.4653    0.1681 H   0  0  0  0  0  0  0  0  0  0  0  0
    4.1995   -6.7354    1.1453 H   0  0  0  0  0  0  0  0  0  0  0  0
    5.5488   -6.3596    2.2642 H   0  0  0  0  0  0  0  0  0  0  0  0
    4.0377   -5.4165    2.3624 H   0  0  0  0  0  0  0  0  0  0  0  0
    7.1626   -1.9942    1.1078 H   0  0  0  0  0  0  0  0  0  0  0  0
    6.6098   -3.6968   -1.3669 H   0  0  0  0  0  0  0  0  0  0  0  0
    9.3305   -2.7847   -0.2368 H   0  0  0  0  0  0  0  0  0  0  0  0
    8.6795   -4.4696   -0.1884 H   0  0  0  0  0  0  0  0  0  0  0  0
    9.0602   -3.7043   -1.7694 H   0  0  0  0  0  0  0  0  0  0  0  0
    5.4801   -0.6242   -0.9767 H   0  0  0  0  0  0  0  0  0  0  0  0
    6.9931    1.2650   -2.0378 H   0  0  0  0  0  0  0  0  0  0  0  0
    9.0087    1.7884   -0.5507 H   0  0  0  0  0  0  0  0  0  0  0  0
    8.7379    0.2117    0.2970 H   0  0  0  0  0  0  0  0  0  0  0  0
    9.1803    0.2536   -1.4586 H   0  0  0  0  0  0  0  0  0  0  0  0
    6.8702    3.5448   -0.9572 H   0  0  0  0  0  0  0  0  0  0  0  0
    6.2981    3.3797    1.9948 H   0  0  0  0  0  0  0  0  0  0  0  0
    9.0905    5.8518    0.8730 H   0  0  0  0  0  0  0  0  0  0  0  0
    8.8393    4.1409    0.4107 H   0  0  0  0  0  0  0  0  0  0  0  0
    4.3660    4.7971    1.9653 H   0  0  0  0  0  0  0  0  0  0  0  0
    4.0452    3.4161    0.8963 H   0  0  0  0  0  0  0  0  0  0  0  0
    3.2023    5.0529   -2.4279 H   0  0  0  0  0  0  0  0  0  0  0  0
    4.3785    3.7807   -1.9659 H   0  0  0  0  0  0  0  0  0  0  0  0
  1  2  1  0
  2  3  2  0
  2  4  1  0
  4  5  1  0
  5  6  1  0
  6  7  1  0
  7  8  1  0
  8  9  1  0
  9 10  2  0
 10 11  1  0
 11 12  2  0
 12 13  1  0
 13 14  2  0
 13 15  1  0
 15 16  1  0
 16 17  1  0
 17 18  1  0
 18 19  1  0
 19 20  1  0
 20 21  2  0
 20 22  1  0
 22 23  1  0
 22 24  1  0
 24 25  1  0
 25 26  2  0
 25 27  1  0
 27 28  1  0
 27 29  1  0
 29 30  1  0
 30 31  2  0
 30 32  1  0
 32 33  1  0
 32 34  1  0
 34 35  1  0
 35 36  2  0
 35 37  1  0
 37 38  1  0
 37 39  1  0
 39 40  1  0
 40 41  2  0
 40 42  1  0
 42 43  1  0
 42 44  1  0
 44 45  1  0
 45 46  2  0
 45 47  1  0
 47 48  1  0
 47 49  1  0
 49 50  1  0
 50 51  2  0
 18 52  1  0
 52 53  2  0
 52 54  1  0
 54 55  1  0
 55 56  1  0
 55 57  1  0
 57 58  2  0
 57 59  1  0
 59 60  1  0
 60 61  1  0
 60 62  1  0
 62 63  2  0
 62 64  1  0
 64 65  1  0
 65 66  1  0
 65 67  1  0
 67 68  2  0
 67 69  1  0
 69 70  1  0
 70 71  1  0
 71 72  1  0
 71 73  2  0
 70 74  1  0
 74 75  1  0
 75 76  1  0
 50  5  1  0
 14  9  1  0
 76 11  1  0
  1 77  1  0
  1 78  1  0
  1 79  1  0
  4 80  1  0
  5 81  1  1
  6 82  1  0
  6 83  1  0
  8 84  1  0
  8 85  1  0
 10 86  1  0
 12 87  1  0
 14 88  1  0
 15 89  1  0
 15 90  1  0
 17 91  1  0
 17 92  1  0
 18 93  1  1
 19 94  1  0
 22 95  1  6
 23 96  1  0
 23 97  1  0
 23 98  1  0
 24 99  1  0
 27100  1  6
 28101  1  0
 28102  1  0
 28103  1  0
 29104  1  0
 32105  1  6
 33106  1  0
 33107  1  0
 33108  1  0
 34109  1  0
 37110  1  1
 38111  1  0
 38112  1  0
 38113  1  0
 39114  1  0
 42115  1  1
 43116  1  0
 43117  1  0
 43118  1  0
 44119  1  0
 47120  1  6
 48121  1  0
 48122  1  0
 48123  1  0
 49124  1  0
 54125  1  0
 55126  1  6
 56127  1  0
 56128  1  0
 56129  1  0
 59130  1  0
 60131  1  6
 61132  1  0
 61133  1  0
 61134  1  0
 64135  1  0
 65136  1  6
 66137  1  0
 66138  1  0
 66139  1  0
 69140  1  0
 70141  1  1
 72142  1  0
 72143  1  0
 74144  1  0
 74145  1  0
 76146  1  0
 76147  1  0
M  END
