
     RDKit          3D

 97 99  0  0  0  0  0  0  0  0999 V2000
    9.0875    2.1264    0.3701 C   0  0  0  0  0  0  0  0  0  0  0  0
    7.8914    1.5287   -0.2941 C   0  0  0  0  0  0  0  0  0  0  0  0
    7.8717    1.3986   -1.5500 O   0  0  0  0  0  0  0  0  0  0  0  0
    6.7715    1.1065    0.4974 N   0  0  0  0  0  0  0  0  0  0  0  0
    5.4128    0.9412   -0.0312 C   0  0  1  0  0  0  0  0  0  0  0  0
    4.8373    2.2867   -0.5054 C   0  0  0  0  0  0  0  0  0  0  0  0
    4.7557    3.4553    0.9064 S   0  0  0  0  0  0  0  0  0  0  0  0
    3.3323    4.4434    0.3075 C   0  0  0  0  0  0  0  0  0  0  0  0
    2.0718    3.6134    0.2284 C   0  0  0  0  0  0  0  0  0  0  0  0
    1.3065    3.6005   -0.9487 C   0  0  0  0  0  0  0  0  0  0  0  0
    0.2014    2.7457   -1.0668 C   0  0  0  0  0  0  0  0  0  0  0  0
   -0.1394    1.9118    0.0032 C   0  0  0  0  0  0  0  0  0  0  0  0
    0.5944    1.9425    1.1979 C   0  0  0  0  0  0  0  0  0  0  0  0
    1.6877    2.8103    1.3145 C   0  0  0  0  0  0  0  0  0  0  0  0
    0.2605    0.9948    2.3176 C   0  0  0  0  0  0  0  0  0  0  0  0
    1.4770   -0.3642    2.4189 S   0  0  0  0  0  0  0  0  0  0  0  0
    1.2804   -1.0094    0.7150 C   0  0  0  0  0  0  0  0  0  0  0  0
    1.4804   -2.5362    0.7093 C   0  0  2  0  0  0  0  0  0  0  0  0
    2.1034   -2.9800   -0.5452 N   0  0  0  0  0  0  0  0  0  0  0  0
    3.5146   -2.9136   -0.8344 C   0  0  0  0  0  0  0  0  0  0  0  0
    3.9454   -3.5061   -1.8589 O   0  0  0  0  0  0  0  0  0  0  0  0
    4.5047   -2.1870    0.0520 C   0  0  1  0  0  0  0  0  0  0  0  0
    5.2224   -3.1675    0.9746 C   0  0  0  0  0  0  0  0  0  0  0  0
    5.4929   -1.4968   -0.7819 N   0  0  0  0  0  0  0  0  0  0  0  0
    5.3937   -0.1104   -1.1146 C   0  0  0  0  0  0  0  0  0  0  0  0
    5.4002    0.2259   -2.3305 O   0  0  0  0  0  0  0  0  0  0  0  0
    0.1467   -3.2239    0.9058 C   0  0  0  0  0  0  0  0  0  0  0  0
   -0.1095   -3.7691    2.0146 O   0  0  0  0  0  0  0  0  0  0  0  0
   -0.8448   -3.2077   -0.1397 N   0  0  0  0  0  0  0  0  0  0  0  0
   -2.0983   -3.9753   -0.0686 C   0  0  2  0  0  0  0  0  0  0  0  0
   -1.7967   -5.4803    0.0319 C   0  0  0  0  0  0  0  0  0  0  0  0
   -2.9338   -3.7240   -1.3125 C   0  0  0  0  0  0  0  0  0  0  0  0
   -2.4056   -3.9418   -2.4375 O   0  0  0  0  0  0  0  0  0  0  0  0
   -4.2981   -3.2602   -1.2873 N   0  0  0  0  0  0  0  0  0  0  0  0
   -5.1140   -3.0249   -0.0899 C   0  0  2  0  0  0  0  0  0  0  0  0
   -5.4851   -4.3522    0.5862 C   0  0  0  0  0  0  0  0  0  0  0  0
   -6.3720   -2.2717   -0.4797 C   0  0  0  0  0  0  0  0  0  0  0  0
   -7.3390   -2.9098   -0.9862 O   0  0  0  0  0  0  0  0  0  0  0  0
   -6.4921   -0.8467   -0.3431 N   0  0  0  0  0  0  0  0  0  0  0  0
   -5.3564    0.0713   -0.2310 C   0  0  2  0  0  0  0  0  0  0  0  0
   -5.2148    0.5291    1.2237 C   0  0  0  0  0  0  0  0  0  0  0  0
   -5.5474    1.2212   -1.1930 C   0  0  0  0  0  0  0  0  0  0  0  0
   -5.6816    0.9784   -2.4204 O   0  0  0  0  0  0  0  0  0  0  0  0
   -5.5365    2.5823   -0.7473 N   0  0  0  0  0  0  0  0  0  0  0  0
   -4.5205    3.5600   -1.1751 C   0  0  1  0  0  0  0  0  0  0  0  0
   -4.4761    4.7243   -0.2057 C   0  0  0  0  0  0  0  0  0  0  0  0
   -4.9403    4.5894    1.1476 N   0  0  0  0  0  0  0  0  0  0  0  0
   -3.9800    5.8246   -0.5795 O   0  0  0  0  0  0  0  0  0  0  0  0
   -3.1227    2.9122   -1.2727 C   0  0  0  0  0  0  0  0  0  0  0  0
   -1.9706    3.9539   -2.2401 S   0  0  0  0  0  0  0  0  0  0  0  0
   -0.6180    2.7270   -2.3281 C   0  0  0  0  0  0  0  0  0  0  0  0
    9.5096    1.4100    1.1075 H   0  0  0  0  0  0  0  0  0  0  0  0
    9.8667    2.3651   -0.3845 H   0  0  0  0  0  0  0  0  0  0  0  0
    8.7922    3.0617    0.8903 H   0  0  0  0  0  0  0  0  0  0  0  0
    6.9057    1.0140    1.5332 H   0  0  0  0  0  0  0  0  0  0  0  0
    4.7612    0.5995    0.7969 H   0  0  0  0  0  0  0  0  0  0  0  0
    5.4741    2.7285   -1.3007 H   0  0  0  0  0  0  0  0  0  0  0  0
    3.8288    2.1005   -0.9309 H   0  0  0  0  0  0  0  0  0  0  0  0
    3.5929    4.8874   -0.6825 H   0  0  0  0  0  0  0  0  0  0  0  0
    3.1671    5.2822    1.0196 H   0  0  0  0  0  0  0  0  0  0  0  0
    1.5889    4.2293   -1.7854 H   0  0  0  0  0  0  0  0  0  0  0  0
   -0.9694    1.2244   -0.0921 H   0  0  0  0  0  0  0  0  0  0  0  0
    2.2762    2.8158    2.2257 H   0  0  0  0  0  0  0  0  0  0  0  0
   -0.7594    0.5715    2.1943 H   0  0  0  0  0  0  0  0  0  0  0  0
    0.2706    1.5460    3.2803 H   0  0  0  0  0  0  0  0  0  0  0  0
    2.0223   -0.5040    0.0667 H   0  0  0  0  0  0  0  0  0  0  0  0
    0.2855   -0.7539    0.3102 H   0  0  0  0  0  0  0  0  0  0  0  0
    2.1431   -2.8312    1.5530 H   0  0  0  0  0  0  0  0  0  0  0  0
    1.5139   -3.4611   -1.2633 H   0  0  0  0  0  0  0  0  0  0  0  0
    3.9754   -1.4628    0.6939 H   0  0  0  0  0  0  0  0  0  0  0  0
    5.7856   -3.9175    0.3787 H   0  0  0  0  0  0  0  0  0  0  0  0
    5.9341   -2.6146    1.6261 H   0  0  0  0  0  0  0  0  0  0  0  0
    4.4961   -3.6954    1.6277 H   0  0  0  0  0  0  0  0  0  0  0  0
    6.1073   -2.0834   -1.3926 H   0  0  0  0  0  0  0  0  0  0  0  0
   -0.6504   -2.6243   -0.9856 H   0  0  0  0  0  0  0  0  0  0  0  0
   -2.6424   -3.6541    0.8410 H   0  0  0  0  0  0  0  0  0  0  0  0
   -1.3234   -5.7332    1.0050 H   0  0  0  0  0  0  0  0  0  0  0  0
   -1.1108   -5.7948   -0.7839 H   0  0  0  0  0  0  0  0  0  0  0  0
   -2.7346   -6.0721   -0.0478 H   0  0  0  0  0  0  0  0  0  0  0  0
   -4.7330   -3.0544   -2.2199 H   0  0  0  0  0  0  0  0  0  0  0  0
   -4.5426   -2.4173    0.6381 H   0  0  0  0  0  0  0  0  0  0  0  0
   -6.1802   -4.1698    1.4341 H   0  0  0  0  0  0  0  0  0  0  0  0
   -4.5881   -4.8541    0.9950 H   0  0  0  0  0  0  0  0  0  0  0  0
   -5.9663   -5.0425   -0.1436 H   0  0  0  0  0  0  0  0  0  0  0  0
   -7.4571   -0.4388   -0.3546 H   0  0  0  0  0  0  0  0  0  0  0  0
   -4.4140   -0.4409   -0.5212 H   0  0  0  0  0  0  0  0  0  0  0  0
   -6.1255    1.0753    1.5539 H   0  0  0  0  0  0  0  0  0  0  0  0
   -5.0783   -0.3540    1.8805 H   0  0  0  0  0  0  0  0  0  0  0  0
   -4.3222    1.1785    1.3422 H   0  0  0  0  0  0  0  0  0  0  0  0
   -6.4557    2.9495   -0.4120 H   0  0  0  0  0  0  0  0  0  0  0  0
   -4.8099    3.9377   -2.1825 H   0  0  0  0  0  0  0  0  0  0  0  0
   -4.9160    5.4141    1.7899 H   0  0  0  0  0  0  0  0  0  0  0  0
   -5.2596    3.6743    1.5350 H   0  0  0  0  0  0  0  0  0  0  0  0
   -3.1832    1.9292   -1.7818 H   0  0  0  0  0  0  0  0  0  0  0  0
   -2.7264    2.7493   -0.2495 H   0  0  0  0  0  0  0  0  0  0  0  0
   -1.0239    1.7122   -2.5240 H   0  0  0  0  0  0  0  0  0  0  0  0
    0.0244    2.9719   -3.1993 H   0  0  0  0  0  0  0  0  0  0  0  0
  1  2  1  0
  2  3  2  0
  2  4  1  0
  4  5  1  0
  5  6  1  0
  6  7  1  0
  7  8  1  0
  8  9  1  0
  9 10  1  0
 10 11  2  0
 11 12  1  0
 12 13  2  0
 13 14  1  0
 13 15  1  0
 15 16  1  0
 16 17  1  0
 17 18  1  0
 18 19  1  0
 19 20  1  0
 20 21  2  0
 20 22  1  0
 22 23  1  0
 22 24  1  0
 24 25  1  0
 25 26  2  0
 18 27  1  0
 27 28  2  0
 27 29  1  0
 29 30  1  0
 30 31  1  0
 30 32  1  0
 32 33  2  0
 32 34  1  0
 34 35  1  0
 35 36  1  0
 35 37  1  0
 37 38  2  0
 37 39  1  0
 39 40  1  0
 40 41  1  0
 40 42  1  0
 42 43  2  0
 42 44  1  0
 44 45  1  0
 45 46  1  0
 46 47  1  0
 46 48  2  0
 45 49  1  0
 49 50  1  0
 50 51  1  0
 25  5  1  0
 14  9  2  0
 51 11  1  0
  1 52  1  0
  1 53  1  0
  1 54  1  0
  4 55  1  0
  5 56  1  1
  6 57  1  0
  6 58  1  0
  8 59  1  0
  8 60  1  0
 10 61  1  0
 12 62  1  0
 14 63  1  0
 15 64  1  0
 15 65  1  0
 17 66  1  0
 17 67  1  0
 18 68  1  1
 19 69  1  0
 22 70  1  1
 23 71  1  0
 23 72  1  0
 23 73  1  0
 24 74  1  0
 29 75  1  0
 30 76  1  1
 31 77  1  0
 31 78  1  0
 31 79  1  0
 34 80  1  0
 35 81  1  1
 36 82  1  0
 36 83  1  0
 36 84  1  0
 39 85  1  0
 40 86  1  6
 41 87  1  0
 41 88  1  0
 41 89  1  0
 44 90  1  0
 45 91  1  6
 47 92  1  0
 47 93  1  0
 49 94  1  0
 49 95  1  0
 51 96  1  0
 51 97  1  0
M  END
