
     RDKit          3D

177179  0  0  0  0  0  0  0  0999 V2000
    4.4641    8.3855    0.1581 C   0  0  0  0  0  0  0  0  0  0  0  0
    5.7454    7.7259    0.5672 C   0  0  0  0  0  0  0  0  0  0  0  0
    6.6386    8.4208    1.1237 O   0  0  0  0  0  0  0  0  0  0  0  0
    5.9980    6.3335    0.3299 N   0  0  0  0  0  0  0  0  0  0  0  0
    5.0531    5.4165   -0.3177 C   0  0  2  0  0  0  0  0  0  0  0  0
    4.2610    4.6469    0.7457 C   0  0  0  0  0  0  0  0  0  0  0  0
    2.8399    3.7872   -0.0190 S   0  0  0  0  0  0  0  0  0  0  0  0
    2.0767    3.2798    1.5632 C   0  0  0  0  0  0  0  0  0  0  0  0
    0.6374    2.9259    1.3199 C   0  0  0  0  0  0  0  0  0  0  0  0
   -0.2861    3.9298    1.0009 C   0  0  0  0  0  0  0  0  0  0  0  0
   -1.6311    3.6205    0.7368 C   0  0  0  0  0  0  0  0  0  0  0  0
   -2.0326    2.2710    0.7429 C   0  0  0  0  0  0  0  0  0  0  0  0
   -1.1214    1.2577    1.0763 C   0  0  0  0  0  0  0  0  0  0  0  0
    0.2063    1.5971    1.3800 C   0  0  0  0  0  0  0  0  0  0  0  0
   -1.5451   -0.1820    1.1243 C   0  0  0  0  0  0  0  0  0  0  0  0
   -0.7445   -1.1016   -0.2373 S   0  0  0  0  0  0  0  0  0  0  0  0
   -0.9286   -2.7748    0.5003 C   0  0  0  0  0  0  0  0  0  0  0  0
    0.2034   -3.6964    0.0142 C   0  0  1  0  0  0  0  0  0  0  0  0
    0.3051   -4.8875    0.8681 N   0  0  0  0  0  0  0  0  0  0  0  0
    1.4367   -5.2391    1.6791 C   0  0  0  0  0  0  0  0  0  0  0  0
    1.4502   -6.3715    2.2377 O   0  0  0  0  0  0  0  0  0  0  0  0
    2.6323   -4.3185    1.8424 C   0  0  1  0  0  0  0  0  0  0  0  0
    3.4721   -4.6673    3.0765 C   0  0  0  0  0  0  0  0  0  0  0  0
    3.4836   -4.3424    0.6482 N   0  0  0  0  0  0  0  0  0  0  0  0
    3.8772   -5.5678    0.0158 C   0  0  0  0  0  0  0  0  0  0  0  0
    3.0060   -6.2926   -0.5348 O   0  0  0  0  0  0  0  0  0  0  0  0
    5.3215   -5.9832    0.0044 C   0  0  1  0  0  0  0  0  0  0  0  0
    5.4567   -7.4210    0.5163 C   0  0  0  0  0  0  0  0  0  0  0  0
    5.8528   -5.8916   -1.3572 N   0  0  0  0  0  0  0  0  0  0  0  0
    6.9594   -5.0578   -1.7500 C   0  0  0  0  0  0  0  0  0  0  0  0
    7.0068   -4.6509   -2.9450 O   0  0  0  0  0  0  0  0  0  0  0  0
    8.0624   -4.6440   -0.7884 C   0  0  1  0  0  0  0  0  0  0  0  0
    8.6202   -5.8518   -0.0139 C   0  0  0  0  0  0  0  0  0  0  0  0
    9.1714   -4.0279   -1.5302 N   0  0  0  0  0  0  0  0  0  0  0  0
    9.5239   -2.6392   -1.4414 C   0  0  0  0  0  0  0  0  0  0  0  0
    9.7209   -2.0079   -2.5159 O   0  0  0  0  0  0  0  0  0  0  0  0
    9.7063   -1.9068   -0.1215 C   0  0  1  0  0  0  0  0  0  0  0  0
   10.1017   -2.8348    1.0357 C   0  0  0  0  0  0  0  0  0  0  0  0
   10.7705   -0.9125   -0.2790 N   0  0  0  0  0  0  0  0  0  0  0  0
   10.5531    0.4945   -0.4539 C   0  0  0  0  0  0  0  0  0  0  0  0
   11.2072    1.0858   -1.3573 O   0  0  0  0  0  0  0  0  0  0  0  0
    9.6147    1.2988    0.4277 C   0  0  1  0  0  0  0  0  0  0  0  0
    9.6865    0.8443    1.8885 C   0  0  0  0  0  0  0  0  0  0  0  0
   10.0049    2.7100    0.3621 N   0  0  0  0  0  0  0  0  0  0  0  0
    9.1418    3.8042    0.0121 C   0  0  0  0  0  0  0  0  0  0  0  0
    9.2027    4.8524    0.7093 O   0  0  0  0  0  0  0  0  0  0  0  0
    8.2176    3.8092   -1.1887 C   0  0  1  0  0  0  0  0  0  0  0  0
    8.5755    2.8034   -2.2874 C   0  0  0  0  0  0  0  0  0  0  0  0
    6.8313    3.6331   -0.7607 N   0  0  0  0  0  0  0  0  0  0  0  0
    5.8025    4.4961   -1.2476 C   0  0  0  0  0  0  0  0  0  0  0  0
    5.5608    4.5309   -2.4851 O   0  0  0  0  0  0  0  0  0  0  0  0
    0.0832   -4.0716   -1.4504 C   0  0  0  0  0  0  0  0  0  0  0  0
    0.8312   -3.4757   -2.2728 O   0  0  0  0  0  0  0  0  0  0  0  0
   -0.7479   -5.1411   -1.9346 N   0  0  0  0  0  0  0  0  0  0  0  0
   -2.1016   -5.4456   -1.4602 C   0  0  2  0  0  0  0  0  0  0  0  0
   -2.3957   -6.9340   -1.6826 C   0  0  0  0  0  0  0  0  0  0  0  0
   -3.1129   -4.5834   -2.1833 C   0  0  0  0  0  0  0  0  0  0  0  0
   -2.8810   -4.2333   -3.3721 O   0  0  0  0  0  0  0  0  0  0  0  0
   -4.3128   -4.1135   -1.5443 N   0  0  0  0  0  0  0  0  0  0  0  0
   -5.0374   -4.8681   -0.5204 C   0  0  2  0  0  0  0  0  0  0  0  0
   -6.0200   -5.8396   -1.1770 C   0  0  0  0  0  0  0  0  0  0  0  0
   -5.7635   -3.9243    0.4064 C   0  0  0  0  0  0  0  0  0  0  0  0
   -5.3409   -3.7624    1.5790 O   0  0  0  0  0  0  0  0  0  0  0  0
   -6.9327   -3.2235   -0.0510 N   0  0  0  0  0  0  0  0  0  0  0  0
   -8.1269   -2.9279    0.7569 C   0  0  2  0  0  0  0  0  0  0  0  0
   -8.2419   -3.8093    2.0100 C   0  0  0  0  0  0  0  0  0  0  0  0
   -9.3526   -3.1407   -0.1138 C   0  0  0  0  0  0  0  0  0  0  0  0
   -9.5580   -4.2996   -0.5744 O   0  0  0  0  0  0  0  0  0  0  0  0
  -10.2615   -2.0875   -0.4821 N   0  0  0  0  0  0  0  0  0  0  0  0
  -10.4686   -0.8418    0.2644 C   0  0  2  0  0  0  0  0  0  0  0  0
  -11.2477   -1.1232    1.5557 C   0  0  0  0  0  0  0  0  0  0  0  0
  -11.2399    0.1441   -0.5902 C   0  0  0  0  0  0  0  0  0  0  0  0
  -12.3942   -0.1782   -0.9899 O   0  0  0  0  0  0  0  0  0  0  0  0
  -10.7056    1.4141   -1.0175 N   0  0  0  0  0  0  0  0  0  0  0  0
   -9.6589    2.1779   -0.3240 C   0  0  2  0  0  0  0  0  0  0  0  0
  -10.2900    2.9268    0.8582 C   0  0  0  0  0  0  0  0  0  0  0  0
   -8.9779    3.0832   -1.3310 C   0  0  0  0  0  0  0  0  0  0  0  0
   -8.5040    2.5709   -2.3804 O   0  0  0  0  0  0  0  0  0  0  0  0
   -8.8944    4.5002   -1.1586 N   0  0  0  0  0  0  0  0  0  0  0  0
   -7.9700    5.1022   -0.2005 C   0  0  2  0  0  0  0  0  0  0  0  0
   -8.6223    6.3420    0.4195 C   0  0  0  0  0  0  0  0  0  0  0  0
   -6.6591    5.4158   -0.8830 C   0  0  0  0  0  0  0  0  0  0  0  0
   -6.0413    4.5046   -1.4947 O   0  0  0  0  0  0  0  0  0  0  0  0
   -6.0919    6.7265   -0.8131 N   0  0  0  0  0  0  0  0  0  0  0  0
   -4.8322    7.0304   -0.1136 C   0  0  1  0  0  0  0  0  0  0  0  0
   -4.7728    8.5222    0.1222 C   0  0  0  0  0  0  0  0  0  0  0  0
   -4.3289    9.3992   -0.9145 N   0  0  0  0  0  0  0  0  0  0  0  0
   -5.1762    9.0089    1.2180 O   0  0  0  0  0  0  0  0  0  0  0  0
   -4.6946    6.2691    1.2363 C   0  0  0  0  0  0  0  0  0  0  0  0
   -4.2515    4.4992    1.0650 S   0  0  0  0  0  0  0  0  0  0  0  0
   -2.5813    4.7307    0.3481 C   0  0  0  0  0  0  0  0  0  0  0  0
    4.3598    8.3403   -0.9441 H   0  0  0  0  0  0  0  0  0  0  0  0
    4.4602    9.4521    0.4647 H   0  0  0  0  0  0  0  0  0  0  0  0
    3.6090    7.8728    0.6460 H   0  0  0  0  0  0  0  0  0  0  0  0
    6.8475    5.9219    0.7756 H   0  0  0  0  0  0  0  0  0  0  0  0
    4.3298    5.9982   -0.9300 H   0  0  0  0  0  0  0  0  0  0  0  0
    4.9128    3.9167    1.2766 H   0  0  0  0  0  0  0  0  0  0  0  0
    3.8796    5.3763    1.4922 H   0  0  0  0  0  0  0  0  0  0  0  0
    2.6344    2.4054    1.9670 H   0  0  0  0  0  0  0  0  0  0  0  0
    2.1182    4.1001    2.3132 H   0  0  0  0  0  0  0  0  0  0  0  0
    0.0525    4.9620    0.9565 H   0  0  0  0  0  0  0  0  0  0  0  0
   -3.0563    2.0093    0.5035 H   0  0  0  0  0  0  0  0  0  0  0  0
    0.9106    0.8159    1.6517 H   0  0  0  0  0  0  0  0  0  0  0  0
   -1.2417   -0.5864    2.1109 H   0  0  0  0  0  0  0  0  0  0  0  0
   -2.6467   -0.2902    1.0286 H   0  0  0  0  0  0  0  0  0  0  0  0
   -1.9294   -3.1636    0.2361 H   0  0  0  0  0  0  0  0  0  0  0  0
   -0.8620   -2.7276    1.6078 H   0  0  0  0  0  0  0  0  0  0  0  0
    1.1360   -3.1004    0.1062 H   0  0  0  0  0  0  0  0  0  0  0  0
   -0.5267   -5.5111    0.9571 H   0  0  0  0  0  0  0  0  0  0  0  0
    2.2604   -3.2840    1.9991 H   0  0  0  0  0  0  0  0  0  0  0  0
    4.2843   -3.9216    3.1989 H   0  0  0  0  0  0  0  0  0  0  0  0
    2.8357   -4.6438    3.9872 H   0  0  0  0  0  0  0  0  0  0  0  0
    3.9268   -5.6756    2.9759 H   0  0  0  0  0  0  0  0  0  0  0  0
    4.0593   -3.4890    0.4478 H   0  0  0  0  0  0  0  0  0  0  0  0
    5.8772   -5.3112    0.6929 H   0  0  0  0  0  0  0  0  0  0  0  0
    4.8365   -8.1185   -0.0829 H   0  0  0  0  0  0  0  0  0  0  0  0
    6.5137   -7.7602    0.4556 H   0  0  0  0  0  0  0  0  0  0  0  0
    5.1386   -7.4745    1.5785 H   0  0  0  0  0  0  0  0  0  0  0  0
    5.3348   -6.3883   -2.1183 H   0  0  0  0  0  0  0  0  0  0  0  0
    7.6297   -3.9092   -0.0801 H   0  0  0  0  0  0  0  0  0  0  0  0
    8.0359   -6.0251    0.9111 H   0  0  0  0  0  0  0  0  0  0  0  0
    8.6158   -6.7686   -0.6378 H   0  0  0  0  0  0  0  0  0  0  0  0
    9.6647   -5.6652    0.3107 H   0  0  0  0  0  0  0  0  0  0  0  0
    9.6108   -4.5875   -2.2985 H   0  0  0  0  0  0  0  0  0  0  0  0
    8.7447   -1.4099    0.1231 H   0  0  0  0  0  0  0  0  0  0  0  0
   10.9151   -3.5296    0.7238 H   0  0  0  0  0  0  0  0  0  0  0  0
    9.2336   -3.4141    1.4069 H   0  0  0  0  0  0  0  0  0  0  0  0
   10.4739   -2.2363    1.8943 H   0  0  0  0  0  0  0  0  0  0  0  0
   11.7211   -1.2736   -0.5231 H   0  0  0  0  0  0  0  0  0  0  0  0
    8.5675    1.1663    0.0846 H   0  0  0  0  0  0  0  0  0  0  0  0
    9.1271    1.5547    2.5318 H   0  0  0  0  0  0  0  0  0  0  0  0
    9.2224   -0.1526    2.0235 H   0  0  0  0  0  0  0  0  0  0  0  0
   10.7415    0.8073    2.2352 H   0  0  0  0  0  0  0  0  0  0  0  0
   10.9256    2.9642    0.7897 H   0  0  0  0  0  0  0  0  0  0  0  0
    8.3235    4.8151   -1.6567 H   0  0  0  0  0  0  0  0  0  0  0  0
    8.0089    3.0562   -3.2108 H   0  0  0  0  0  0  0  0  0  0  0  0
    8.3073    1.7668   -2.0158 H   0  0  0  0  0  0  0  0  0  0  0  0
    9.6570    2.8686   -2.5292 H   0  0  0  0  0  0  0  0  0  0  0  0
    6.5760    2.8335   -0.1349 H   0  0  0  0  0  0  0  0  0  0  0  0
   -0.4904   -5.5226   -2.8768 H   0  0  0  0  0  0  0  0  0  0  0  0
   -2.1750   -5.2562   -0.3807 H   0  0  0  0  0  0  0  0  0  0  0  0
   -2.4646   -7.1661   -2.7674 H   0  0  0  0  0  0  0  0  0  0  0  0
   -3.3418   -7.2314   -1.1830 H   0  0  0  0  0  0  0  0  0  0  0  0
   -1.5788   -7.5437   -1.2393 H   0  0  0  0  0  0  0  0  0  0  0  0
   -4.8280   -3.3431   -2.0353 H   0  0  0  0  0  0  0  0  0  0  0  0
   -4.3305   -5.4617    0.0927 H   0  0  0  0  0  0  0  0  0  0  0  0
   -6.5483   -6.4333   -0.4034 H   0  0  0  0  0  0  0  0  0  0  0  0
   -5.4840   -6.5367   -1.8489 H   0  0  0  0  0  0  0  0  0  0  0  0
   -6.7725   -5.2956   -1.7849 H   0  0  0  0  0  0  0  0  0  0  0  0
   -6.9559   -2.9433   -1.0586 H   0  0  0  0  0  0  0  0  0  0  0  0
   -8.0505   -1.8792    1.0991 H   0  0  0  0  0  0  0  0  0  0  0  0
   -8.0982   -4.8804    1.7516 H   0  0  0  0  0  0  0  0  0  0  0  0
   -7.4980   -3.5027    2.7716 H   0  0  0  0  0  0  0  0  0  0  0  0
   -9.2408   -3.6918    2.4729 H   0  0  0  0  0  0  0  0  0  0  0  0
  -10.8624   -2.2771   -1.3206 H   0  0  0  0  0  0  0  0  0  0  0  0
   -9.4959   -0.4175    0.5364 H   0  0  0  0  0  0  0  0  0  0  0  0
  -12.2608   -1.5147    1.3227 H   0  0  0  0  0  0  0  0  0  0  0  0
  -11.3409   -0.1986    2.1588 H   0  0  0  0  0  0  0  0  0  0  0  0
  -10.7201   -1.8824    2.1590 H   0  0  0  0  0  0  0  0  0  0  0  0
  -11.3043    1.9584   -1.6762 H   0  0  0  0  0  0  0  0  0  0  0  0
   -8.8614    1.5136    0.0638 H   0  0  0  0  0  0  0  0  0  0  0  0
  -10.9861    3.7125    0.4957 H   0  0  0  0  0  0  0  0  0  0  0  0
   -9.5183    3.3858    1.5037 H   0  0  0  0  0  0  0  0  0  0  0  0
  -10.8637    2.2135    1.4884 H   0  0  0  0  0  0  0  0  0  0  0  0
   -9.2084    5.0910   -1.9616 H   0  0  0  0  0  0  0  0  0  0  0  0
   -7.7395    4.3890    0.6164 H   0  0  0  0  0  0  0  0  0  0  0  0
   -9.5601    6.0499    0.9467 H   0  0  0  0  0  0  0  0  0  0  0  0
   -7.9496    6.8230    1.1547 H   0  0  0  0  0  0  0  0  0  0  0  0
   -8.8762    7.0824   -0.3703 H   0  0  0  0  0  0  0  0  0  0  0  0
   -6.3965    7.3838   -1.5721 H   0  0  0  0  0  0  0  0  0  0  0  0
   -3.9861    6.7590   -0.7755 H   0  0  0  0  0  0  0  0  0  0  0  0
   -4.0239    9.0176   -1.8352 H   0  0  0  0  0  0  0  0  0  0  0  0
   -4.4421   10.4348   -0.8050 H   0  0  0  0  0  0  0  0  0  0  0  0
   -5.6512    6.3309    1.7936 H   0  0  0  0  0  0  0  0  0  0  0  0
   -3.9175    6.7488    1.8722 H   0  0  0  0  0  0  0  0  0  0  0  0
   -2.6612    4.7556   -0.7588 H   0  0  0  0  0  0  0  0  0  0  0  0
   -2.1684    5.7091    0.6877 H   0  0  0  0  0  0  0  0  0  0  0  0
  1  2  1  0
  2  3  2  0
  2  4  1  0
  4  5  1  0
  5  6  1  0
  6  7  1  0
  7  8  1  0
  8  9  1  0
  9 10  2  0
 10 11  1  0
 11 12  2  0
 12 13  1  0
 13 14  2  0
 13 15  1  0
 15 16  1  0
 16 17  1  0
 17 18  1  0
 18 19  1  0
 19 20  1  0
 20 21  2  0
 20 22  1  0
 22 23  1  0
 22 24  1  0
 24 25  1  0
 25 26  2  0
 25 27  1  0
 27 28  1  0
 27 29  1  0
 29 30  1  0
 30 31  2  0
 30 32  1  0
 32 33  1  0
 32 34  1  0
 34 35  1  0
 35 36  2  0
 35 37  1  0
 37 38  1  0
 37 39  1  0
 39 40  1  0
 40 41  2  0
 40 42  1  0
 42 43  1  0
 42 44  1  0
 44 45  1  0
 45 46  2  0
 45 47  1  0
 47 48  1  0
 47 49  1  0
 49 50  1  0
 50 51  2  0
 18 52  1  0
 52 53  2  0
 52 54  1  0
 54 55  1  0
 55 56  1  0
 55 57  1  0
 57 58  2  0
 57 59  1  0
 59 60  1  0
 60 61  1  0
 60 62  1  0
 62 63  2  0
 62 64  1  0
 64 65  1  0
 65 66  1  0
 65 67  1  0
 67 68  2  0
 67 69  1  0
 69 70  1  0
 70 71  1  0
 70 72  1  0
 72 73  2  0
 72 74  1  0
 74 75  1  0
 75 76  1  0
 75 77  1  0
 77 78  2  0
 77 79  1  0
 79 80  1  0
 80 81  1  0
 80 82  1  0
 82 83  2  0
 82 84  1  0
 84 85  1  0
 85 86  1  0
 86 87  1  0
 86 88  2  0
 85 89  1  0
 89 90  1  0
 90 91  1  0
 50  5  1  0
 14  9  1  0
 91 11  1  0
  1 92  1  0
  1 93  1  0
  1 94  1  0
  4 95  1  0
  5 96  1  6
  6 97  1  0
  6 98  1  0
  8 99  1  0
  8100  1  0
 10101  1  0
 12102  1  0
 14103  1  0
 15104  1  0
 15105  1  0
 17106  1  0
 17107  1  0
 18108  1  6
 19109  1  0
 22110  1  1
 23111  1  0
 23112  1  0
 23113  1  0
 24114  1  0
 27115  1  1
 28116  1  0
 28117  1  0
 28118  1  0
 29119  1  0
 32120  1  1
 33121  1  0
 33122  1  0
 33123  1  0
 34124  1  0
 37125  1  1
 38126  1  0
 38127  1  0
 38128  1  0
 39129  1  0
 42130  1  6
 43131  1  0
 43132  1  0
 43133  1  0
 44134  1  0
 47135  1  6
 48136  1  0
 48137  1  0
 48138  1  0
 49139  1  0
 54140  1  0
 55141  1  1
 56142  1  0
 56143  1  0
 56144  1  0
 59145  1  0
 60146  1  1
 61147  1  0
 61148  1  0
 61149  1  0
 64150  1  0
 65151  1  1
 66152  1  0
 66153  1  0
 66154  1  0
 69155  1  0
 70156  1  1
 71157  1  0
 71158  1  0
 71159  1  0
 74160  1  0
 75161  1  1
 76162  1  0
 76163  1  0
 76164  1  0
 79165  1  0
 80166  1  1
 81167  1  0
 81168  1  0
 81169  1  0
 84170  1  0
 85171  1  6
 87172  1  0
 87173  1  0
 89174  1  0
 89175  1  0
 91176  1  0
 91177  1  0
M  END
