
     RDKit          3D

167169  0  0  0  0  0  0  0  0999 V2000
   -4.1469    7.9640    1.1831 C   0  0  0  0  0  0  0  0  0  0  0  0
   -4.5503    6.7387    0.4298 C   0  0  0  0  0  0  0  0  0  0  0  0
   -5.2741    6.8725   -0.5985 O   0  0  0  0  0  0  0  0  0  0  0  0
   -4.0651    5.4477    0.8122 N   0  0  0  0  0  0  0  0  0  0  0  0
   -4.3872    4.2183    0.0757 C   0  0  1  0  0  0  0  0  0  0  0  0
   -3.1864    3.7847   -0.7788 C   0  0  0  0  0  0  0  0  0  0  0  0
   -2.6898    5.1259   -1.9205 S   0  0  0  0  0  0  0  0  0  0  0  0
   -1.3886    4.1785   -2.7784 C   0  0  0  0  0  0  0  0  0  0  0  0
   -0.2180    3.9065   -1.8771 C   0  0  0  0  0  0  0  0  0  0  0  0
    0.0912    2.5916   -1.5013 C   0  0  0  0  0  0  0  0  0  0  0  0
    1.2467    2.3120   -0.7546 C   0  0  0  0  0  0  0  0  0  0  0  0
    2.0600    3.3740   -0.3282 C   0  0  0  0  0  0  0  0  0  0  0  0
    1.7350    4.7011   -0.6641 C   0  0  0  0  0  0  0  0  0  0  0  0
    0.6127    4.9555   -1.4602 C   0  0  0  0  0  0  0  0  0  0  0  0
    2.6274    5.8289   -0.2449 C   0  0  0  0  0  0  0  0  0  0  0  0
    3.6595    6.3849   -1.6482 S   0  0  0  0  0  0  0  0  0  0  0  0
    4.8674    5.0155   -1.5499 C   0  0  0  0  0  0  0  0  0  0  0  0
    6.0781    5.2706   -2.4740 C   0  0  1  0  0  0  0  0  0  0  0  0
    6.8077    6.5419   -2.1103 C   0  0  0  0  0  0  0  0  0  0  0  0
    7.4749    7.2947   -3.1244 N   0  0  0  0  0  0  0  0  0  0  0  0
    6.8693    6.9267   -0.9099 O   0  0  0  0  0  0  0  0  0  0  0  0
    7.0420    4.1601   -2.4678 N   0  0  0  0  0  0  0  0  0  0  0  0
    7.1361    3.1789   -1.4274 C   0  0  0  0  0  0  0  0  0  0  0  0
    6.1713    2.3848   -1.2323 O   0  0  0  0  0  0  0  0  0  0  0  0
    8.3881    3.0141   -0.6008 C   0  0  1  0  0  0  0  0  0  0  0  0
    9.4058    4.1368   -0.8155 C   0  0  0  0  0  0  0  0  0  0  0  0
    8.0205    2.9760    0.8200 N   0  0  0  0  0  0  0  0  0  0  0  0
    8.4616    1.9834    1.7684 C   0  0  0  0  0  0  0  0  0  0  0  0
    7.9092    1.9541    2.9034 O   0  0  0  0  0  0  0  0  0  0  0  0
    9.5176    0.9495    1.4356 C   0  0  1  0  0  0  0  0  0  0  0  0
   10.3764    0.6369    2.6684 C   0  0  0  0  0  0  0  0  0  0  0  0
    8.8729   -0.2770    0.9443 N   0  0  0  0  0  0  0  0  0  0  0  0
    9.6483   -1.4187    0.5384 C   0  0  0  0  0  0  0  0  0  0  0  0
   10.7499   -1.2376   -0.0368 O   0  0  0  0  0  0  0  0  0  0  0  0
    9.1604   -2.8310    0.8060 C   0  0  1  0  0  0  0  0  0  0  0  0
   10.3094   -3.6642    1.3909 C   0  0  0  0  0  0  0  0  0  0  0  0
    8.0391   -2.8351    1.7525 N   0  0  0  0  0  0  0  0  0  0  0  0
    6.6959   -3.1623    1.3714 C   0  0  0  0  0  0  0  0  0  0  0  0
    5.8173   -2.2627    1.3970 O   0  0  0  0  0  0  0  0  0  0  0  0
    6.2647   -4.5707    1.0066 C   0  0  1  0  0  0  0  0  0  0  0  0
    7.3753   -5.6151    1.1334 C   0  0  0  0  0  0  0  0  0  0  0  0
    5.1501   -4.9701    1.8646 N   0  0  0  0  0  0  0  0  0  0  0  0
    3.8550   -5.3939    1.3829 C   0  0  0  0  0  0  0  0  0  0  0  0
    3.1415   -6.1416    2.1171 O   0  0  0  0  0  0  0  0  0  0  0  0
    3.3365   -4.9720    0.0350 C   0  0  1  0  0  0  0  0  0  0  0  0
    3.6147   -6.0601   -1.0036 C   0  0  0  0  0  0  0  0  0  0  0  0
    1.8998   -4.6817    0.0896 N   0  0  0  0  0  0  0  0  0  0  0  0
    1.4231   -3.5214    0.7847 C   0  0  0  0  0  0  0  0  0  0  0  0
    1.5318   -3.4546    2.0397 O   0  0  0  0  0  0  0  0  0  0  0  0
    0.7804   -2.3939    0.0188 C   0  0  1  0  0  0  0  0  0  0  0  0
    1.8660   -1.7713   -0.8827 C   0  0  0  0  0  0  0  0  0  0  0  0
    1.3129   -0.2594   -1.7405 S   0  0  0  0  0  0  0  0  0  0  0  0
    1.5759    0.8974   -0.3488 C   0  0  0  0  0  0  0  0  0  0  0  0
   -0.3422   -2.9064   -0.7673 N   0  0  0  0  0  0  0  0  0  0  0  0
   -1.4156   -3.6541   -0.1553 C   0  0  0  0  0  0  0  0  0  0  0  0
   -1.4838   -3.7137    1.0975 O   0  0  0  0  0  0  0  0  0  0  0  0
   -2.4265   -4.4367   -0.9698 C   0  0  1  0  0  0  0  0  0  0  0  0
   -2.0794   -4.4983   -2.4644 C   0  0  0  0  0  0  0  0  0  0  0  0
   -2.4860   -5.8034   -0.4421 N   0  0  0  0  0  0  0  0  0  0  0  0
   -3.6642   -6.4044    0.1111 C   0  0  0  0  0  0  0  0  0  0  0  0
   -3.5419   -7.2067    1.0747 O   0  0  0  0  0  0  0  0  0  0  0  0
   -5.0391   -6.1208   -0.4472 C   0  0  1  0  0  0  0  0  0  0  0  0
   -5.8226   -7.4257   -0.6229 C   0  0  0  0  0  0  0  0  0  0  0  0
   -5.7723   -5.1995    0.4320 N   0  0  0  0  0  0  0  0  0  0  0  0
   -7.0557   -4.6680    0.0610 C   0  0  0  0  0  0  0  0  0  0  0  0
   -7.3940   -4.6484   -1.1519 O   0  0  0  0  0  0  0  0  0  0  0  0
   -8.0462   -4.1438    1.0804 C   0  0  1  0  0  0  0  0  0  0  0  0
   -7.6430   -4.3923    2.5372 C   0  0  0  0  0  0  0  0  0  0  0  0
   -8.2503   -2.7126    0.8662 N   0  0  0  0  0  0  0  0  0  0  0  0
   -9.5618   -2.1488    0.8461 C   0  0  0  0  0  0  0  0  0  0  0  0
  -10.2781   -2.1875    1.8895 O   0  0  0  0  0  0  0  0  0  0  0  0
  -10.1095   -1.5676   -0.4248 C   0  0  1  0  0  0  0  0  0  0  0  0
  -11.0267   -2.5832   -1.1103 C   0  0  0  0  0  0  0  0  0  0  0  0
  -10.8506   -0.3279   -0.1397 N   0  0  0  0  0  0  0  0  0  0  0  0
  -10.2584    0.9880   -0.1127 C   0  0  0  0  0  0  0  0  0  0  0  0
  -11.0172    1.9905   -0.0125 O   0  0  0  0  0  0  0  0  0  0  0  0
   -8.7676    1.2115   -0.2230 C   0  0  1  0  0  0  0  0  0  0  0  0
   -8.3930    1.6572   -1.6399 C   0  0  0  0  0  0  0  0  0  0  0  0
   -8.3198    2.1413    0.8240 N   0  0  0  0  0  0  0  0  0  0  0  0
   -8.0187    3.5343    0.6536 C   0  0  0  0  0  0  0  0  0  0  0  0
   -8.5954    4.2055   -0.2457 O   0  0  0  0  0  0  0  0  0  0  0  0
   -7.0772    4.2261    1.5997 C   0  0  1  0  0  0  0  0  0  0  0  0
   -7.8123    4.6344    2.8828 C   0  0  0  0  0  0  0  0  0  0  0  0
   -5.9513    3.3384    1.9228 N   0  0  0  0  0  0  0  0  0  0  0  0
   -4.8172    3.1545    1.0620 C   0  0  0  0  0  0  0  0  0  0  0  0
   -4.1474    2.0884    1.1739 O   0  0  0  0  0  0  0  0  0  0  0  0
   -5.0520    8.4628    1.5933 H   0  0  0  0  0  0  0  0  0  0  0  0
   -3.4721    7.7080    2.0293 H   0  0  0  0  0  0  0  0  0  0  0  0
   -3.6322    8.6656    0.4985 H   0  0  0  0  0  0  0  0  0  0  0  0
   -3.4018    5.3787    1.6136 H   0  0  0  0  0  0  0  0  0  0  0  0
   -5.2426    4.3886   -0.6143 H   0  0  0  0  0  0  0  0  0  0  0  0
   -3.4652    2.8908   -1.3768 H   0  0  0  0  0  0  0  0  0  0  0  0
   -2.3322    3.5269   -0.1193 H   0  0  0  0  0  0  0  0  0  0  0  0
   -1.0350    4.7688   -3.6503 H   0  0  0  0  0  0  0  0  0  0  0  0
   -1.8296    3.2386   -3.1747 H   0  0  0  0  0  0  0  0  0  0  0  0
   -0.5646    1.7835   -1.8109 H   0  0  0  0  0  0  0  0  0  0  0  0
    2.9411    3.1726    0.2642 H   0  0  0  0  0  0  0  0  0  0  0  0
    0.3776    5.9695   -1.7568 H   0  0  0  0  0  0  0  0  0  0  0  0
    2.0026    6.6851    0.0887 H   0  0  0  0  0  0  0  0  0  0  0  0
    3.2664    5.5422    0.6172 H   0  0  0  0  0  0  0  0  0  0  0  0
    4.3534    4.0896   -1.8833 H   0  0  0  0  0  0  0  0  0  0  0  0
    5.2052    4.8868   -0.5028 H   0  0  0  0  0  0  0  0  0  0  0  0
    5.6854    5.3708   -3.5117 H   0  0  0  0  0  0  0  0  0  0  0  0
    7.4840    6.9647   -4.1146 H   0  0  0  0  0  0  0  0  0  0  0  0
    8.0481    8.1232   -2.8578 H   0  0  0  0  0  0  0  0  0  0  0  0
    7.8114    4.2024   -3.1804 H   0  0  0  0  0  0  0  0  0  0  0  0
    8.8556    2.0593   -0.9169 H   0  0  0  0  0  0  0  0  0  0  0  0
    9.7589    4.1523   -1.8676 H   0  0  0  0  0  0  0  0  0  0  0  0
    8.9505    5.1223   -0.5609 H   0  0  0  0  0  0  0  0  0  0  0  0
   10.2836    3.9788   -0.1549 H   0  0  0  0  0  0  0  0  0  0  0  0
    7.3948    3.7379    1.1807 H   0  0  0  0  0  0  0  0  0  0  0  0
   10.2090    1.3482    0.6596 H   0  0  0  0  0  0  0  0  0  0  0  0
   10.7710    1.5766    3.1164 H   0  0  0  0  0  0  0  0  0  0  0  0
    9.7761    0.0969    3.4365 H   0  0  0  0  0  0  0  0  0  0  0  0
   11.2382   -0.0020    2.3909 H   0  0  0  0  0  0  0  0  0  0  0  0
    7.8325   -0.3175    0.8307 H   0  0  0  0  0  0  0  0  0  0  0  0
    8.8442   -3.2783   -0.1670 H   0  0  0  0  0  0  0  0  0  0  0  0
    9.9597   -4.6771    1.6577 H   0  0  0  0  0  0  0  0  0  0  0  0
   10.7021   -3.1793    2.3101 H   0  0  0  0  0  0  0  0  0  0  0  0
   11.1329   -3.7664    0.6505 H   0  0  0  0  0  0  0  0  0  0  0  0
    8.1673   -2.3587    2.6740 H   0  0  0  0  0  0  0  0  0  0  0  0
    5.9708   -4.5675   -0.0665 H   0  0  0  0  0  0  0  0  0  0  0  0
    6.9535   -6.6337    0.9724 H   0  0  0  0  0  0  0  0  0  0  0  0
    8.1514   -5.4626    0.3561 H   0  0  0  0  0  0  0  0  0  0  0  0
    7.8288   -5.5849    2.1474 H   0  0  0  0  0  0  0  0  0  0  0  0
    5.3354   -5.0861    2.8878 H   0  0  0  0  0  0  0  0  0  0  0  0
    3.8481   -4.0402   -0.2890 H   0  0  0  0  0  0  0  0  0  0  0  0
    4.6885   -6.3456   -0.9949 H   0  0  0  0  0  0  0  0  0  0  0  0
    3.0022   -6.9611   -0.7997 H   0  0  0  0  0  0  0  0  0  0  0  0
    3.3633   -5.6794   -2.0166 H   0  0  0  0  0  0  0  0  0  0  0  0
    1.2867   -5.0482   -0.6782 H   0  0  0  0  0  0  0  0  0  0  0  0
    0.4012   -1.6313    0.7243 H   0  0  0  0  0  0  0  0  0  0  0  0
    2.1668   -2.5084   -1.6623 H   0  0  0  0  0  0  0  0  0  0  0  0
    2.7723   -1.5313   -0.2874 H   0  0  0  0  0  0  0  0  0  0  0  0
    2.6386    0.8281   -0.0219 H   0  0  0  0  0  0  0  0  0  0  0  0
    0.9263    0.6160    0.5073 H   0  0  0  0  0  0  0  0  0  0  0  0
   -0.5477   -2.4378   -1.6821 H   0  0  0  0  0  0  0  0  0  0  0  0
   -3.4126   -3.9283   -0.8598 H   0  0  0  0  0  0  0  0  0  0  0  0
   -1.0509   -4.8936   -2.6064 H   0  0  0  0  0  0  0  0  0  0  0  0
   -2.1571   -3.4903   -2.9267 H   0  0  0  0  0  0  0  0  0  0  0  0
   -2.7909   -5.1715   -2.9889 H   0  0  0  0  0  0  0  0  0  0  0  0
   -1.5823   -6.3186   -0.3191 H   0  0  0  0  0  0  0  0  0  0  0  0
   -4.9280   -5.6554   -1.4543 H   0  0  0  0  0  0  0  0  0  0  0  0
   -6.0589   -7.8763    0.3697 H   0  0  0  0  0  0  0  0  0  0  0  0
   -5.2317   -8.1544   -1.2211 H   0  0  0  0  0  0  0  0  0  0  0  0
   -6.7812   -7.2426   -1.1569 H   0  0  0  0  0  0  0  0  0  0  0  0
   -5.3806   -4.9859    1.3726 H   0  0  0  0  0  0  0  0  0  0  0  0
   -9.0104   -4.6833    0.9170 H   0  0  0  0  0  0  0  0  0  0  0  0
   -6.7854   -3.7506    2.8301 H   0  0  0  0  0  0  0  0  0  0  0  0
   -8.5005   -4.1549    3.1985 H   0  0  0  0  0  0  0  0  0  0  0  0
   -7.3781   -5.4616    2.6921 H   0  0  0  0  0  0  0  0  0  0  0  0
   -7.4257   -2.0857    0.7049 H   0  0  0  0  0  0  0  0  0  0  0  0
   -9.2774   -1.3575   -1.1347 H   0  0  0  0  0  0  0  0  0  0  0  0
  -11.9147   -2.8055   -0.4813 H   0  0  0  0  0  0  0  0  0  0  0  0
  -11.3584   -2.1892   -2.0918 H   0  0  0  0  0  0  0  0  0  0  0  0
  -10.4727   -3.5316   -1.2935 H   0  0  0  0  0  0  0  0  0  0  0  0
  -11.8615   -0.3972    0.1118 H   0  0  0  0  0  0  0  0  0  0  0  0
   -8.2298    0.2621   -0.0352 H   0  0  0  0  0  0  0  0  0  0  0  0
   -7.3278    1.9565   -1.6861 H   0  0  0  0  0  0  0  0  0  0  0  0
   -9.0345    2.5010   -1.9777 H   0  0  0  0  0  0  0  0  0  0  0  0
   -8.5458    0.8104   -2.3405 H   0  0  0  0  0  0  0  0  0  0  0  0
   -8.1551    1.7220    1.7678 H   0  0  0  0  0  0  0  0  0  0  0  0
   -6.7105    5.1588    1.1317 H   0  0  0  0  0  0  0  0  0  0  0  0
   -8.7046    5.2490    2.6387 H   0  0  0  0  0  0  0  0  0  0  0  0
   -8.1413    3.7342    3.4441 H   0  0  0  0  0  0  0  0  0  0  0  0
   -7.1349    5.2230    3.5361 H   0  0  0  0  0  0  0  0  0  0  0  0
   -6.0755    2.6468    2.6962 H   0  0  0  0  0  0  0  0  0  0  0  0
  1  2  1  0
  2  3  2  0
  2  4  1  0
  4  5  1  0
  5  6  1  0
  6  7  1  0
  7  8  1  0
  8  9  1  0
  9 10  2  0
 10 11  1  0
 11 12  2  0
 12 13  1  0
 13 14  2  0
 13 15  1  0
 15 16  1  0
 16 17  1  0
 17 18  1  0
 18 19  1  0
 19 20  1  0
 19 21  2  0
 18 22  1  0
 22 23  1  0
 23 24  2  0
 23 25  1  0
 25 26  1  0
 25 27  1  0
 27 28  1  0
 28 29  2  0
 28 30  1  0
 30 31  1  0
 30 32  1  0
 32 33  1  0
 33 34  2  0
 33 35  1  0
 35 36  1  0
 35 37  1  0
 37 38  1  0
 38 39  2  0
 38 40  1  0
 40 41  1  0
 40 42  1  0
 42 43  1  0
 43 44  2  0
 43 45  1  0
 45 46  1  0
 45 47  1  0
 47 48  1  0
 48 49  2  0
 48 50  1  0
 50 51  1  0
 51 52  1  0
 52 53  1  0
 50 54  1  0
 54 55  1  0
 55 56  2  0
 55 57  1  0
 57 58  1  0
 57 59  1  0
 59 60  1  0
 60 61  2  0
 60 62  1  0
 62 63  1  0
 62 64  1  0
 64 65  1  0
 65 66  2  0
 65 67  1  0
 67 68  1  0
 67 69  1  0
 69 70  1  0
 70 71  2  0
 70 72  1  0
 72 73  1  0
 72 74  1  0
 74 75  1  0
 75 76  2  0
 75 77  1  0
 77 78  1  0
 77 79  1  0
 79 80  1  0
 80 81  2  0
 80 82  1  0
 82 83  1  0
 82 84  1  0
 84 85  1  0
 85 86  2  0
 85  5  1  0
 14  9  1  0
 53 11  1  0
  1 87  1  0
  1 88  1  0
  1 89  1  0
  4 90  1  0
  5 91  1  6
  6 92  1  0
  6 93  1  0
  8 94  1  0
  8 95  1  0
 10 96  1  0
 12 97  1  0
 14 98  1  0
 15 99  1  0
 15100  1  0
 17101  1  0
 17102  1  0
 18103  1  6
 20104  1  0
 20105  1  0
 22106  1  0
 25107  1  6
 26108  1  0
 26109  1  0
 26110  1  0
 27111  1  0
 30112  1  6
 31113  1  0
 31114  1  0
 31115  1  0
 32116  1  0
 35117  1  6
 36118  1  0
 36119  1  0
 36120  1  0
 37121  1  0
 40122  1  6
 41123  1  0
 41124  1  0
 41125  1  0
 42126  1  0
 45127  1  6
 46128  1  0
 46129  1  0
 46130  1  0
 47131  1  0
 50132  1  1
 51133  1  0
 51134  1  0
 53135  1  0
 53136  1  0
 54137  1  0
 57138  1  6
 58139  1  0
 58140  1  0
 58141  1  0
 59142  1  0
 62143  1  6
 63144  1  0
 63145  1  0
 63146  1  0
 64147  1  0
 67148  1  6
 68149  1  0
 68150  1  0
 68151  1  0
 69152  1  0
 72153  1  6
 73154  1  0
 73155  1  0
 73156  1  0
 74157  1  0
 77158  1  1
 78159  1  0
 78160  1  0
 78161  1  0
 79162  1  0
 82163  1  6
 83164  1  0
 83165  1  0
 83166  1  0
 84167  1  0
M  END
