
     RDKit          3D

177179  0  0  0  0  0  0  0  0999 V2000
    5.9197    8.8911    1.5829 C   0  0  0  0  0  0  0  0  0  0  0  0
    5.4194    7.5631    1.1177 C   0  0  0  0  0  0  0  0  0  0  0  0
    4.6791    6.8885    1.8834 O   0  0  0  0  0  0  0  0  0  0  0  0
    5.7724    7.0639   -0.1801 N   0  0  0  0  0  0  0  0  0  0  0  0
    5.3247    5.7579   -0.6665 C   0  0  1  0  0  0  0  0  0  0  0  0
    4.0412    5.9424   -1.4969 C   0  0  0  0  0  0  0  0  0  0  0  0
    3.2210    4.3456   -1.8779 S   0  0  0  0  0  0  0  0  0  0  0  0
    2.7556    3.9128   -0.1602 C   0  0  0  0  0  0  0  0  0  0  0  0
    1.4340    3.2046   -0.1432 C   0  0  0  0  0  0  0  0  0  0  0  0
    1.3024    1.9347   -0.7209 C   0  0  0  0  0  0  0  0  0  0  0  0
    0.0684    1.2617   -0.6955 C   0  0  0  0  0  0  0  0  0  0  0  0
   -1.0510    1.9011   -0.1333 C   0  0  0  0  0  0  0  0  0  0  0  0
   -0.9252    3.1717    0.4505 C   0  0  0  0  0  0  0  0  0  0  0  0
    0.3183    3.8157    0.4459 C   0  0  0  0  0  0  0  0  0  0  0  0
   -2.1308    3.9028    0.9611 C   0  0  0  0  0  0  0  0  0  0  0  0
   -2.8684    4.8335   -0.4237 S   0  0  0  0  0  0  0  0  0  0  0  0
   -3.9260    5.9456    0.5804 C   0  0  0  0  0  0  0  0  0  0  0  0
   -5.4096    5.8712    0.1805 C   0  0  1  0  0  0  0  0  0  0  0  0
   -5.6282    6.1868   -1.2795 C   0  0  0  0  0  0  0  0  0  0  0  0
   -6.1605    7.4502   -1.6763 N   0  0  0  0  0  0  0  0  0  0  0  0
   -5.3545    5.3299   -2.1604 O   0  0  0  0  0  0  0  0  0  0  0  0
   -5.9608    4.5536    0.5049 N   0  0  0  0  0  0  0  0  0  0  0  0
   -7.0530    4.3876    1.4148 C   0  0  0  0  0  0  0  0  0  0  0  0
   -6.8411    3.8578    2.5383 O   0  0  0  0  0  0  0  0  0  0  0  0
   -8.4553    4.7777    1.0279 C   0  0  1  0  0  0  0  0  0  0  0  0
   -8.7044    6.2773    1.2008 C   0  0  0  0  0  0  0  0  0  0  0  0
   -8.7216    4.3770   -0.3557 N   0  0  0  0  0  0  0  0  0  0  0  0
   -9.4806    3.2205   -0.7586 C   0  0  0  0  0  0  0  0  0  0  0  0
   -9.7103    3.0568   -1.9887 O   0  0  0  0  0  0  0  0  0  0  0  0
  -10.0735    2.2491    0.2427 C   0  0  1  0  0  0  0  0  0  0  0  0
  -11.4451    2.7597    0.7010 C   0  0  0  0  0  0  0  0  0  0  0  0
  -10.2067    0.8993   -0.3211 N   0  0  0  0  0  0  0  0  0  0  0  0
  -10.4649   -0.2460    0.5103 C   0  0  0  0  0  0  0  0  0  0  0  0
  -10.4543   -0.1291    1.7649 O   0  0  0  0  0  0  0  0  0  0  0  0
  -10.7239   -1.6051   -0.0903 C   0  0  1  0  0  0  0  0  0  0  0  0
  -11.8375   -1.5633   -1.1414 C   0  0  0  0  0  0  0  0  0  0  0  0
   -9.4910   -2.1369   -0.6765 N   0  0  0  0  0  0  0  0  0  0  0  0
   -8.5355   -2.8059    0.1541 C   0  0  0  0  0  0  0  0  0  0  0  0
   -7.5831   -2.1431    0.6413 O   0  0  0  0  0  0  0  0  0  0  0  0
   -8.6047   -4.2950    0.4105 C   0  0  1  0  0  0  0  0  0  0  0  0
  -10.0081   -4.8837    0.2280 C   0  0  0  0  0  0  0  0  0  0  0  0
   -7.6689   -4.9875   -0.4837 N   0  0  0  0  0  0  0  0  0  0  0  0
   -6.4325   -5.5693   -0.0492 C   0  0  0  0  0  0  0  0  0  0  0  0
   -6.0305   -6.6246   -0.6137 O   0  0  0  0  0  0  0  0  0  0  0  0
   -5.5263   -4.8580    0.9356 C   0  0  1  0  0  0  0  0  0  0  0  0
   -4.8453   -5.8168    1.9202 C   0  0  0  0  0  0  0  0  0  0  0  0
   -4.5584   -4.0082    0.2281 N   0  0  0  0  0  0  0  0  0  0  0  0
   -3.7449   -4.4311   -0.8798 C   0  0  0  0  0  0  0  0  0  0  0  0
   -3.7357   -3.7254   -1.9240 O   0  0  0  0  0  0  0  0  0  0  0  0
   -2.8205   -5.6246   -0.7626 C   0  0  1  0  0  0  0  0  0  0  0  0
   -2.0753   -5.9571   -2.0622 C   0  0  0  0  0  0  0  0  0  0  0  0
   -1.8809   -5.4699    0.3589 N   0  0  0  0  0  0  0  0  0  0  0  0
   -1.2691   -4.2310    0.7544 C   0  0  0  0  0  0  0  0  0  0  0  0
   -1.3050   -3.9086    1.9734 O   0  0  0  0  0  0  0  0  0  0  0  0
   -0.5650   -3.3277   -0.2381 C   0  0  1  0  0  0  0  0  0  0  0  0
    0.1980   -2.1688    0.4368 C   0  0  0  0  0  0  0  0  0  0  0  0
    1.2218   -1.2431   -0.7646 S   0  0  0  0  0  0  0  0  0  0  0  0
   -0.0711   -0.0847   -1.3556 C   0  0  0  0  0  0  0  0  0  0  0  0
    0.3211   -4.0849   -1.1352 N   0  0  0  0  0  0  0  0  0  0  0  0
    1.4083   -4.9619   -0.7821 C   0  0  0  0  0  0  0  0  0  0  0  0
    2.0442   -5.5213   -1.7167 O   0  0  0  0  0  0  0  0  0  0  0  0
    1.8425   -5.2380    0.6452 C   0  0  1  0  0  0  0  0  0  0  0  0
    1.9699   -6.7460    0.8935 C   0  0  0  0  0  0  0  0  0  0  0  0
    3.0941   -4.5400    0.9511 N   0  0  0  0  0  0  0  0  0  0  0  0
    4.2533   -4.6009    0.1119 C   0  0  0  0  0  0  0  0  0  0  0  0
    4.4369   -3.6920   -0.7439 O   0  0  0  0  0  0  0  0  0  0  0  0
    5.2831   -5.6892    0.2947 C   0  0  1  0  0  0  0  0  0  0  0  0
    5.8779   -6.1375   -1.0445 C   0  0  0  0  0  0  0  0  0  0  0  0
    6.3469   -5.2744    1.2168 N   0  0  0  0  0  0  0  0  0  0  0  0
    7.1773   -4.1244    0.9924 C   0  0  0  0  0  0  0  0  0  0  0  0
    6.6444   -2.9931    0.8459 O   0  0  0  0  0  0  0  0  0  0  0  0
    8.6735   -4.2484    0.8483 C   0  0  1  0  0  0  0  0  0  0  0  0
    9.2575   -5.4591    1.5792 C   0  0  0  0  0  0  0  0  0  0  0  0
    9.0049   -4.3229   -0.5799 N   0  0  0  0  0  0  0  0  0  0  0  0
    9.4807   -3.2305   -1.3890 C   0  0  0  0  0  0  0  0  0  0  0  0
    9.7616   -3.4627   -2.5958 O   0  0  0  0  0  0  0  0  0  0  0  0
    9.7434   -1.8487   -0.8186 C   0  0  1  0  0  0  0  0  0  0  0  0
   11.1630   -1.8110   -0.2466 C   0  0  0  0  0  0  0  0  0  0  0  0
    9.5695   -0.8036   -1.8420 N   0  0  0  0  0  0  0  0  0  0  0  0
    9.3291    0.5893   -1.5807 C   0  0  0  0  0  0  0  0  0  0  0  0
    9.0747    1.3477   -2.5571 O   0  0  0  0  0  0  0  0  0  0  0  0
    9.4559    1.2147   -0.2040 C   0  0  1  0  0  0  0  0  0  0  0  0
   10.8348    1.8812   -0.0954 C   0  0  0  0  0  0  0  0  0  0  0  0
    8.3832    2.2002   -0.0086 N   0  0  0  0  0  0  0  0  0  0  0  0
    8.4460    3.2553    0.9642 C   0  0  0  0  0  0  0  0  0  0  0  0
    8.9228    3.0245    2.1117 O   0  0  0  0  0  0  0  0  0  0  0  0
    7.9053    4.6254    0.6413 C   0  0  1  0  0  0  0  0  0  0  0  0
    8.8749    5.7174    1.1032 C   0  0  0  0  0  0  0  0  0  0  0  0
    7.6950    4.7580   -0.8085 N   0  0  0  0  0  0  0  0  0  0  0  0
    6.4507    5.1014   -1.4398 C   0  0  0  0  0  0  0  0  0  0  0  0
    6.3288    4.8954   -2.6776 O   0  0  0  0  0  0  0  0  0  0  0  0
    6.5141    8.7599    2.5137 H   0  0  0  0  0  0  0  0  0  0  0  0
    5.0571    9.5605    1.7914 H   0  0  0  0  0  0  0  0  0  0  0  0
    6.5641    9.3647    0.8147 H   0  0  0  0  0  0  0  0  0  0  0  0
    6.2648    7.7026   -0.8461 H   0  0  0  0  0  0  0  0  0  0  0  0
    5.0794    5.1063    0.1911 H   0  0  0  0  0  0  0  0  0  0  0  0
    3.3235    6.5906   -0.9515 H   0  0  0  0  0  0  0  0  0  0  0  0
    4.2746    6.4630   -2.4518 H   0  0  0  0  0  0  0  0  0  0  0  0
    3.5378    3.2534    0.2739 H   0  0  0  0  0  0  0  0  0  0  0  0
    2.7060    4.8292    0.4683 H   0  0  0  0  0  0  0  0  0  0  0  0
    2.1602    1.4719   -1.1918 H   0  0  0  0  0  0  0  0  0  0  0  0
   -2.0203    1.4178   -0.1714 H   0  0  0  0  0  0  0  0  0  0  0  0
    0.4087    4.8029    0.8814 H   0  0  0  0  0  0  0  0  0  0  0  0
   -2.8786    3.1884    1.3721 H   0  0  0  0  0  0  0  0  0  0  0  0
   -1.8307    4.5985    1.7759 H   0  0  0  0  0  0  0  0  0  0  0  0
   -3.5566    6.9838    0.4382 H   0  0  0  0  0  0  0  0  0  0  0  0
   -3.8455    5.7216    1.6667 H   0  0  0  0  0  0  0  0  0  0  0  0
   -5.9231    6.6454    0.7858 H   0  0  0  0  0  0  0  0  0  0  0  0
   -6.3077    7.6648   -2.6862 H   0  0  0  0  0  0  0  0  0  0  0  0
   -6.4006    8.1782   -0.9683 H   0  0  0  0  0  0  0  0  0  0  0  0
   -5.4390    3.6952    0.2164 H   0  0  0  0  0  0  0  0  0  0  0  0
   -9.1538    4.2757    1.7263 H   0  0  0  0  0  0  0  0  0  0  0  0
   -8.1700    6.8644    0.4272 H   0  0  0  0  0  0  0  0  0  0  0  0
   -9.7913    6.4853    1.0955 H   0  0  0  0  0  0  0  0  0  0  0  0
   -8.3795    6.6097    2.2101 H   0  0  0  0  0  0  0  0  0  0  0  0
   -8.2873    4.9473   -1.1194 H   0  0  0  0  0  0  0  0  0  0  0  0
   -9.3902    2.1790    1.1171 H   0  0  0  0  0  0  0  0  0  0  0  0
  -12.1498    2.7826   -0.1545 H   0  0  0  0  0  0  0  0  0  0  0  0
  -11.8628    2.1013    1.4861 H   0  0  0  0  0  0  0  0  0  0  0  0
  -11.3650    3.7827    1.1196 H   0  0  0  0  0  0  0  0  0  0  0  0
  -10.1374    0.7499   -1.3511 H   0  0  0  0  0  0  0  0  0  0  0  0
  -11.0768   -2.2793    0.7230 H   0  0  0  0  0  0  0  0  0  0  0  0
  -12.7616   -1.1322   -0.7025 H   0  0  0  0  0  0  0  0  0  0  0  0
  -11.5373   -0.9634   -2.0265 H   0  0  0  0  0  0  0  0  0  0  0  0
  -12.0631   -2.5976   -1.4824 H   0  0  0  0  0  0  0  0  0  0  0  0
   -9.1142   -1.6516   -1.5202 H   0  0  0  0  0  0  0  0  0  0  0  0
   -8.3257   -4.4800    1.4697 H   0  0  0  0  0  0  0  0  0  0  0  0
   -9.9647   -5.9900    0.3309 H   0  0  0  0  0  0  0  0  0  0  0  0
  -10.4143   -4.6451   -0.7772 H   0  0  0  0  0  0  0  0  0  0  0  0
  -10.6931   -4.5028    1.0108 H   0  0  0  0  0  0  0  0  0  0  0  0
   -7.9820   -5.1866   -1.4631 H   0  0  0  0  0  0  0  0  0  0  0  0
   -6.1385   -4.1863    1.5672 H   0  0  0  0  0  0  0  0  0  0  0  0
   -4.0647   -5.2790    2.4953 H   0  0  0  0  0  0  0  0  0  0  0  0
   -5.6012   -6.2044    2.6363 H   0  0  0  0  0  0  0  0  0  0  0  0
   -4.3873   -6.6906    1.4219 H   0  0  0  0  0  0  0  0  0  0  0  0
   -4.6761   -2.9753    0.3418 H   0  0  0  0  0  0  0  0  0  0  0  0
   -3.4470   -6.5142   -0.5598 H   0  0  0  0  0  0  0  0  0  0  0  0
   -1.6697   -5.0518   -2.5459 H   0  0  0  0  0  0  0  0  0  0  0  0
   -2.7730   -6.4368   -2.7822 H   0  0  0  0  0  0  0  0  0  0  0  0
   -1.2405   -6.6612   -1.8589 H   0  0  0  0  0  0  0  0  0  0  0  0
   -1.8797   -6.2343    1.0718 H   0  0  0  0  0  0  0  0  0  0  0  0
   -1.3592   -2.8598   -0.8590 H   0  0  0  0  0  0  0  0  0  0  0  0
   -0.5162   -1.4854    0.9442 H   0  0  0  0  0  0  0  0  0  0  0  0
    0.8800   -2.5629    1.2131 H   0  0  0  0  0  0  0  0  0  0  0  0
   -1.0906   -0.5061   -1.2098 H   0  0  0  0  0  0  0  0  0  0  0  0
    0.0678    0.0473   -2.4496 H   0  0  0  0  0  0  0  0  0  0  0  0
    0.2164   -3.8876   -2.1579 H   0  0  0  0  0  0  0  0  0  0  0  0
    1.0829   -4.8837    1.3595 H   0  0  0  0  0  0  0  0  0  0  0  0
    2.6520   -7.2224    0.1595 H   0  0  0  0  0  0  0  0  0  0  0  0
    2.3505   -6.9308    1.9217 H   0  0  0  0  0  0  0  0  0  0  0  0
    0.9694   -7.2210    0.7935 H   0  0  0  0  0  0  0  0  0  0  0  0
    3.0667   -3.7718    1.6605 H   0  0  0  0  0  0  0  0  0  0  0  0
    4.7803   -6.5757    0.7372 H   0  0  0  0  0  0  0  0  0  0  0  0
    5.0769   -6.5469   -1.6989 H   0  0  0  0  0  0  0  0  0  0  0  0
    6.3646   -5.2863   -1.5639 H   0  0  0  0  0  0  0  0  0  0  0  0
    6.6341   -6.9328   -0.8773 H   0  0  0  0  0  0  0  0  0  0  0  0
    6.6550   -5.9783    1.9246 H   0  0  0  0  0  0  0  0  0  0  0  0
    9.1423   -3.3637    1.3231 H   0  0  0  0  0  0  0  0  0  0  0  0
    8.8974   -6.4089    1.1248 H   0  0  0  0  0  0  0  0  0  0  0  0
    8.9749   -5.4360    2.6543 H   0  0  0  0  0  0  0  0  0  0  0  0
   10.3660   -5.4398    1.5107 H   0  0  0  0  0  0  0  0  0  0  0  0
    8.8398   -5.2338   -1.0646 H   0  0  0  0  0  0  0  0  0  0  0  0
    9.0050   -1.6615   -0.0135 H   0  0  0  0  0  0  0  0  0  0  0  0
   11.9082   -1.7475   -1.0698 H   0  0  0  0  0  0  0  0  0  0  0  0
   11.3752   -2.7266    0.3475 H   0  0  0  0  0  0  0  0  0  0  0  0
   11.2938   -0.9437    0.4291 H   0  0  0  0  0  0  0  0  0  0  0  0
    9.5566   -1.0797   -2.8512 H   0  0  0  0  0  0  0  0  0  0  0  0
    9.3667    0.4495    0.5936 H   0  0  0  0  0  0  0  0  0  0  0  0
   10.8598    2.8277   -0.6757 H   0  0  0  0  0  0  0  0  0  0  0  0
   11.0662    2.1035    0.9647 H   0  0  0  0  0  0  0  0  0  0  0  0
   11.6364    1.2128   -0.4784 H   0  0  0  0  0  0  0  0  0  0  0  0
    7.4898    2.0969   -0.5491 H   0  0  0  0  0  0  0  0  0  0  0  0
    6.9606    4.7510    1.2029 H   0  0  0  0  0  0  0  0  0  0  0  0
    8.9897    5.6901    2.2057 H   0  0  0  0  0  0  0  0  0  0  0  0
    8.4818    6.7181    0.8226 H   0  0  0  0  0  0  0  0  0  0  0  0
    9.8690    5.5768    0.6278 H   0  0  0  0  0  0  0  0  0  0  0  0
    8.5070    4.5382   -1.4335 H   0  0  0  0  0  0  0  0  0  0  0  0
  1  2  1  0
  2  3  2  0
  2  4  1  0
  4  5  1  0
  5  6  1  0
  6  7  1  0
  7  8  1  0
  8  9  1  0
  9 10  2  0
 10 11  1  0
 11 12  2  0
 12 13  1  0
 13 14  2  0
 13 15  1  0
 15 16  1  0
 16 17  1  0
 17 18  1  0
 18 19  1  0
 19 20  1  0
 19 21  2  0
 18 22  1  0
 22 23  1  0
 23 24  2  0
 23 25  1  0
 25 26  1  0
 25 27  1  0
 27 28  1  0
 28 29  2  0
 28 30  1  0
 30 31  1  0
 30 32  1  0
 32 33  1  0
 33 34  2  0
 33 35  1  0
 35 36  1  0
 35 37  1  0
 37 38  1  0
 38 39  2  0
 38 40  1  0
 40 41  1  0
 40 42  1  0
 42 43  1  0
 43 44  2  0
 43 45  1  0
 45 46  1  0
 45 47  1  0
 47 48  1  0
 48 49  2  0
 48 50  1  0
 50 51  1  0
 50 52  1  0
 52 53  1  0
 53 54  2  0
 53 55  1  0
 55 56  1  0
 56 57  1  0
 57 58  1  0
 55 59  1  0
 59 60  1  0
 60 61  2  0
 60 62  1  0
 62 63  1  0
 62 64  1  0
 64 65  1  0
 65 66  2  0
 65 67  1  0
 67 68  1  0
 67 69  1  0
 69 70  1  0
 70 71  2  0
 70 72  1  0
 72 73  1  0
 72 74  1  0
 74 75  1  0
 75 76  2  0
 75 77  1  0
 77 78  1  0
 77 79  1  0
 79 80  1  0
 80 81  2  0
 80 82  1  0
 82 83  1  0
 82 84  1  0
 84 85  1  0
 85 86  2  0
 85 87  1  0
 87 88  1  0
 87 89  1  0
 89 90  1  0
 90 91  2  0
 90  5  1  0
 14  9  1  0
 58 11  1  0
  1 92  1  0
  1 93  1  0
  1 94  1  0
  4 95  1  0
  5 96  1  1
  6 97  1  0
  6 98  1  0
  8 99  1  0
  8100  1  0
 10101  1  0
 12102  1  0
 14103  1  0
 15104  1  0
 15105  1  0
 17106  1  0
 17107  1  0
 18108  1  1
 20109  1  0
 20110  1  0
 22111  1  0
 25112  1  1
 26113  1  0
 26114  1  0
 26115  1  0
 27116  1  0
 30117  1  1
 31118  1  0
 31119  1  0
 31120  1  0
 32121  1  0
 35122  1  1
 36123  1  0
 36124  1  0
 36125  1  0
 37126  1  0
 40127  1  1
 41128  1  0
 41129  1  0
 41130  1  0
 42131  1  0
 45132  1  1
 46133  1  0
 46134  1  0
 46135  1  0
 47136  1  0
 50137  1  1
 51138  1  0
 51139  1  0
 51140  1  0
 52141  1  0
 55142  1  6
 56143  1  0
 56144  1  0
 58145  1  0
 58146  1  0
 59147  1  0
 62148  1  1
 63149  1  0
 63150  1  0
 63151  1  0
 64152  1  0
 67153  1  1
 68154  1  0
 68155  1  0
 68156  1  0
 69157  1  0
 72158  1  1
 73159  1  0
 73160  1  0
 73161  1  0
 74162  1  0
 77163  1  1
 78164  1  0
 78165  1  0
 78166  1  0
 79167  1  0
 82168  1  1
 83169  1  0
 83170  1  0
 83171  1  0
 84172  1  0
 87173  1  1
 88174  1  0
 88175  1  0
 88176  1  0
 89177  1  0
M  END
