
     RDKit          3D

187189  0  0  0  0  0  0  0  0999 V2000
   -6.2940    7.0697   -1.8886 C   0  0  0  0  0  0  0  0  0  0  0  0
   -5.7832    6.8810   -0.4933 C   0  0  0  0  0  0  0  0  0  0  0  0
   -5.6057    7.8980    0.2286 O   0  0  0  0  0  0  0  0  0  0  0  0
   -5.4733    5.5873    0.0392 N   0  0  0  0  0  0  0  0  0  0  0  0
   -5.4955    4.3377   -0.7313 C   0  0  1  0  0  0  0  0  0  0  0  0
   -4.0653    3.9745   -1.1556 C   0  0  0  0  0  0  0  0  0  0  0  0
   -4.0726    2.4568   -2.1905 S   0  0  0  0  0  0  0  0  0  0  0  0
   -2.2956    2.4927   -2.6450 C   0  0  0  0  0  0  0  0  0  0  0  0
   -1.3924    2.4833   -1.4430 C   0  0  0  0  0  0  0  0  0  0  0  0
   -1.5456    1.4996   -0.4572 C   0  0  0  0  0  0  0  0  0  0  0  0
   -0.6817    1.4458    0.6455 C   0  0  0  0  0  0  0  0  0  0  0  0
    0.3403    2.3953    0.7559 C   0  0  0  0  0  0  0  0  0  0  0  0
    0.4850    3.4089   -0.2052 C   0  0  0  0  0  0  0  0  0  0  0  0
   -0.3820    3.4498   -1.3037 C   0  0  0  0  0  0  0  0  0  0  0  0
    1.6157    4.3925   -0.0881 C   0  0  0  0  0  0  0  0  0  0  0  0
    1.4465    5.3675    1.4567 S   0  0  0  0  0  0  0  0  0  0  0  0
    3.2349    5.4754    1.8360 C   0  0  0  0  0  0  0  0  0  0  0  0
    3.9684    6.4311    0.8705 C   0  0  1  0  0  0  0  0  0  0  0  0
    3.5387    7.8648    1.0702 C   0  0  0  0  0  0  0  0  0  0  0  0
    3.7134    8.5209    2.3344 N   0  0  0  0  0  0  0  0  0  0  0  0
    3.0143    8.4971    0.1116 O   0  0  0  0  0  0  0  0  0  0  0  0
    5.4218    6.3066    1.0350 N   0  0  0  0  0  0  0  0  0  0  0  0
    6.1720    5.3425    0.2814 C   0  0  0  0  0  0  0  0  0  0  0  0
    5.6246    4.2604   -0.0791 O   0  0  0  0  0  0  0  0  0  0  0  0
    7.6173    5.5774   -0.0695 C   0  0  1  0  0  0  0  0  0  0  0  0
    7.8085    6.9558   -0.7110 C   0  0  0  0  0  0  0  0  0  0  0  0
    8.4530    5.4695    1.1338 N   0  0  0  0  0  0  0  0  0  0  0  0
    9.7168    4.7815    1.1855 C   0  0  0  0  0  0  0  0  0  0  0  0
   10.5854    5.1829    2.0139 O   0  0  0  0  0  0  0  0  0  0  0  0
   10.0513    3.6089    0.2748 C   0  0  1  0  0  0  0  0  0  0  0  0
   10.8061    4.1197   -0.9572 C   0  0  0  0  0  0  0  0  0  0  0  0
   10.8703    2.6053    0.9773 N   0  0  0  0  0  0  0  0  0  0  0  0
   11.1497    1.2803    0.4925 C   0  0  0  0  0  0  0  0  0  0  0  0
   12.0665    0.6219    1.0549 O   0  0  0  0  0  0  0  0  0  0  0  0
   10.3533    0.6143   -0.6172 C   0  0  1  0  0  0  0  0  0  0  0  0
   11.2763   -0.0536   -1.6413 C   0  0  0  0  0  0  0  0  0  0  0  0
    9.3897   -0.3459   -0.0640 N   0  0  0  0  0  0  0  0  0  0  0  0
    9.7440   -1.3500    0.8951 C   0  0  0  0  0  0  0  0  0  0  0  0
    9.4656   -1.1619    2.1108 O   0  0  0  0  0  0  0  0  0  0  0  0
   10.3250   -2.6661    0.4510 C   0  0  1  0  0  0  0  0  0  0  0  0
   11.4913   -3.0820    1.3374 C   0  0  0  0  0  0  0  0  0  0  0  0
    9.2818   -3.6892    0.4746 N   0  0  0  0  0  0  0  0  0  0  0  0
    8.9564   -4.4314   -0.7043 C   0  0  0  0  0  0  0  0  0  0  0  0
    9.7739   -5.2805   -1.1519 O   0  0  0  0  0  0  0  0  0  0  0  0
    7.6680   -4.1620   -1.4258 C   0  0  1  0  0  0  0  0  0  0  0  0
    7.9549   -3.5396   -2.7953 C   0  0  0  0  0  0  0  0  0  0  0  0
    6.9020   -5.4054   -1.5748 N   0  0  0  0  0  0  0  0  0  0  0  0
    5.5036   -5.4433   -1.2708 C   0  0  0  0  0  0  0  0  0  0  0  0
    4.7561   -4.5089   -1.6729 O   0  0  0  0  0  0  0  0  0  0  0  0
    4.9375   -6.5916   -0.4730 C   0  0  1  0  0  0  0  0  0  0  0  0
    5.6311   -6.6441    0.9015 C   0  0  0  0  0  0  0  0  0  0  0  0
    3.4708   -6.4625   -0.3713 N   0  0  0  0  0  0  0  0  0  0  0  0
    2.7477   -6.3387    0.8630 C   0  0  0  0  0  0  0  0  0  0  0  0
    2.8133   -7.2568    1.7259 O   0  0  0  0  0  0  0  0  0  0  0  0
    1.8082   -5.1760    1.0809 C   0  0  1  0  0  0  0  0  0  0  0  0
    1.8549   -4.6935    2.5351 C   0  0  0  0  0  0  0  0  0  0  0  0
    2.1631   -4.0531    0.2016 N   0  0  0  0  0  0  0  0  0  0  0  0
    1.2407   -3.4369   -0.7019 C   0  0  0  0  0  0  0  0  0  0  0  0
    1.6588   -3.0399   -1.8226 O   0  0  0  0  0  0  0  0  0  0  0  0
   -0.1846   -3.1615   -0.2951 C   0  0  1  0  0  0  0  0  0  0  0  0
   -0.4287   -1.6405   -0.2062 C   0  0  0  0  0  0  0  0  0  0  0  0
    0.4115   -0.9779    1.2862 S   0  0  0  0  0  0  0  0  0  0  0  0
   -0.7952    0.3387    1.6506 C   0  0  0  0  0  0  0  0  0  0  0  0
   -1.1221   -3.7709   -1.2473 N   0  0  0  0  0  0  0  0  0  0  0  0
   -2.4911   -4.0785   -0.9265 C   0  0  0  0  0  0  0  0  0  0  0  0
   -3.3602   -3.9165   -1.8262 O   0  0  0  0  0  0  0  0  0  0  0  0
   -2.9116   -4.4711    0.4774 C   0  0  1  0  0  0  0  0  0  0  0  0
   -3.3413   -3.2464    1.2861 C   0  0  0  0  0  0  0  0  0  0  0  0
   -3.9648   -5.5080    0.5245 N   0  0  0  0  0  0  0  0  0  0  0  0
   -5.2193   -5.4375   -0.1756 C   0  0  0  0  0  0  0  0  0  0  0  0
   -5.2556   -5.7108   -1.4056 O   0  0  0  0  0  0  0  0  0  0  0  0
   -6.5186   -5.1140    0.5308 C   0  0  1  0  0  0  0  0  0  0  0  0
   -6.5096   -5.4185    2.0296 C   0  0  0  0  0  0  0  0  0  0  0  0
   -6.8698   -3.7071    0.3199 N   0  0  0  0  0  0  0  0  0  0  0  0
   -7.6140   -3.2438   -0.8227 C   0  0  0  0  0  0  0  0  0  0  0  0
   -7.1291   -2.3132   -1.5263 O   0  0  0  0  0  0  0  0  0  0  0  0
   -8.9712   -3.7991   -1.1876 C   0  0  1  0  0  0  0  0  0  0  0  0
   -8.8577   -4.8998   -2.2493 C   0  0  0  0  0  0  0  0  0  0  0  0
   -9.6767   -4.2908    0.0040 N   0  0  0  0  0  0  0  0  0  0  0  0
  -10.6252   -3.5276    0.7715 C   0  0  0  0  0  0  0  0  0  0  0  0
  -11.3168   -4.1286    1.6415 O   0  0  0  0  0  0  0  0  0  0  0  0
  -10.8739   -2.0512    0.5206 C   0  0  1  0  0  0  0  0  0  0  0  0
  -12.0388   -1.9089   -0.4660 C   0  0  0  0  0  0  0  0  0  0  0  0
  -11.1820   -1.3438    1.7782 N   0  0  0  0  0  0  0  0  0  0  0  0
  -11.4486    0.0704    1.8782 C   0  0  0  0  0  0  0  0  0  0  0  0
  -12.1396    0.4845    2.8496 O   0  0  0  0  0  0  0  0  0  0  0  0
  -10.8657    1.0847    0.9153 C   0  0  1  0  0  0  0  0  0  0  0  0
  -11.9841    1.9575    0.3225 C   0  0  0  0  0  0  0  0  0  0  0  0
   -9.8955    1.9346    1.6195 N   0  0  0  0  0  0  0  0  0  0  0  0
   -9.0551    2.9130    0.9789 C   0  0  0  0  0  0  0  0  0  0  0  0
   -8.6615    3.9046    1.6450 O   0  0  0  0  0  0  0  0  0  0  0  0
   -8.5456    2.7416   -0.4411 C   0  0  1  0  0  0  0  0  0  0  0  0
   -8.7979    3.9971   -1.2740 C   0  0  0  0  0  0  0  0  0  0  0  0
   -7.1223    2.3791   -0.4284 N   0  0  0  0  0  0  0  0  0  0  0  0
   -6.0953    3.2294    0.1049 C   0  0  0  0  0  0  0  0  0  0  0  0
   -5.6231    2.9775    1.2503 O   0  0  0  0  0  0  0  0  0  0  0  0
   -5.5708    6.6447   -2.6133 H   0  0  0  0  0  0  0  0  0  0  0  0
   -6.4270    8.1489   -2.1129 H   0  0  0  0  0  0  0  0  0  0  0  0
   -7.2783    6.5774   -2.0082 H   0  0  0  0  0  0  0  0  0  0  0  0
   -5.0421    5.5605    0.9875 H   0  0  0  0  0  0  0  0  0  0  0  0
   -6.0997    4.4551   -1.6526 H   0  0  0  0  0  0  0  0  0  0  0  0
   -3.6256    4.8176   -1.7346 H   0  0  0  0  0  0  0  0  0  0  0  0
   -3.4380    3.8111   -0.2501 H   0  0  0  0  0  0  0  0  0  0  0  0
   -2.1004    3.3859   -3.2815 H   0  0  0  0  0  0  0  0  0  0  0  0
   -2.0714    1.5905   -3.2462 H   0  0  0  0  0  0  0  0  0  0  0  0
   -2.3198    0.7514   -0.5633 H   0  0  0  0  0  0  0  0  0  0  0  0
    1.0261    2.3521    1.5978 H   0  0  0  0  0  0  0  0  0  0  0  0
   -0.2592    4.2063   -2.0684 H   0  0  0  0  0  0  0  0  0  0  0  0
    1.6351    5.0938   -0.9508 H   0  0  0  0  0  0  0  0  0  0  0  0
    2.5647    3.8125   -0.0980 H   0  0  0  0  0  0  0  0  0  0  0  0
    3.3492    5.8262    2.8809 H   0  0  0  0  0  0  0  0  0  0  0  0
    3.6889    4.4620    1.7933 H   0  0  0  0  0  0  0  0  0  0  0  0
    3.7160    6.1485   -0.1741 H   0  0  0  0  0  0  0  0  0  0  0  0
    4.1270    8.0220    3.1566 H   0  0  0  0  0  0  0  0  0  0  0  0
    3.4476    9.5313    2.4418 H   0  0  0  0  0  0  0  0  0  0  0  0
    5.9397    7.0014    1.6191 H   0  0  0  0  0  0  0  0  0  0  0  0
    7.9182    4.8260   -0.8287 H   0  0  0  0  0  0  0  0  0  0  0  0
    8.8743    7.0939   -0.9938 H   0  0  0  0  0  0  0  0  0  0  0  0
    7.1895    7.0396   -1.6284 H   0  0  0  0  0  0  0  0  0  0  0  0
    7.5183    7.7708   -0.0150 H   0  0  0  0  0  0  0  0  0  0  0  0
    8.2330    6.1090    1.9276 H   0  0  0  0  0  0  0  0  0  0  0  0
    9.0936    3.1300   -0.0307 H   0  0  0  0  0  0  0  0  0  0  0  0
   10.1994    4.8683   -1.5128 H   0  0  0  0  0  0  0  0  0  0  0  0
   11.7694    4.5928   -0.6572 H   0  0  0  0  0  0  0  0  0  0  0  0
   11.0355    3.2862   -1.6561 H   0  0  0  0  0  0  0  0  0  0  0  0
   11.3614    2.8824    1.8568 H   0  0  0  0  0  0  0  0  0  0  0  0
    9.7752    1.3687   -1.1870 H   0  0  0  0  0  0  0  0  0  0  0  0
   11.8513    0.7209   -2.1914 H   0  0  0  0  0  0  0  0  0  0  0  0
   11.9987   -0.7416   -1.1527 H   0  0  0  0  0  0  0  0  0  0  0  0
   10.6717   -0.6328   -2.3778 H   0  0  0  0  0  0  0  0  0  0  0  0
    8.3806   -0.2146   -0.2770 H   0  0  0  0  0  0  0  0  0  0  0  0
   10.7056   -2.5611   -0.5907 H   0  0  0  0  0  0  0  0  0  0  0  0
   11.9721   -3.9901    0.9158 H   0  0  0  0  0  0  0  0  0  0  0  0
   12.2560   -2.2751    1.3725 H   0  0  0  0  0  0  0  0  0  0  0  0
   11.1505   -3.2925    2.3766 H   0  0  0  0  0  0  0  0  0  0  0  0
    8.7172   -3.8457    1.3464 H   0  0  0  0  0  0  0  0  0  0  0  0
    7.0760   -3.4242   -0.8361 H   0  0  0  0  0  0  0  0  0  0  0  0
    7.0013   -3.3130   -3.3206 H   0  0  0  0  0  0  0  0  0  0  0  0
    8.5600   -4.2299   -3.4234 H   0  0  0  0  0  0  0  0  0  0  0  0
    8.5123   -2.5831   -2.6619 H   0  0  0  0  0  0  0  0  0  0  0  0
    7.4041   -6.3072   -1.7420 H   0  0  0  0  0  0  0  0  0  0  0  0
    5.1657   -7.5425   -1.0158 H   0  0  0  0  0  0  0  0  0  0  0  0
    5.3958   -5.7324    1.4883 H   0  0  0  0  0  0  0  0  0  0  0  0
    5.3044   -7.5419    1.4642 H   0  0  0  0  0  0  0  0  0  0  0  0
    6.7303   -6.7170    0.7759 H   0  0  0  0  0  0  0  0  0  0  0  0
    2.9253   -6.3459   -1.2577 H   0  0  0  0  0  0  0  0  0  0  0  0
    0.7835   -5.5375    0.8570 H   0  0  0  0  0  0  0  0  0  0  0  0
    1.1958   -3.8092    2.6593 H   0  0  0  0  0  0  0  0  0  0  0  0
    1.4992   -5.4922    3.2192 H   0  0  0  0  0  0  0  0  0  0  0  0
    2.8910   -4.4061    2.8191 H   0  0  0  0  0  0  0  0  0  0  0  0
    3.1586   -3.7209    0.1998 H   0  0  0  0  0  0  0  0  0  0  0  0
   -0.3549   -3.5734    0.7132 H   0  0  0  0  0  0  0  0  0  0  0  0
   -1.5199   -1.4562   -0.1544 H   0  0  0  0  0  0  0  0  0  0  0  0
   -0.0454   -1.1192   -1.1053 H   0  0  0  0  0  0  0  0  0  0  0  0
   -0.5821    0.7263    2.6644 H   0  0  0  0  0  0  0  0  0  0  0  0
   -1.8277   -0.0695    1.6779 H   0  0  0  0  0  0  0  0  0  0  0  0
   -0.8803   -3.7150   -2.2642 H   0  0  0  0  0  0  0  0  0  0  0  0
   -2.0359   -4.9183    0.9888 H   0  0  0  0  0  0  0  0  0  0  0  0
   -3.8311   -3.5530    2.2366 H   0  0  0  0  0  0  0  0  0  0  0  0
   -4.0443   -2.6081    0.7020 H   0  0  0  0  0  0  0  0  0  0  0  0
   -2.4589   -2.6356    1.5667 H   0  0  0  0  0  0  0  0  0  0  0  0
   -3.9817   -6.0610    1.4032 H   0  0  0  0  0  0  0  0  0  0  0  0
   -7.2983   -5.7678    0.0939 H   0  0  0  0  0  0  0  0  0  0  0  0
   -7.5298   -5.2689    2.4467 H   0  0  0  0  0  0  0  0  0  0  0  0
   -6.2137   -6.4715    2.2104 H   0  0  0  0  0  0  0  0  0  0  0  0
   -5.8145   -4.7454    2.5725 H   0  0  0  0  0  0  0  0  0  0  0  0
   -6.2884   -2.9839    0.8130 H   0  0  0  0  0  0  0  0  0  0  0  0
   -9.5505   -2.9834   -1.6646 H   0  0  0  0  0  0  0  0  0  0  0  0
   -9.8721   -5.1833   -2.5991 H   0  0  0  0  0  0  0  0  0  0  0  0
   -8.3631   -5.8105   -1.8579 H   0  0  0  0  0  0  0  0  0  0  0  0
   -8.2788   -4.5342   -3.1276 H   0  0  0  0  0  0  0  0  0  0  0  0
   -9.5116   -5.2767    0.3091 H   0  0  0  0  0  0  0  0  0  0  0  0
   -9.9510   -1.6140    0.0888 H   0  0  0  0  0  0  0  0  0  0  0  0
  -12.1613   -0.8536   -0.7708 H   0  0  0  0  0  0  0  0  0  0  0  0
  -12.9845   -2.2601    0.0027 H   0  0  0  0  0  0  0  0  0  0  0  0
  -11.8537   -2.5026   -1.3829 H   0  0  0  0  0  0  0  0  0  0  0  0
  -11.3101   -1.8910    2.6629 H   0  0  0  0  0  0  0  0  0  0  0  0
  -10.3517    0.5521    0.0940 H   0  0  0  0  0  0  0  0  0  0  0  0
  -11.5788    2.6130   -0.4770 H   0  0  0  0  0  0  0  0  0  0  0  0
  -12.4342    2.6025    1.1107 H   0  0  0  0  0  0  0  0  0  0  0  0
  -12.7853    1.3295   -0.1166 H   0  0  0  0  0  0  0  0  0  0  0  0
   -9.9508    1.9931    2.6648 H   0  0  0  0  0  0  0  0  0  0  0  0
   -9.0883    1.9312   -0.9510 H   0  0  0  0  0  0  0  0  0  0  0  0
   -8.3600    3.8747   -2.2869 H   0  0  0  0  0  0  0  0  0  0  0  0
   -9.8878    4.1689   -1.3866 H   0  0  0  0  0  0  0  0  0  0  0  0
   -8.3542    4.8875   -0.7891 H   0  0  0  0  0  0  0  0  0  0  0  0
   -6.9033    1.3556   -0.4633 H   0  0  0  0  0  0  0  0  0  0  0  0
  1  2  1  0
  2  3  2  0
  2  4  1  0
  4  5  1  0
  5  6  1  0
  6  7  1  0
  7  8  1  0
  8  9  1  0
  9 10  2  0
 10 11  1  0
 11 12  2  0
 12 13  1  0
 13 14  2  0
 13 15  1  0
 15 16  1  0
 16 17  1  0
 17 18  1  0
 18 19  1  0
 19 20  1  0
 19 21  2  0
 18 22  1  0
 22 23  1  0
 23 24  2  0
 23 25  1  0
 25 26  1  0
 25 27  1  0
 27 28  1  0
 28 29  2  0
 28 30  1  0
 30 31  1  0
 30 32  1  0
 32 33  1  0
 33 34  2  0
 33 35  1  0
 35 36  1  0
 35 37  1  0
 37 38  1  0
 38 39  2  0
 38 40  1  0
 40 41  1  0
 40 42  1  0
 42 43  1  0
 43 44  2  0
 43 45  1  0
 45 46  1  0
 45 47  1  0
 47 48  1  0
 48 49  2  0
 48 50  1  0
 50 51  1  0
 50 52  1  0
 52 53  1  0
 53 54  2  0
 53 55  1  0
 55 56  1  0
 55 57  1  0
 57 58  1  0
 58 59  2  0
 58 60  1  0
 60 61  1  0
 61 62  1  0
 62 63  1  0
 60 64  1  0
 64 65  1  0
 65 66  2  0
 65 67  1  0
 67 68  1  0
 67 69  1  0
 69 70  1  0
 70 71  2  0
 70 72  1  0
 72 73  1  0
 72 74  1  0
 74 75  1  0
 75 76  2  0
 75 77  1  0
 77 78  1  0
 77 79  1  0
 79 80  1  0
 80 81  2  0
 80 82  1  0
 82 83  1  0
 82 84  1  0
 84 85  1  0
 85 86  2  0
 85 87  1  0
 87 88  1  0
 87 89  1  0
 89 90  1  0
 90 91  2  0
 90 92  1  0
 92 93  1  0
 92 94  1  0
 94 95  1  0
 95 96  2  0
 95  5  1  0
 14  9  1  0
 63 11  1  0
  1 97  1  0
  1 98  1  0
  1 99  1  0
  4100  1  0
  5101  1  6
  6102  1  0
  6103  1  0
  8104  1  0
  8105  1  0
 10106  1  0
 12107  1  0
 14108  1  0
 15109  1  0
 15110  1  0
 17111  1  0
 17112  1  0
 18113  1  6
 20114  1  0
 20115  1  0
 22116  1  0
 25117  1  6
 26118  1  0
 26119  1  0
 26120  1  0
 27121  1  0
 30122  1  6
 31123  1  0
 31124  1  0
 31125  1  0
 32126  1  0
 35127  1  6
 36128  1  0
 36129  1  0
 36130  1  0
 37131  1  0
 40132  1  6
 41133  1  0
 41134  1  0
 41135  1  0
 42136  1  0
 45137  1  1
 46138  1  0
 46139  1  0
 46140  1  0
 47141  1  0
 50142  1  6
 51143  1  0
 51144  1  0
 51145  1  0
 52146  1  0
 55147  1  6
 56148  1  0
 56149  1  0
 56150  1  0
 57151  1  0
 60152  1  1
 61153  1  0
 61154  1  0
 63155  1  0
 63156  1  0
 64157  1  0
 67158  1  1
 68159  1  0
 68160  1  0
 68161  1  0
 69162  1  0
 72163  1  6
 73164  1  0
 73165  1  0
 73166  1  0
 74167  1  0
 77168  1  6
 78169  1  0
 78170  1  0
 78171  1  0
 79172  1  0
 82173  1  6
 83174  1  0
 83175  1  0
 83176  1  0
 84177  1  0
 87178  1  6
 88179  1  0
 88180  1  0
 88181  1  0
 89182  1  0
 92183  1  6
 93184  1  0
 93185  1  0
 93186  1  0
 94187  1  0
M  END
