
     RDKit          3D

187189  0  0  0  0  0  0  0  0999 V2000
   -5.4986    9.0182    0.7898 C   0  0  0  0  0  0  0  0  0  0  0  0
   -5.9110    7.6317    0.4147 C   0  0  0  0  0  0  0  0  0  0  0  0
   -6.5966    7.4605   -0.6288 O   0  0  0  0  0  0  0  0  0  0  0  0
   -5.5525    6.5108    1.2506 N   0  0  0  0  0  0  0  0  0  0  0  0
   -5.7495    5.1061    0.8656 C   0  0  2  0  0  0  0  0  0  0  0  0
   -4.9328    4.7705   -0.4071 C   0  0  0  0  0  0  0  0  0  0  0  0
   -3.1956    5.3410   -0.2988 S   0  0  0  0  0  0  0  0  0  0  0  0
   -2.6064    4.0965    0.9067 C   0  0  0  0  0  0  0  0  0  0  0  0
   -1.4494    3.3298    0.3275 C   0  0  0  0  0  0  0  0  0  0  0  0
   -1.6786    2.3677   -0.6702 C   0  0  0  0  0  0  0  0  0  0  0  0
   -0.6078    1.6335   -1.2082 C   0  0  0  0  0  0  0  0  0  0  0  0
    0.6956    1.8602   -0.7329 C   0  0  0  0  0  0  0  0  0  0  0  0
    0.9357    2.8368    0.2445 C   0  0  0  0  0  0  0  0  0  0  0  0
   -0.1394    3.5665    0.7740 C   0  0  0  0  0  0  0  0  0  0  0  0
    2.3442    3.1634    0.6482 C   0  0  0  0  0  0  0  0  0  0  0  0
    3.0960    4.2201   -0.6409 S   0  0  0  0  0  0  0  0  0  0  0  0
    4.1788    5.1515    0.4971 C   0  0  0  0  0  0  0  0  0  0  0  0
    5.0308    6.1762   -0.2666 C   0  0  1  0  0  0  0  0  0  0  0  0
    4.1910    7.1369   -1.0693 C   0  0  0  0  0  0  0  0  0  0  0  0
    3.1868    7.9366   -0.4442 N   0  0  0  0  0  0  0  0  0  0  0  0
    4.3760    7.2376   -2.3109 O   0  0  0  0  0  0  0  0  0  0  0  0
    5.8592    6.9294    0.6738 N   0  0  0  0  0  0  0  0  0  0  0  0
    7.1879    7.3361    0.3296 C   0  0  0  0  0  0  0  0  0  0  0  0
    7.4006    8.5448    0.0367 O   0  0  0  0  0  0  0  0  0  0  0  0
    8.3511    6.3737    0.3754 C   0  0  1  0  0  0  0  0  0  0  0  0
    9.3161    6.7807    1.4950 C   0  0  0  0  0  0  0  0  0  0  0  0
    7.9120    4.9950    0.5988 N   0  0  0  0  0  0  0  0  0  0  0  0
    8.1043    3.9449   -0.3579 C   0  0  0  0  0  0  0  0  0  0  0  0
    7.0984    3.4419   -0.9282 O   0  0  0  0  0  0  0  0  0  0  0  0
    9.4594    3.3253   -0.5912 C   0  0  1  0  0  0  0  0  0  0  0  0
   10.4610    4.2995   -1.2191 C   0  0  0  0  0  0  0  0  0  0  0  0
    9.9897    2.8107    0.6761 N   0  0  0  0  0  0  0  0  0  0  0  0
   10.1917    1.4233    1.0064 C   0  0  0  0  0  0  0  0  0  0  0  0
   10.6639    1.1410    2.1392 O   0  0  0  0  0  0  0  0  0  0  0  0
    9.9353    0.3009    0.0199 C   0  0  1  0  0  0  0  0  0  0  0  0
   11.1202    0.2086   -0.9546 C   0  0  0  0  0  0  0  0  0  0  0  0
    9.6764   -0.9583    0.7442 N   0  0  0  0  0  0  0  0  0  0  0  0
   10.5382   -2.1040    0.7679 C   0  0  0  0  0  0  0  0  0  0  0  0
   11.1532   -2.3777    1.8337 O   0  0  0  0  0  0  0  0  0  0  0  0
   10.7100   -2.9818   -0.4542 C   0  0  1  0  0  0  0  0  0  0  0  0
   11.1946   -4.3986   -0.1129 C   0  0  0  0  0  0  0  0  0  0  0  0
    9.4903   -3.0065   -1.2793 N   0  0  0  0  0  0  0  0  0  0  0  0
    8.1623   -3.2627   -0.7914 C   0  0  0  0  0  0  0  0  0  0  0  0
    7.2489   -2.4346   -1.0614 O   0  0  0  0  0  0  0  0  0  0  0  0
    7.8263   -4.5024    0.0004 C   0  0  1  0  0  0  0  0  0  0  0  0
    7.7752   -4.2173    1.5097 C   0  0  0  0  0  0  0  0  0  0  0  0
    6.5781   -5.1180   -0.4761 N   0  0  0  0  0  0  0  0  0  0  0  0
    5.2531   -4.7123   -0.0806 C   0  0  0  0  0  0  0  0  0  0  0  0
    5.0557   -3.5397    0.3375 O   0  0  0  0  0  0  0  0  0  0  0  0
    4.0663   -5.6481   -0.2202 C   0  0  1  0  0  0  0  0  0  0  0  0
    4.4595   -7.1205   -0.0538 C   0  0  0  0  0  0  0  0  0  0  0  0
    3.0567   -5.3218    0.7997 N   0  0  0  0  0  0  0  0  0  0  0  0
    1.6298   -5.3490    0.5914 C   0  0  0  0  0  0  0  0  0  0  0  0
    0.8804   -5.0584    1.5615 O   0  0  0  0  0  0  0  0  0  0  0  0
    1.0199   -5.7131   -0.7451 C   0  0  1  0  0  0  0  0  0  0  0  0
   -0.4028   -6.2854   -0.6367 C   0  0  0  0  0  0  0  0  0  0  0  0
    1.0967   -4.5935   -1.6923 N   0  0  0  0  0  0  0  0  0  0  0  0
    0.6017   -3.2537   -1.4935 C   0  0  0  0  0  0  0  0  0  0  0  0
    1.2091   -2.3067   -2.0669 O   0  0  0  0  0  0  0  0  0  0  0  0
   -0.6919   -2.9720   -0.7441 C   0  0  1  0  0  0  0  0  0  0  0  0
   -0.9205   -1.4485   -0.5287 C   0  0  0  0  0  0  0  0  0  0  0  0
   -1.9808   -0.6843   -1.8265 S   0  0  0  0  0  0  0  0  0  0  0  0
   -0.8424    0.6551   -2.3266 C   0  0  0  0  0  0  0  0  0  0  0  0
   -1.8079   -3.5961   -1.4756 N   0  0  0  0  0  0  0  0  0  0  0  0
   -3.1482   -3.7771   -0.9928 C   0  0  0  0  0  0  0  0  0  0  0  0
   -4.0222   -4.1558   -1.8153 O   0  0  0  0  0  0  0  0  0  0  0  0
   -3.5427   -3.5542    0.4564 C   0  0  1  0  0  0  0  0  0  0  0  0
   -4.8748   -2.8004    0.5986 C   0  0  0  0  0  0  0  0  0  0  0  0
   -3.5212   -4.7998    1.2356 N   0  0  0  0  0  0  0  0  0  0  0  0
   -4.1095   -6.0715    0.9047 C   0  0  0  0  0  0  0  0  0  0  0  0
   -3.5848   -7.1115    1.3897 O   0  0  0  0  0  0  0  0  0  0  0  0
   -5.3785   -6.2283    0.0957 C   0  0  1  0  0  0  0  0  0  0  0  0
   -5.1686   -7.2672   -1.0135 C   0  0  0  0  0  0  0  0  0  0  0  0
   -6.4615   -6.6638    0.9815 N   0  0  0  0  0  0  0  0  0  0  0  0
   -7.6212   -5.8790    1.3207 C   0  0  0  0  0  0  0  0  0  0  0  0
   -8.1358   -6.0434    2.4618 O   0  0  0  0  0  0  0  0  0  0  0  0
   -8.2746   -4.9195    0.3426 C   0  0  1  0  0  0  0  0  0  0  0  0
   -8.8446   -5.6763   -0.8563 C   0  0  0  0  0  0  0  0  0  0  0  0
   -9.3623   -4.1753    0.9999 N   0  0  0  0  0  0  0  0  0  0  0  0
   -9.7142   -2.7916    0.7791 C   0  0  0  0  0  0  0  0  0  0  0  0
  -10.8868   -2.4346    1.0548 O   0  0  0  0  0  0  0  0  0  0  0  0
   -8.7695   -1.7645    0.1833 C   0  0  1  0  0  0  0  0  0  0  0  0
   -9.1780   -1.4056   -1.2496 C   0  0  0  0  0  0  0  0  0  0  0  0
   -8.6589   -0.5722    1.0354 N   0  0  0  0  0  0  0  0  0  0  0  0
   -9.7596    0.2033    1.5303 C   0  0  0  0  0  0  0  0  0  0  0  0
   -9.9883    0.2090    2.7704 O   0  0  0  0  0  0  0  0  0  0  0  0
  -10.5812    1.0819    0.6239 C   0  0  1  0  0  0  0  0  0  0  0  0
  -12.0521    0.6604    0.6420 C   0  0  0  0  0  0  0  0  0  0  0  0
  -10.4728    2.4783    1.0650 N   0  0  0  0  0  0  0  0  0  0  0  0
  -10.0807    3.5599    0.2107 C   0  0  0  0  0  0  0  0  0  0  0  0
  -10.6831    4.6624    0.3167 O   0  0  0  0  0  0  0  0  0  0  0  0
   -8.8875    3.4483   -0.7132 C   0  0  1  0  0  0  0  0  0  0  0  0
   -8.9291    4.4760   -1.8530 C   0  0  0  0  0  0  0  0  0  0  0  0
   -7.6372    3.5706    0.0439 N   0  0  0  0  0  0  0  0  0  0  0  0
   -7.2189    4.7915    0.6816 C   0  0  0  0  0  0  0  0  0  0  0  0
   -8.0867    5.5878    1.1401 O   0  0  0  0  0  0  0  0  0  0  0  0
   -6.3972    9.6640    0.8921 H   0  0  0  0  0  0  0  0  0  0  0  0
   -4.9391    9.0253    1.7470 H   0  0  0  0  0  0  0  0  0  0  0  0
   -4.8500    9.4302   -0.0080 H   0  0  0  0  0  0  0  0  0  0  0  0
   -5.0780    6.7037    2.1648 H   0  0  0  0  0  0  0  0  0  0  0  0
   -5.3879    4.4592    1.6909 H   0  0  0  0  0  0  0  0  0  0  0  0
   -5.3961    5.2529   -1.2921 H   0  0  0  0  0  0  0  0  0  0  0  0
   -4.9362    3.6791   -0.5948 H   0  0  0  0  0  0  0  0  0  0  0  0
   -2.2881    4.6547    1.8137 H   0  0  0  0  0  0  0  0  0  0  0  0
   -3.3999    3.3868    1.2235 H   0  0  0  0  0  0  0  0  0  0  0  0
   -2.6803    2.1985   -1.0329 H   0  0  0  0  0  0  0  0  0  0  0  0
    1.5280    1.3083   -1.1528 H   0  0  0  0  0  0  0  0  0  0  0  0
    0.0441    4.3348    1.5165 H   0  0  0  0  0  0  0  0  0  0  0  0
    2.3468    3.6673    1.6385 H   0  0  0  0  0  0  0  0  0  0  0  0
    2.9448    2.2321    0.7424 H   0  0  0  0  0  0  0  0  0  0  0  0
    3.5557    5.6686    1.2563 H   0  0  0  0  0  0  0  0  0  0  0  0
    4.8474    4.4374    1.0217 H   0  0  0  0  0  0  0  0  0  0  0  0
    5.6900    5.6209   -0.9688 H   0  0  0  0  0  0  0  0  0  0  0  0
    3.0184    7.8850    0.5842 H   0  0  0  0  0  0  0  0  0  0  0  0
    2.6172    8.6010   -1.0123 H   0  0  0  0  0  0  0  0  0  0  0  0
    5.3723    7.4730    1.4247 H   0  0  0  0  0  0  0  0  0  0  0  0
    8.8801    6.4534   -0.5981 H   0  0  0  0  0  0  0  0  0  0  0  0
   10.1605    6.0652    1.5605 H   0  0  0  0  0  0  0  0  0  0  0  0
    8.7838    6.7901    2.4720 H   0  0  0  0  0  0  0  0  0  0  0  0
    9.7330    7.7910    1.2939 H   0  0  0  0  0  0  0  0  0  0  0  0
    7.3037    4.7893    1.4262 H   0  0  0  0  0  0  0  0  0  0  0  0
    9.3350    2.5163   -1.3340 H   0  0  0  0  0  0  0  0  0  0  0  0
   11.3664    3.7444   -1.5410 H   0  0  0  0  0  0  0  0  0  0  0  0
   10.7839    5.0725   -0.4921 H   0  0  0  0  0  0  0  0  0  0  0  0
   10.0155    4.7884   -2.1134 H   0  0  0  0  0  0  0  0  0  0  0  0
   10.2210    3.5105    1.4182 H   0  0  0  0  0  0  0  0  0  0  0  0
    9.0177    0.5253   -0.5580 H   0  0  0  0  0  0  0  0  0  0  0  0
   11.3510    1.2043   -1.3867 H   0  0  0  0  0  0  0  0  0  0  0  0
   10.8599   -0.4550   -1.8035 H   0  0  0  0  0  0  0  0  0  0  0  0
   12.0312   -0.1573   -0.4373 H   0  0  0  0  0  0  0  0  0  0  0  0
    8.8785   -0.9615    1.4164 H   0  0  0  0  0  0  0  0  0  0  0  0
   11.5259   -2.5378   -1.0665 H   0  0  0  0  0  0  0  0  0  0  0  0
   10.6347   -4.8346    0.7404 H   0  0  0  0  0  0  0  0  0  0  0  0
   12.2660   -4.3668    0.1801 H   0  0  0  0  0  0  0  0  0  0  0  0
   11.0993   -5.0628   -0.9972 H   0  0  0  0  0  0  0  0  0  0  0  0
    9.5507   -2.5378   -2.2117 H   0  0  0  0  0  0  0  0  0  0  0  0
    8.6288   -5.2436   -0.1705 H   0  0  0  0  0  0  0  0  0  0  0  0
    7.1030   -3.3659    1.7397 H   0  0  0  0  0  0  0  0  0  0  0  0
    7.4136   -5.1240    2.0480 H   0  0  0  0  0  0  0  0  0  0  0  0
    8.7822   -3.9673    1.8963 H   0  0  0  0  0  0  0  0  0  0  0  0
    6.6786   -5.9574   -1.0884 H   0  0  0  0  0  0  0  0  0  0  0  0
    3.6545   -5.4979   -1.2389 H   0  0  0  0  0  0  0  0  0  0  0  0
    3.5469   -7.7469    0.0469 H   0  0  0  0  0  0  0  0  0  0  0  0
    5.0065   -7.4866   -0.9473 H   0  0  0  0  0  0  0  0  0  0  0  0
    5.0865   -7.2653    0.8533 H   0  0  0  0  0  0  0  0  0  0  0  0
    3.3892   -5.1730    1.7810 H   0  0  0  0  0  0  0  0  0  0  0  0
    1.6201   -6.5500   -1.1651 H   0  0  0  0  0  0  0  0  0  0  0  0
   -1.0622   -5.6546   -0.0095 H   0  0  0  0  0  0  0  0  0  0  0  0
   -0.8472   -6.3914   -1.6479 H   0  0  0  0  0  0  0  0  0  0  0  0
   -0.3655   -7.2903   -0.1612 H   0  0  0  0  0  0  0  0  0  0  0  0
    1.7184   -4.7322   -2.5223 H   0  0  0  0  0  0  0  0  0  0  0  0
   -0.6013   -3.4395    0.2531 H   0  0  0  0  0  0  0  0  0  0  0  0
   -1.4235   -1.2789    0.4447 H   0  0  0  0  0  0  0  0  0  0  0  0
    0.0538   -0.9221   -0.4220 H   0  0  0  0  0  0  0  0  0  0  0  0
   -1.2980    1.1922   -3.1857 H   0  0  0  0  0  0  0  0  0  0  0  0
    0.1103    0.2082   -2.6836 H   0  0  0  0  0  0  0  0  0  0  0  0
   -1.6385   -3.8761   -2.4713 H   0  0  0  0  0  0  0  0  0  0  0  0
   -2.7998   -2.8893    0.9277 H   0  0  0  0  0  0  0  0  0  0  0  0
   -5.5940   -3.0838   -0.1877 H   0  0  0  0  0  0  0  0  0  0  0  0
   -5.3290   -2.9840    1.5953 H   0  0  0  0  0  0  0  0  0  0  0  0
   -4.7001   -1.7075    0.4920 H   0  0  0  0  0  0  0  0  0  0  0  0
   -2.8734   -4.8063    2.0582 H   0  0  0  0  0  0  0  0  0  0  0  0
   -5.6383   -5.2824   -0.3939 H   0  0  0  0  0  0  0  0  0  0  0  0
   -4.9654   -8.2713   -0.5818 H   0  0  0  0  0  0  0  0  0  0  0  0
   -4.3161   -6.9723   -1.6607 H   0  0  0  0  0  0  0  0  0  0  0  0
   -6.0768   -7.3413   -1.6485 H   0  0  0  0  0  0  0  0  0  0  0  0
   -6.3017   -7.5346    1.5362 H   0  0  0  0  0  0  0  0  0  0  0  0
   -7.5130   -4.2331   -0.0331 H   0  0  0  0  0  0  0  0  0  0  0  0
   -9.3887   -4.9693   -1.5224 H   0  0  0  0  0  0  0  0  0  0  0  0
   -8.0273   -6.1383   -1.4484 H   0  0  0  0  0  0  0  0  0  0  0  0
   -9.5511   -6.4665   -0.5251 H   0  0  0  0  0  0  0  0  0  0  0  0
  -10.0889   -4.7501    1.4839 H   0  0  0  0  0  0  0  0  0  0  0  0
   -7.7501   -2.1782    0.1137 H   0  0  0  0  0  0  0  0  0  0  0  0
   -9.0197   -2.2828   -1.9124 H   0  0  0  0  0  0  0  0  0  0  0  0
  -10.2480   -1.1239   -1.3036 H   0  0  0  0  0  0  0  0  0  0  0  0
   -8.5505   -0.5706   -1.6239 H   0  0  0  0  0  0  0  0  0  0  0  0
   -7.7341   -0.4118    1.5054 H   0  0  0  0  0  0  0  0  0  0  0  0
  -10.2269    0.9805   -0.4161 H   0  0  0  0  0  0  0  0  0  0  0  0
  -12.4709    0.7360    1.6690 H   0  0  0  0  0  0  0  0  0  0  0  0
  -12.6384    1.3212   -0.0304 H   0  0  0  0  0  0  0  0  0  0  0  0
  -12.1637   -0.3802    0.2798 H   0  0  0  0  0  0  0  0  0  0  0  0
  -10.8944    2.7284    1.9891 H   0  0  0  0  0  0  0  0  0  0  0  0
   -8.8895    2.4562   -1.2061 H   0  0  0  0  0  0  0  0  0  0  0  0
   -8.9075    5.5152   -1.4609 H   0  0  0  0  0  0  0  0  0  0  0  0
   -8.0525    4.3366   -2.5225 H   0  0  0  0  0  0  0  0  0  0  0  0
   -9.8547    4.3406   -2.4563 H   0  0  0  0  0  0  0  0  0  0  0  0
   -6.9695    2.7689    0.0089 H   0  0  0  0  0  0  0  0  0  0  0  0
  1  2  1  0
  2  3  2  0
  2  4  1  0
  4  5  1  0
  5  6  1  0
  6  7  1  0
  7  8  1  0
  8  9  1  0
  9 10  2  0
 10 11  1  0
 11 12  2  0
 12 13  1  0
 13 14  2  0
 13 15  1  0
 15 16  1  0
 16 17  1  0
 17 18  1  0
 18 19  1  0
 19 20  1  0
 19 21  2  0
 18 22  1  0
 22 23  1  0
 23 24  2  0
 23 25  1  0
 25 26  1  0
 25 27  1  0
 27 28  1  0
 28 29  2  0
 28 30  1  0
 30 31  1  0
 30 32  1  0
 32 33  1  0
 33 34  2  0
 33 35  1  0
 35 36  1  0
 35 37  1  0
 37 38  1  0
 38 39  2  0
 38 40  1  0
 40 41  1  0
 40 42  1  0
 42 43  1  0
 43 44  2  0
 43 45  1  0
 45 46  1  0
 45 47  1  0
 47 48  1  0
 48 49  2  0
 48 50  1  0
 50 51  1  0
 50 52  1  0
 52 53  1  0
 53 54  2  0
 53 55  1  0
 55 56  1  0
 55 57  1  0
 57 58  1  0
 58 59  2  0
 58 60  1  0
 60 61  1  0
 61 62  1  0
 62 63  1  0
 60 64  1  0
 64 65  1  0
 65 66  2  0
 65 67  1  0
 67 68  1  0
 67 69  1  0
 69 70  1  0
 70 71  2  0
 70 72  1  0
 72 73  1  0
 72 74  1  0
 74 75  1  0
 75 76  2  0
 75 77  1  0
 77 78  1  0
 77 79  1  0
 79 80  1  0
 80 81  2  0
 80 82  1  0
 82 83  1  0
 82 84  1  0
 84 85  1  0
 85 86  2  0
 85 87  1  0
 87 88  1  0
 87 89  1  0
 89 90  1  0
 90 91  2  0
 90 92  1  0
 92 93  1  0
 92 94  1  0
 94 95  1  0
 95 96  2  0
 95  5  1  0
 14  9  1  0
 63 11  1  0
  1 97  1  0
  1 98  1  0
  1 99  1  0
  4100  1  0
  5101  1  1
  6102  1  0
  6103  1  0
  8104  1  0
  8105  1  0
 10106  1  0
 12107  1  0
 14108  1  0
 15109  1  0
 15110  1  0
 17111  1  0
 17112  1  0
 18113  1  6
 20114  1  0
 20115  1  0
 22116  1  0
 25117  1  6
 26118  1  0
 26119  1  0
 26120  1  0
 27121  1  0
 30122  1  6
 31123  1  0
 31124  1  0
 31125  1  0
 32126  1  0
 35127  1  6
 36128  1  0
 36129  1  0
 36130  1  0
 37131  1  0
 40132  1  6
 41133  1  0
 41134  1  0
 41135  1  0
 42136  1  0
 45137  1  1
 46138  1  0
 46139  1  0
 46140  1  0
 47141  1  0
 50142  1  6
 51143  1  0
 51144  1  0
 51145  1  0
 52146  1  0
 55147  1  6
 56148  1  0
 56149  1  0
 56150  1  0
 57151  1  0
 60152  1  1
 61153  1  0
 61154  1  0
 63155  1  0
 63156  1  0
 64157  1  0
 67158  1  1
 68159  1  0
 68160  1  0
 68161  1  0
 69162  1  0
 72163  1  6
 73164  1  0
 73165  1  0
 73166  1  0
 74167  1  0
 77168  1  6
 78169  1  0
 78170  1  0
 78171  1  0
 79172  1  0
 82173  1  6
 83174  1  0
 83175  1  0
 83176  1  0
 84177  1  0
 87178  1  6
 88179  1  0
 88180  1  0
 88181  1  0
 89182  1  0
 92183  1  6
 93184  1  0
 93185  1  0
 93186  1  0
 94187  1  0
M  END
