
     RDKit          3D

177179  0  0  0  0  0  0  0  0999 V2000
    5.2397    8.2510   -1.0679 C   0  0  0  0  0  0  0  0  0  0  0  0
    5.0688    7.2180   -2.1401 C   0  0  0  0  0  0  0  0  0  0  0  0
    5.2743    7.5770   -3.3317 O   0  0  0  0  0  0  0  0  0  0  0  0
    4.7047    5.8448   -1.8868 N   0  0  0  0  0  0  0  0  0  0  0  0
    4.5053    5.2046   -0.5782 C   0  0  2  0  0  0  0  0  0  0  0  0
    3.1795    5.6626    0.0690 C   0  0  0  0  0  0  0  0  0  0  0  0
    1.7379    5.3151   -1.0063 S   0  0  0  0  0  0  0  0  0  0  0  0
    1.7305    3.4961   -0.7821 C   0  0  0  0  0  0  0  0  0  0  0  0
    0.3491    3.0056   -0.4555 C   0  0  0  0  0  0  0  0  0  0  0  0
   -0.2898    2.0773   -1.2915 C   0  0  0  0  0  0  0  0  0  0  0  0
   -1.5025    1.4878   -0.9027 C   0  0  0  0  0  0  0  0  0  0  0  0
   -2.0978    1.8689    0.3128 C   0  0  0  0  0  0  0  0  0  0  0  0
   -1.5058    2.8575    1.1187 C   0  0  0  0  0  0  0  0  0  0  0  0
   -0.2703    3.4033    0.7392 C   0  0  0  0  0  0  0  0  0  0  0  0
   -2.1273    3.2855    2.4297 C   0  0  0  0  0  0  0  0  0  0  0  0
   -3.9450    3.5028    2.3532 S   0  0  0  0  0  0  0  0  0  0  0  0
   -3.9610    4.7180    0.9871 C   0  0  0  0  0  0  0  0  0  0  0  0
   -5.3608    5.3391    0.8385 C   0  0  1  0  0  0  0  0  0  0  0  0
   -5.5748    6.4566    1.8266 C   0  0  0  0  0  0  0  0  0  0  0  0
   -6.6072    6.3702    2.8092 N   0  0  0  0  0  0  0  0  0  0  0  0
   -4.8677    7.5010    1.7586 O   0  0  0  0  0  0  0  0  0  0  0  0
   -5.5327    5.8547   -0.5246 N   0  0  0  0  0  0  0  0  0  0  0  0
   -6.6769    5.6412   -1.3802 C   0  0  0  0  0  0  0  0  0  0  0  0
   -6.7376    6.2903   -2.4618 O   0  0  0  0  0  0  0  0  0  0  0  0
   -7.8492    4.7587   -1.0010 C   0  0  1  0  0  0  0  0  0  0  0  0
   -8.9041    5.5900   -0.2674 C   0  0  0  0  0  0  0  0  0  0  0  0
   -8.4405    4.1536   -2.2009 N   0  0  0  0  0  0  0  0  0  0  0  0
   -8.6867    2.7434   -2.3255 C   0  0  0  0  0  0  0  0  0  0  0  0
   -8.5162    2.1876   -3.4439 O   0  0  0  0  0  0  0  0  0  0  0  0
   -9.1857    1.9268   -1.1592 C   0  0  1  0  0  0  0  0  0  0  0  0
  -10.4734    1.1733   -1.5372 C   0  0  0  0  0  0  0  0  0  0  0  0
   -8.1242    1.0433   -0.6667 N   0  0  0  0  0  0  0  0  0  0  0  0
   -8.1512   -0.3864   -0.7808 C   0  0  0  0  0  0  0  0  0  0  0  0
   -8.1130   -0.9129   -1.9254 O   0  0  0  0  0  0  0  0  0  0  0  0
   -8.1911   -1.2758    0.4410 C   0  0  1  0  0  0  0  0  0  0  0  0
   -8.5726   -0.4997    1.7070 C   0  0  0  0  0  0  0  0  0  0  0  0
   -9.1798   -2.3399    0.2215 N   0  0  0  0  0  0  0  0  0  0  0  0
   -8.9359   -3.7605    0.2305 C   0  0  0  0  0  0  0  0  0  0  0  0
   -9.8289   -4.5183   -0.2405 O   0  0  0  0  0  0  0  0  0  0  0  0
   -7.7145   -4.3873    0.8686 C   0  0  1  0  0  0  0  0  0  0  0  0
   -7.9191   -4.5208    2.3763 C   0  0  0  0  0  0  0  0  0  0  0  0
   -7.4692   -5.7165    0.2929 N   0  0  0  0  0  0  0  0  0  0  0  0
   -6.3357   -6.1107   -0.5070 C   0  0  0  0  0  0  0  0  0  0  0  0
   -6.3045   -7.2879   -0.9577 O   0  0  0  0  0  0  0  0  0  0  0  0
   -5.1816   -5.1917   -0.8528 C   0  0  1  0  0  0  0  0  0  0  0  0
   -5.6098   -4.1133   -1.8586 C   0  0  0  0  0  0  0  0  0  0  0  0
   -4.5803   -4.6196    0.3556 N   0  0  0  0  0  0  0  0  0  0  0  0
   -3.4714   -3.7189    0.2932 C   0  0  0  0  0  0  0  0  0  0  0  0
   -3.6853   -2.4959    0.0795 O   0  0  0  0  0  0  0  0  0  0  0  0
   -2.0568   -4.2180    0.3989 C   0  0  1  0  0  0  0  0  0  0  0  0
   -1.9523   -5.5008    1.2309 C   0  0  0  0  0  0  0  0  0  0  0  0
   -1.5332   -4.4663   -0.9468 N   0  0  0  0  0  0  0  0  0  0  0  0
   -0.4317   -3.7909   -1.5868 C   0  0  0  0  0  0  0  0  0  0  0  0
   -0.1378   -4.1229   -2.7675 O   0  0  0  0  0  0  0  0  0  0  0  0
    0.3760   -2.6782   -0.9488 C   0  0  1  0  0  0  0  0  0  0  0  0
   -0.4368   -1.3768   -0.8138 C   0  0  0  0  0  0  0  0  0  0  0  0
   -1.0456   -0.7984   -2.4395 S   0  0  0  0  0  0  0  0  0  0  0  0
   -2.1861    0.4885   -1.8025 C   0  0  0  0  0  0  0  0  0  0  0  0
    0.9365   -3.0831    0.3463 N   0  0  0  0  0  0  0  0  0  0  0  0
    1.7323   -4.2571    0.5774 C   0  0  0  0  0  0  0  0  0  0  0  0
    1.6855   -4.7884    1.7185 O   0  0  0  0  0  0  0  0  0  0  0  0
    2.5948   -4.8912   -0.4979 C   0  0  1  0  0  0  0  0  0  0  0  0
    3.6180   -3.9210   -1.1097 C   0  0  0  0  0  0  0  0  0  0  0  0
    3.2081   -6.1394   -0.0050 N   0  0  0  0  0  0  0  0  0  0  0  0
    4.5411   -6.3702    0.5139 C   0  0  0  0  0  0  0  0  0  0  0  0
    4.9976   -7.5460    0.4478 O   0  0  0  0  0  0  0  0  0  0  0  0
    5.4002   -5.3038    1.1739 C   0  0  1  0  0  0  0  0  0  0  0  0
    4.7025   -4.6695    2.3833 C   0  0  0  0  0  0  0  0  0  0  0  0
    6.6723   -5.8814    1.6266 N   0  0  0  0  0  0  0  0  0  0  0  0
    7.9757   -5.3907    1.2632 C   0  0  0  0  0  0  0  0  0  0  0  0
    8.9143   -5.5124    2.0979 O   0  0  0  0  0  0  0  0  0  0  0  0
    8.2930   -4.7781   -0.0856 C   0  0  1  0  0  0  0  0  0  0  0  0
    7.8641   -5.7018   -1.2305 C   0  0  0  0  0  0  0  0  0  0  0  0
    7.7067   -3.4407   -0.2358 N   0  0  0  0  0  0  0  0  0  0  0  0
    7.8086   -2.4321    0.7744 C   0  0  0  0  0  0  0  0  0  0  0  0
    6.8566   -2.2830    1.5871 O   0  0  0  0  0  0  0  0  0  0  0  0
    8.9937   -1.5034    0.8503 C   0  0  1  0  0  0  0  0  0  0  0  0
   10.2414   -2.2267    1.3533 C   0  0  0  0  0  0  0  0  0  0  0  0
    9.2620   -0.9064   -0.4643 N   0  0  0  0  0  0  0  0  0  0  0  0
    9.6636    0.4562   -0.6892 C   0  0  0  0  0  0  0  0  0  0  0  0
    9.8981    0.8241   -1.8716 O   0  0  0  0  0  0  0  0  0  0  0  0
    9.7548    1.4758    0.4309 C   0  0  1  0  0  0  0  0  0  0  0  0
   10.8184    2.5456    0.1349 C   0  0  0  0  0  0  0  0  0  0  0  0
    8.4180    2.0400    0.6804 N   0  0  0  0  0  0  0  0  0  0  0  0
    8.1241    3.4394    0.7304 C   0  0  0  0  0  0  0  0  0  0  0  0
    8.1586    4.0311    1.8440 O   0  0  0  0  0  0  0  0  0  0  0  0
    7.8275    4.2202   -0.5301 C   0  0  1  0  0  0  0  0  0  0  0  0
    7.1451    3.3544   -1.5966 C   0  0  0  0  0  0  0  0  0  0  0  0
    7.0363    5.4190   -0.2357 N   0  0  0  0  0  0  0  0  0  0  0  0
    5.7134    5.3846    0.3168 C   0  0  0  0  0  0  0  0  0  0  0  0
    5.5637    5.5597    1.5570 O   0  0  0  0  0  0  0  0  0  0  0  0
    4.5109    9.0739   -1.2354 H   0  0  0  0  0  0  0  0  0  0  0  0
    5.0936    7.8663   -0.0448 H   0  0  0  0  0  0  0  0  0  0  0  0
    6.2664    8.6722   -1.1282 H   0  0  0  0  0  0  0  0  0  0  0  0
    4.6448    5.2190   -2.7206 H   0  0  0  0  0  0  0  0  0  0  0  0
    4.4196    4.1130   -0.7474 H   0  0  0  0  0  0  0  0  0  0  0  0
    3.0295    5.1559    1.0471 H   0  0  0  0  0  0  0  0  0  0  0  0
    3.1921    6.7503    0.2638 H   0  0  0  0  0  0  0  0  0  0  0  0
    2.1079    3.0390   -1.7208 H   0  0  0  0  0  0  0  0  0  0  0  0
    2.4094    3.1707    0.0360 H   0  0  0  0  0  0  0  0  0  0  0  0
    0.1694    1.7935   -2.2296 H   0  0  0  0  0  0  0  0  0  0  0  0
   -3.0304    1.4119    0.6194 H   0  0  0  0  0  0  0  0  0  0  0  0
    0.2229    4.1350    1.3780 H   0  0  0  0  0  0  0  0  0  0  0  0
   -1.6859    4.2453    2.7780 H   0  0  0  0  0  0  0  0  0  0  0  0
   -1.9014    2.5169    3.2020 H   0  0  0  0  0  0  0  0  0  0  0  0
   -3.1927    5.5059    1.1518 H   0  0  0  0  0  0  0  0  0  0  0  0
   -3.7044    4.1810    0.0482 H   0  0  0  0  0  0  0  0  0  0  0  0
   -6.0971    4.5480    1.0529 H   0  0  0  0  0  0  0  0  0  0  0  0
   -7.2207    5.5276    2.8699 H   0  0  0  0  0  0  0  0  0  0  0  0
   -6.7808    7.1657    3.4600 H   0  0  0  0  0  0  0  0  0  0  0  0
   -4.7992    6.5093   -0.8844 H   0  0  0  0  0  0  0  0  0  0  0  0
   -7.5127    3.9433   -0.3377 H   0  0  0  0  0  0  0  0  0  0  0  0
   -9.7741    4.9579    0.0083 H   0  0  0  0  0  0  0  0  0  0  0  0
   -9.2605    6.4208   -0.9120 H   0  0  0  0  0  0  0  0  0  0  0  0
   -8.4788    6.0172    0.6635 H   0  0  0  0  0  0  0  0  0  0  0  0
   -8.6619    4.7570   -3.0225 H   0  0  0  0  0  0  0  0  0  0  0  0
   -9.4709    2.6070   -0.3295 H   0  0  0  0  0  0  0  0  0  0  0  0
  -10.8452    0.5922   -0.6633 H   0  0  0  0  0  0  0  0  0  0  0  0
  -10.3010    0.4765   -2.3848 H   0  0  0  0  0  0  0  0  0  0  0  0
  -11.2624    1.8972   -1.8281 H   0  0  0  0  0  0  0  0  0  0  0  0
   -7.3686    1.4674   -0.0800 H   0  0  0  0  0  0  0  0  0  0  0  0
   -7.1737   -1.6778    0.5841 H   0  0  0  0  0  0  0  0  0  0  0  0
   -7.7748    0.2259    1.9726 H   0  0  0  0  0  0  0  0  0  0  0  0
   -8.6962   -1.1998    2.5598 H   0  0  0  0  0  0  0  0  0  0  0  0
   -9.5298    0.0436    1.5582 H   0  0  0  0  0  0  0  0  0  0  0  0
  -10.1507   -2.0348   -0.0225 H   0  0  0  0  0  0  0  0  0  0  0  0
   -6.8387   -3.7474    0.7158 H   0  0  0  0  0  0  0  0  0  0  0  0
   -8.8282   -5.1193    2.5974 H   0  0  0  0  0  0  0  0  0  0  0  0
   -7.0429   -5.0327    2.8330 H   0  0  0  0  0  0  0  0  0  0  0  0
   -8.0212   -3.5200    2.8463 H   0  0  0  0  0  0  0  0  0  0  0  0
   -8.1890   -6.4539    0.4739 H   0  0  0  0  0  0  0  0  0  0  0  0
   -4.3996   -5.8049   -1.3562 H   0  0  0  0  0  0  0  0  0  0  0  0
   -4.7155   -3.5834   -2.2494 H   0  0  0  0  0  0  0  0  0  0  0  0
   -6.2882   -3.3610   -1.4083 H   0  0  0  0  0  0  0  0  0  0  0  0
   -6.1248   -4.5812   -2.7260 H   0  0  0  0  0  0  0  0  0  0  0  0
   -4.8129   -5.0302    1.2908 H   0  0  0  0  0  0  0  0  0  0  0  0
   -1.4652   -3.4525    0.9317 H   0  0  0  0  0  0  0  0  0  0  0  0
   -2.3426   -5.3291    2.2579 H   0  0  0  0  0  0  0  0  0  0  0  0
   -2.5266   -6.3262    0.7549 H   0  0  0  0  0  0  0  0  0  0  0  0
   -0.8900   -5.8157    1.3063 H   0  0  0  0  0  0  0  0  0  0  0  0
   -2.0199   -5.2000   -1.5145 H   0  0  0  0  0  0  0  0  0  0  0  0
    1.2167   -2.4278   -1.6238 H   0  0  0  0  0  0  0  0  0  0  0  0
   -1.2871   -1.5005   -0.1206 H   0  0  0  0  0  0  0  0  0  0  0  0
    0.2285   -0.5944   -0.3923 H   0  0  0  0  0  0  0  0  0  0  0  0
   -2.6109    1.0342   -2.6675 H   0  0  0  0  0  0  0  0  0  0  0  0
   -3.0314   -0.0121   -1.2792 H   0  0  0  0  0  0  0  0  0  0  0  0
    0.6791   -2.5279    1.1942 H   0  0  0  0  0  0  0  0  0  0  0  0
    1.9140   -5.1838   -1.3261 H   0  0  0  0  0  0  0  0  0  0  0  0
    4.4681   -4.4797   -1.5574 H   0  0  0  0  0  0  0  0  0  0  0  0
    3.9871   -3.1928   -0.3580 H   0  0  0  0  0  0  0  0  0  0  0  0
    3.1675   -3.3487   -1.9442 H   0  0  0  0  0  0  0  0  0  0  0  0
    2.6299   -7.0011   -0.1416 H   0  0  0  0  0  0  0  0  0  0  0  0
    5.6064   -4.5078    0.4488 H   0  0  0  0  0  0  0  0  0  0  0  0
    5.4466   -4.1594    3.0321 H   0  0  0  0  0  0  0  0  0  0  0  0
    3.9881   -3.8895    2.0540 H   0  0  0  0  0  0  0  0  0  0  0  0
    4.1788   -5.4393    2.9911 H   0  0  0  0  0  0  0  0  0  0  0  0
    6.6302   -6.5871    2.3961 H   0  0  0  0  0  0  0  0  0  0  0  0
    9.3964   -4.6788   -0.1690 H   0  0  0  0  0  0  0  0  0  0  0  0
    8.2109   -5.2830   -2.2000 H   0  0  0  0  0  0  0  0  0  0  0  0
    8.3217   -6.7071   -1.1048 H   0  0  0  0  0  0  0  0  0  0  0  0
    6.7597   -5.8113   -1.2718 H   0  0  0  0  0  0  0  0  0  0  0  0
    7.0914   -3.2341   -1.0588 H   0  0  0  0  0  0  0  0  0  0  0  0
    8.7377   -0.7183    1.5918 H   0  0  0  0  0  0  0  0  0  0  0  0
   10.6332   -2.9222    0.5836 H   0  0  0  0  0  0  0  0  0  0  0  0
   11.0379   -1.4860    1.5779 H   0  0  0  0  0  0  0  0  0  0  0  0
   10.0178   -2.7923    2.2826 H   0  0  0  0  0  0  0  0  0  0  0  0
    9.2923   -1.5472   -1.2908 H   0  0  0  0  0  0  0  0  0  0  0  0
   10.0965    0.9715    1.3579 H   0  0  0  0  0  0  0  0  0  0  0  0
   11.8138    2.0616    0.0230 H   0  0  0  0  0  0  0  0  0  0  0  0
   10.8828    3.2665    0.9764 H   0  0  0  0  0  0  0  0  0  0  0  0
   10.5906    3.0951   -0.7996 H   0  0  0  0  0  0  0  0  0  0  0  0
    7.6702    1.3912    1.0166 H   0  0  0  0  0  0  0  0  0  0  0  0
    8.7997    4.5534   -0.9521 H   0  0  0  0  0  0  0  0  0  0  0  0
    6.8295    3.9843   -2.4540 H   0  0  0  0  0  0  0  0  0  0  0  0
    7.8546    2.5911   -1.9835 H   0  0  0  0  0  0  0  0  0  0  0  0
    6.2646    2.8265   -1.1769 H   0  0  0  0  0  0  0  0  0  0  0  0
    7.5688    6.3113   -0.1115 H   0  0  0  0  0  0  0  0  0  0  0  0
  1  2  1  0
  2  3  2  0
  2  4  1  0
  4  5  1  0
  5  6  1  0
  6  7  1  0
  7  8  1  0
  8  9  1  0
  9 10  2  0
 10 11  1  0
 11 12  2  0
 12 13  1  0
 13 14  2  0
 13 15  1  0
 15 16  1  0
 16 17  1  0
 17 18  1  0
 18 19  1  0
 19 20  1  0
 19 21  2  0
 18 22  1  0
 22 23  1  0
 23 24  2  0
 23 25  1  0
 25 26  1  0
 25 27  1  0
 27 28  1  0
 28 29  2  0
 28 30  1  0
 30 31  1  0
 30 32  1  0
 32 33  1  0
 33 34  2  0
 33 35  1  0
 35 36  1  0
 35 37  1  0
 37 38  1  0
 38 39  2  0
 38 40  1  0
 40 41  1  0
 40 42  1  0
 42 43  1  0
 43 44  2  0
 43 45  1  0
 45 46  1  0
 45 47  1  0
 47 48  1  0
 48 49  2  0
 48 50  1  0
 50 51  1  0
 50 52  1  0
 52 53  1  0
 53 54  2  0
 53 55  1  0
 55 56  1  0
 56 57  1  0
 57 58  1  0
 55 59  1  0
 59 60  1  0
 60 61  2  0
 60 62  1  0
 62 63  1  0
 62 64  1  0
 64 65  1  0
 65 66  2  0
 65 67  1  0
 67 68  1  0
 67 69  1  0
 69 70  1  0
 70 71  2  0
 70 72  1  0
 72 73  1  0
 72 74  1  0
 74 75  1  0
 75 76  2  0
 75 77  1  0
 77 78  1  0
 77 79  1  0
 79 80  1  0
 80 81  2  0
 80 82  1  0
 82 83  1  0
 82 84  1  0
 84 85  1  0
 85 86  2  0
 85 87  1  0
 87 88  1  0
 87 89  1  0
 89 90  1  0
 90 91  2  0
 90  5  1  0
 14  9  1  0
 58 11  1  0
  1 92  1  0
  1 93  1  0
  1 94  1  0
  4 95  1  0
  5 96  1  6
  6 97  1  0
  6 98  1  0
  8 99  1  0
  8100  1  0
 10101  1  0
 12102  1  0
 14103  1  0
 15104  1  0
 15105  1  0
 17106  1  0
 17107  1  0
 18108  1  1
 20109  1  0
 20110  1  0
 22111  1  0
 25112  1  1
 26113  1  0
 26114  1  0
 26115  1  0
 27116  1  0
 30117  1  1
 31118  1  0
 31119  1  0
 31120  1  0
 32121  1  0
 35122  1  1
 36123  1  0
 36124  1  0
 36125  1  0
 37126  1  0
 40127  1  1
 41128  1  0
 41129  1  0
 41130  1  0
 42131  1  0
 45132  1  6
 46133  1  0
 46134  1  0
 46135  1  0
 47136  1  0
 50137  1  1
 51138  1  0
 51139  1  0
 51140  1  0
 52141  1  0
 55142  1  6
 56143  1  0
 56144  1  0
 58145  1  0
 58146  1  0
 59147  1  0
 62148  1  6
 63149  1  0
 63150  1  0
 63151  1  0
 64152  1  0
 67153  1  6
 68154  1  0
 68155  1  0
 68156  1  0
 69157  1  0
 72158  1  1
 73159  1  0
 73160  1  0
 73161  1  0
 74162  1  0
 77163  1  1
 78164  1  0
 78165  1  0
 78166  1  0
 79167  1  0
 82168  1  1
 83169  1  0
 83170  1  0
 83171  1  0
 84172  1  0
 87173  1  6
 88174  1  0
 88175  1  0
 88176  1  0
 89177  1  0
M  END
