
     RDKit          3D

177179  0  0  0  0  0  0  0  0999 V2000
   -5.3779    9.2769    1.0724 C   0  0  0  0  0  0  0  0  0  0  0  0
   -5.3028    7.8619    1.5517 C   0  0  0  0  0  0  0  0  0  0  0  0
   -5.1973    7.6439    2.7852 O   0  0  0  0  0  0  0  0  0  0  0  0
   -5.3711    6.7702    0.6145 N   0  0  0  0  0  0  0  0  0  0  0  0
   -5.2059    5.3452    0.9793 C   0  0  1  0  0  0  0  0  0  0  0  0
   -3.8205    5.0602    1.6160 C   0  0  0  0  0  0  0  0  0  0  0  0
   -2.4702    5.9749    0.7772 S   0  0  0  0  0  0  0  0  0  0  0  0
   -2.1291    4.7808   -0.5728 C   0  0  0  0  0  0  0  0  0  0  0  0
   -0.9289    3.9275   -0.2814 C   0  0  0  0  0  0  0  0  0  0  0  0
    0.2464    4.4951    0.2695 C   0  0  0  0  0  0  0  0  0  0  0  0
    1.2989    3.6708    0.7196 C   0  0  0  0  0  0  0  0  0  0  0  0
    1.2019    2.2759    0.5405 C   0  0  0  0  0  0  0  0  0  0  0  0
    0.0710    1.7027   -0.0521 C   0  0  0  0  0  0  0  0  0  0  0  0
   -1.0001    2.5323   -0.4585 C   0  0  0  0  0  0  0  0  0  0  0  0
   -0.0388    0.2123   -0.1488 C   0  0  0  0  0  0  0  0  0  0  0  0
   -0.4229   -0.4406    1.5199 S   0  0  0  0  0  0  0  0  0  0  0  0
   -0.1945   -2.2148    1.0987 C   0  0  0  0  0  0  0  0  0  0  0  0
    0.0595   -3.0447    2.3703 C   0  0  1  0  0  0  0  0  0  0  0  0
   -0.4856   -4.3957    2.2329 N   0  0  0  0  0  0  0  0  0  0  0  0
   -1.8820   -4.6501    2.0826 C   0  0  0  0  0  0  0  0  0  0  0  0
   -2.7242   -4.0202    2.7870 O   0  0  0  0  0  0  0  0  0  0  0  0
   -2.3332   -5.7159    1.1194 C   0  0  1  0  0  0  0  0  0  0  0  0
   -2.4023   -7.0695    1.8380 C   0  0  0  0  0  0  0  0  0  0  0  0
   -3.6369   -5.3969    0.5222 N   0  0  0  0  0  0  0  0  0  0  0  0
   -4.1538   -6.1297   -0.6061 C   0  0  0  0  0  0  0  0  0  0  0  0
   -3.3554   -6.7113   -1.3980 O   0  0  0  0  0  0  0  0  0  0  0  0
   -5.6402   -6.2031   -0.8855 C   0  0  1  0  0  0  0  0  0  0  0  0
   -6.0770   -7.6726   -0.9604 C   0  0  0  0  0  0  0  0  0  0  0  0
   -6.4322   -5.5301    0.1335 N   0  0  0  0  0  0  0  0  0  0  0  0
   -7.4126   -4.5462   -0.2302 C   0  0  0  0  0  0  0  0  0  0  0  0
   -7.0660   -3.5530   -0.9288 O   0  0  0  0  0  0  0  0  0  0  0  0
   -8.8433   -4.7154    0.1879 C   0  0  1  0  0  0  0  0  0  0  0  0
   -9.2154   -3.7248    1.3003 C   0  0  0  0  0  0  0  0  0  0  0  0
   -9.7116   -4.6211   -0.9957 N   0  0  0  0  0  0  0  0  0  0  0  0
  -10.6734   -3.5806   -1.1945 C   0  0  0  0  0  0  0  0  0  0  0  0
  -11.8828   -3.8029   -0.9298 O   0  0  0  0  0  0  0  0  0  0  0  0
  -10.2512   -2.2539   -1.7960 C   0  0  1  0  0  0  0  0  0  0  0  0
  -10.9398   -2.0378   -3.1531 C   0  0  0  0  0  0  0  0  0  0  0  0
  -10.5768   -1.1626   -0.8638 N   0  0  0  0  0  0  0  0  0  0  0  0
  -10.3358    0.2131   -1.1659 C   0  0  0  0  0  0  0  0  0  0  0  0
  -11.3088    0.9438   -1.5152 O   0  0  0  0  0  0  0  0  0  0  0  0
   -8.9851    0.8320   -0.9173 C   0  0  1  0  0  0  0  0  0  0  0  0
   -7.8858    0.1844   -1.7721 C   0  0  0  0  0  0  0  0  0  0  0  0
   -9.0006    2.2722   -1.1718 N   0  0  0  0  0  0  0  0  0  0  0  0
   -9.1245    3.2176   -0.0938 C   0  0  0  0  0  0  0  0  0  0  0  0
  -10.1032    3.1240    0.7083 O   0  0  0  0  0  0  0  0  0  0  0  0
   -8.0909    4.2885    0.1134 C   0  0  1  0  0  0  0  0  0  0  0  0
   -8.7441    5.6781    0.0411 C   0  0  0  0  0  0  0  0  0  0  0  0
   -7.4138    4.0763    1.3950 N   0  0  0  0  0  0  0  0  0  0  0  0
   -6.3383    4.8820    1.8830 C   0  0  0  0  0  0  0  0  0  0  0  0
   -6.3130    5.1963    3.1060 O   0  0  0  0  0  0  0  0  0  0  0  0
    1.5414   -3.0650    2.6964 C   0  0  0  0  0  0  0  0  0  0  0  0
    2.0086   -2.1216    3.4011 O   0  0  0  0  0  0  0  0  0  0  0  0
    2.4458   -4.0918    2.2505 N   0  0  0  0  0  0  0  0  0  0  0  0
    2.3460   -4.7702    0.9567 C   0  0  2  0  0  0  0  0  0  0  0  0
    2.4768   -6.2943    1.1410 C   0  0  0  0  0  0  0  0  0  0  0  0
    3.4025   -4.2307    0.0120 C   0  0  0  0  0  0  0  0  0  0  0  0
    3.1738   -3.1646   -0.6215 O   0  0  0  0  0  0  0  0  0  0  0  0
    4.6463   -4.9166   -0.1783 N   0  0  0  0  0  0  0  0  0  0  0  0
    5.1348   -5.2582   -1.5238 C   0  0  2  0  0  0  0  0  0  0  0  0
    6.1048   -6.4501   -1.4743 C   0  0  0  0  0  0  0  0  0  0  0  0
    5.7486   -4.0447   -2.1859 C   0  0  0  0  0  0  0  0  0  0  0  0
    5.3468   -3.6962   -3.3311 O   0  0  0  0  0  0  0  0  0  0  0  0
    6.7061   -3.2214   -1.4975 N   0  0  0  0  0  0  0  0  0  0  0  0
    8.0720   -3.6673   -1.2194 C   0  0  2  0  0  0  0  0  0  0  0  0
    8.2608   -3.7928    0.3079 C   0  0  0  0  0  0  0  0  0  0  0  0
    9.0575   -2.6755   -1.8203 C   0  0  0  0  0  0  0  0  0  0  0  0
    8.8321   -2.1489   -2.9376 O   0  0  0  0  0  0  0  0  0  0  0  0
   10.2527   -2.3265   -1.1056 N   0  0  0  0  0  0  0  0  0  0  0  0
   10.6384   -0.9429   -0.7421 C   0  0  2  0  0  0  0  0  0  0  0  0
   11.5338   -1.0040    0.5121 C   0  0  0  0  0  0  0  0  0  0  0  0
    9.4439   -0.0348   -0.4609 C   0  0  0  0  0  0  0  0  0  0  0  0
    8.2817   -0.5274   -0.3969 O   0  0  0  0  0  0  0  0  0  0  0  0
    9.5716    1.3787   -0.2011 N   0  0  0  0  0  0  0  0  0  0  0  0
   10.7146    2.2316   -0.5587 C   0  0  2  0  0  0  0  0  0  0  0  0
   11.4725    2.6761    0.7102 C   0  0  0  0  0  0  0  0  0  0  0  0
   10.2271    3.3944   -1.4087 C   0  0  0  0  0  0  0  0  0  0  0  0
   10.2305    3.2564   -2.6634 O   0  0  0  0  0  0  0  0  0  0  0  0
    9.8388    4.6662   -0.8607 N   0  0  0  0  0  0  0  0  0  0  0  0
    8.5653    4.9634   -0.1814 C   0  0  2  0  0  0  0  0  0  0  0  0
    8.6150    4.5603    1.2983 C   0  0  0  0  0  0  0  0  0  0  0  0
    7.3632    4.3791   -0.9173 C   0  0  0  0  0  0  0  0  0  0  0  0
    7.4060    3.2085   -1.3702 O   0  0  0  0  0  0  0  0  0  0  0  0
    6.1743    5.1548   -1.1546 N   0  0  0  0  0  0  0  0  0  0  0  0
    5.6154    6.1128   -0.1830 C   0  0  1  0  0  0  0  0  0  0  0  0
    5.7197    7.5117   -0.7301 C   0  0  0  0  0  0  0  0  0  0  0  0
    5.0993    7.8542   -1.9756 N   0  0  0  0  0  0  0  0  0  0  0  0
    6.3278    8.3919   -0.0628 O   0  0  0  0  0  0  0  0  0  0  0  0
    4.1500    5.7631    0.1500 C   0  0  0  0  0  0  0  0  0  0  0  0
    4.0148    4.0497    0.7846 S   0  0  0  0  0  0  0  0  0  0  0  0
    2.3839    4.2227    1.5873 C   0  0  0  0  0  0  0  0  0  0  0  0
   -6.2423    9.7909    1.5606 H   0  0  0  0  0  0  0  0  0  0  0  0
   -4.4298    9.7929    1.3247 H   0  0  0  0  0  0  0  0  0  0  0  0
   -5.5318    9.2960   -0.0297 H   0  0  0  0  0  0  0  0  0  0  0  0
   -5.5235    6.9793   -0.4013 H   0  0  0  0  0  0  0  0  0  0  0  0
   -5.2521    4.7463    0.0429 H   0  0  0  0  0  0  0  0  0  0  0  0
   -3.6164    3.9707    1.6059 H   0  0  0  0  0  0  0  0  0  0  0  0
   -3.8170    5.3888    2.6767 H   0  0  0  0  0  0  0  0  0  0  0  0
   -3.0297    4.1635   -0.7714 H   0  0  0  0  0  0  0  0  0  0  0  0
   -1.9440    5.3540   -1.4966 H   0  0  0  0  0  0  0  0  0  0  0  0
    0.2873    5.5435    0.4653 H   0  0  0  0  0  0  0  0  0  0  0  0
    1.9723    1.6164    0.9647 H   0  0  0  0  0  0  0  0  0  0  0  0
   -1.8992    2.0790   -0.8722 H   0  0  0  0  0  0  0  0  0  0  0  0
   -0.8171   -0.0929   -0.8831 H   0  0  0  0  0  0  0  0  0  0  0  0
    0.9537   -0.1893   -0.4900 H   0  0  0  0  0  0  0  0  0  0  0  0
    0.6509   -2.3336    0.3804 H   0  0  0  0  0  0  0  0  0  0  0  0
   -1.1141   -2.5386    0.5852 H   0  0  0  0  0  0  0  0  0  0  0  0
   -0.4715   -2.5640    3.2224 H   0  0  0  0  0  0  0  0  0  0  0  0
    0.0963   -5.2197    2.5387 H   0  0  0  0  0  0  0  0  0  0  0  0
   -1.5754   -5.7914    0.3099 H   0  0  0  0  0  0  0  0  0  0  0  0
   -1.4104   -7.3095    2.2892 H   0  0  0  0  0  0  0  0  0  0  0  0
   -3.1717   -7.0448    2.6402 H   0  0  0  0  0  0  0  0  0  0  0  0
   -2.6583   -7.8785    1.1120 H   0  0  0  0  0  0  0  0  0  0  0  0
   -4.1668   -4.5525    0.8447 H   0  0  0  0  0  0  0  0  0  0  0  0
   -5.8262   -5.7479   -1.8885 H   0  0  0  0  0  0  0  0  0  0  0  0
   -5.8455   -8.1924    0.0024 H   0  0  0  0  0  0  0  0  0  0  0  0
   -7.1675   -7.7292   -1.1375 H   0  0  0  0  0  0  0  0  0  0  0  0
   -5.5683   -8.1884   -1.7865 H   0  0  0  0  0  0  0  0  0  0  0  0
   -6.4381   -5.9169    1.1077 H   0  0  0  0  0  0  0  0  0  0  0  0
   -8.9562   -5.7388    0.6184 H   0  0  0  0  0  0  0  0  0  0  0  0
  -10.2925   -3.8489    1.5601 H   0  0  0  0  0  0  0  0  0  0  0  0
   -8.6151   -3.9218    2.2121 H   0  0  0  0  0  0  0  0  0  0  0  0
   -9.0437   -2.6669    0.9807 H   0  0  0  0  0  0  0  0  0  0  0  0
   -9.7312   -5.4344   -1.6438 H   0  0  0  0  0  0  0  0  0  0  0  0
   -9.1517   -2.2812   -1.9737 H   0  0  0  0  0  0  0  0  0  0  0  0
  -10.7121   -2.8927   -3.8348 H   0  0  0  0  0  0  0  0  0  0  0  0
  -10.5840   -1.0955   -3.6142 H   0  0  0  0  0  0  0  0  0  0  0  0
  -12.0469   -1.9754   -3.0126 H   0  0  0  0  0  0  0  0  0  0  0  0
  -11.2349   -1.3522   -0.0697 H   0  0  0  0  0  0  0  0  0  0  0  0
   -8.7279    0.6453    0.1558 H   0  0  0  0  0  0  0  0  0  0  0  0
   -6.9514    0.8067   -1.7263 H   0  0  0  0  0  0  0  0  0  0  0  0
   -8.2061    0.1154   -2.8343 H   0  0  0  0  0  0  0  0  0  0  0  0
   -7.6323   -0.8120   -1.3795 H   0  0  0  0  0  0  0  0  0  0  0  0
   -8.8416    2.6418   -2.1377 H   0  0  0  0  0  0  0  0  0  0  0  0
   -7.3590    4.1976   -0.7141 H   0  0  0  0  0  0  0  0  0  0  0  0
   -7.9942    6.4142   -0.2839 H   0  0  0  0  0  0  0  0  0  0  0  0
   -9.1227    5.9914    1.0448 H   0  0  0  0  0  0  0  0  0  0  0  0
   -9.5628    5.7015   -0.7071 H   0  0  0  0  0  0  0  0  0  0  0  0
   -7.9122    3.4959    2.1305 H   0  0  0  0  0  0  0  0  0  0  0  0
    3.3587   -4.1838    2.7464 H   0  0  0  0  0  0  0  0  0  0  0  0
    1.3622   -4.5929    0.4894 H   0  0  0  0  0  0  0  0  0  0  0  0
    2.4529   -6.7963    0.1489 H   0  0  0  0  0  0  0  0  0  0  0  0
    1.6312   -6.6786    1.7475 H   0  0  0  0  0  0  0  0  0  0  0  0
    3.4224   -6.5475    1.6589 H   0  0  0  0  0  0  0  0  0  0  0  0
    5.1396   -5.2989    0.6562 H   0  0  0  0  0  0  0  0  0  0  0  0
    4.2641   -5.5757   -2.1434 H   0  0  0  0  0  0  0  0  0  0  0  0
    6.5580   -6.6161   -2.4708 H   0  0  0  0  0  0  0  0  0  0  0  0
    6.9030   -6.3023   -0.7282 H   0  0  0  0  0  0  0  0  0  0  0  0
    5.5363   -7.3616   -1.1986 H   0  0  0  0  0  0  0  0  0  0  0  0
    6.4810   -2.1948   -1.4292 H   0  0  0  0  0  0  0  0  0  0  0  0
    8.2667   -4.6568   -1.6914 H   0  0  0  0  0  0  0  0  0  0  0  0
    7.5118   -4.4909    0.7343 H   0  0  0  0  0  0  0  0  0  0  0  0
    9.2719   -4.1807    0.5376 H   0  0  0  0  0  0  0  0  0  0  0  0
    8.1290   -2.7998    0.7879 H   0  0  0  0  0  0  0  0  0  0  0  0
   10.9810   -3.0835   -1.0128 H   0  0  0  0  0  0  0  0  0  0  0  0
   11.2237   -0.5358   -1.5877 H   0  0  0  0  0  0  0  0  0  0  0  0
   10.9653   -1.4194    1.3701 H   0  0  0  0  0  0  0  0  0  0  0  0
   12.4108   -1.6780    0.3331 H   0  0  0  0  0  0  0  0  0  0  0  0
   11.9142   -0.0023    0.7785 H   0  0  0  0  0  0  0  0  0  0  0  0
    8.7192    1.8282    0.1958 H   0  0  0  0  0  0  0  0  0  0  0  0
   11.4324    1.6606   -1.1782 H   0  0  0  0  0  0  0  0  0  0  0  0
   11.0911    2.1472    1.6125 H   0  0  0  0  0  0  0  0  0  0  0  0
   12.5585    2.4559    0.6108 H   0  0  0  0  0  0  0  0  0  0  0  0
   11.4013    3.7705    0.8940 H   0  0  0  0  0  0  0  0  0  0  0  0
   10.3757    5.4979   -1.2152 H   0  0  0  0  0  0  0  0  0  0  0  0
    8.4355    6.0688   -0.1932 H   0  0  0  0  0  0  0  0  0  0  0  0
    9.3769    5.1938    1.8130 H   0  0  0  0  0  0  0  0  0  0  0  0
    7.6357    4.7024    1.7983 H   0  0  0  0  0  0  0  0  0  0  0  0
    8.9166    3.5093    1.4463 H   0  0  0  0  0  0  0  0  0  0  0  0
    5.5889    4.9111   -1.9873 H   0  0  0  0  0  0  0  0  0  0  0  0
    6.1934    6.0618    0.7676 H   0  0  0  0  0  0  0  0  0  0  0  0
    5.2007    8.8228   -2.3495 H   0  0  0  0  0  0  0  0  0  0  0  0
    4.5862    7.1426   -2.5417 H   0  0  0  0  0  0  0  0  0  0  0  0
    3.5099    5.8550   -0.7524 H   0  0  0  0  0  0  0  0  0  0  0  0
    3.7987    6.4759    0.9266 H   0  0  0  0  0  0  0  0  0  0  0  0
    2.1824    5.2713    1.8923 H   0  0  0  0  0  0  0  0  0  0  0  0
    2.4252    3.6232    2.5275 H   0  0  0  0  0  0  0  0  0  0  0  0
  1  2  1  0
  2  3  2  0
  2  4  1  0
  4  5  1  0
  5  6  1  0
  6  7  1  0
  7  8  1  0
  8  9  1  0
  9 10  2  0
 10 11  1  0
 11 12  2  0
 12 13  1  0
 13 14  2  0
 13 15  1  0
 15 16  1  0
 16 17  1  0
 17 18  1  0
 18 19  1  0
 19 20  1  0
 20 21  2  0
 20 22  1  0
 22 23  1  0
 22 24  1  0
 24 25  1  0
 25 26  2  0
 25 27  1  0
 27 28  1  0
 27 29  1  0
 29 30  1  0
 30 31  2  0
 30 32  1  0
 32 33  1  0
 32 34  1  0
 34 35  1  0
 35 36  2  0
 35 37  1  0
 37 38  1  0
 37 39  1  0
 39 40  1  0
 40 41  2  0
 40 42  1  0
 42 43  1  0
 42 44  1  0
 44 45  1  0
 45 46  2  0
 45 47  1  0
 47 48  1  0
 47 49  1  0
 49 50  1  0
 50 51  2  0
 18 52  1  0
 52 53  2  0
 52 54  1  0
 54 55  1  0
 55 56  1  0
 55 57  1  0
 57 58  2  0
 57 59  1  0
 59 60  1  0
 60 61  1  0
 60 62  1  0
 62 63  2  0
 62 64  1  0
 64 65  1  0
 65 66  1  0
 65 67  1  0
 67 68  2  0
 67 69  1  0
 69 70  1  0
 70 71  1  0
 70 72  1  0
 72 73  2  0
 72 74  1  0
 74 75  1  0
 75 76  1  0
 75 77  1  0
 77 78  2  0
 77 79  1  0
 79 80  1  0
 80 81  1  0
 80 82  1  0
 82 83  2  0
 82 84  1  0
 84 85  1  0
 85 86  1  0
 86 87  1  0
 86 88  2  0
 85 89  1  0
 89 90  1  0
 90 91  1  0
 50  5  1  0
 14  9  1  0
 91 11  1  0
  1 92  1  0
  1 93  1  0
  1 94  1  0
  4 95  1  0
  5 96  1  6
  6 97  1  0
  6 98  1  0
  8 99  1  0
  8100  1  0
 10101  1  0
 12102  1  0
 14103  1  0
 15104  1  0
 15105  1  0
 17106  1  0
 17107  1  0
 18108  1  1
 19109  1  0
 22110  1  6
 23111  1  0
 23112  1  0
 23113  1  0
 24114  1  0
 27115  1  6
 28116  1  0
 28117  1  0
 28118  1  0
 29119  1  0
 32120  1  1
 33121  1  0
 33122  1  0
 33123  1  0
 34124  1  0
 37125  1  6
 38126  1  0
 38127  1  0
 38128  1  0
 39129  1  0
 42130  1  1
 43131  1  0
 43132  1  0
 43133  1  0
 44134  1  0
 47135  1  6
 48136  1  0
 48137  1  0
 48138  1  0
 49139  1  0
 54140  1  0
 55141  1  6
 56142  1  0
 56143  1  0
 56144  1  0
 59145  1  0
 60146  1  6
 61147  1  0
 61148  1  0
 61149  1  0
 64150  1  0
 65151  1  6
 66152  1  0
 66153  1  0
 66154  1  0
 69155  1  0
 70156  1  6
 71157  1  0
 71158  1  0
 71159  1  0
 74160  1  0
 75161  1  6
 76162  1  0
 76163  1  0
 76164  1  0
 79165  1  0
 80166  1  1
 81167  1  0
 81168  1  0
 81169  1  0
 84170  1  0
 85171  1  1
 87172  1  0
 87173  1  0
 89174  1  0
 89175  1  0
 91176  1  0
 91177  1  0
M  END
