
     RDKit          3D

187189  0  0  0  0  0  0  0  0999 V2000
    6.0962    8.0735   -1.0829 C   0  0  0  0  0  0  0  0  0  0  0  0
    6.7622    7.6504    0.1880 C   0  0  0  0  0  0  0  0  0  0  0  0
    7.4091    8.5179    0.8367 O   0  0  0  0  0  0  0  0  0  0  0  0
    6.6928    6.3092    0.7016 N   0  0  0  0  0  0  0  0  0  0  0  0
    6.1693    5.1207    0.0079 C   0  0  1  0  0  0  0  0  0  0  0  0
    4.6433    5.2158   -0.2012 C   0  0  0  0  0  0  0  0  0  0  0  0
    3.7589    5.7808    1.3069 S   0  0  0  0  0  0  0  0  0  0  0  0
    3.2210    4.1432    1.9180 C   0  0  0  0  0  0  0  0  0  0  0  0
    2.2068    3.5157    0.9944 C   0  0  0  0  0  0  0  0  0  0  0  0
    0.9785    4.1545    0.7339 C   0  0  0  0  0  0  0  0  0  0  0  0
    0.0351    3.5743   -0.1286 C   0  0  0  0  0  0  0  0  0  0  0  0
    0.3245    2.3378   -0.7298 C   0  0  0  0  0  0  0  0  0  0  0  0
    1.5365    1.6753   -0.4613 C   0  0  0  0  0  0  0  0  0  0  0  0
    2.4702    2.2710    0.4047 C   0  0  0  0  0  0  0  0  0  0  0  0
    1.8382    0.3526   -1.1113 C   0  0  0  0  0  0  0  0  0  0  0  0
    0.5461   -0.8698   -0.7084 S   0  0  0  0  0  0  0  0  0  0  0  0
    1.3301   -1.5382    0.8011 C   0  0  0  0  0  0  0  0  0  0  0  0
    0.6374   -2.8366    1.2522 C   0  0  1  0  0  0  0  0  0  0  0  0
    1.4833   -3.5270    2.2331 N   0  0  0  0  0  0  0  0  0  0  0  0
    2.6828   -4.2394    1.8708 C   0  0  0  0  0  0  0  0  0  0  0  0
    3.7549   -3.9525    2.4691 O   0  0  0  0  0  0  0  0  0  0  0  0
    2.6992   -5.3699    0.8667 C   0  0  1  0  0  0  0  0  0  0  0  0
    1.4789   -6.2838    1.0211 C   0  0  0  0  0  0  0  0  0  0  0  0
    2.7856   -4.8509   -0.5068 N   0  0  0  0  0  0  0  0  0  0  0  0
    3.6668   -5.3312   -1.5348 C   0  0  0  0  0  0  0  0  0  0  0  0
    3.3536   -5.1135   -2.7353 O   0  0  0  0  0  0  0  0  0  0  0  0
    4.9591   -6.0662   -1.2307 C   0  0  1  0  0  0  0  0  0  0  0  0
    4.6939   -7.5743   -1.1253 C   0  0  0  0  0  0  0  0  0  0  0  0
    5.9387   -5.8297   -2.2996 N   0  0  0  0  0  0  0  0  0  0  0  0
    7.3629   -5.8598   -2.1003 C   0  0  0  0  0  0  0  0  0  0  0  0
    8.0838   -6.4212   -2.9759 O   0  0  0  0  0  0  0  0  0  0  0  0
    8.0179   -5.2693   -0.8737 C   0  0  1  0  0  0  0  0  0  0  0  0
    8.2879   -6.3813    0.1481 C   0  0  0  0  0  0  0  0  0  0  0  0
    9.2899   -4.6332   -1.2521 N   0  0  0  0  0  0  0  0  0  0  0  0
    9.5191   -3.2129   -1.2531 C   0  0  0  0  0  0  0  0  0  0  0  0
   10.1624   -2.7105   -2.2182 O   0  0  0  0  0  0  0  0  0  0  0  0
    9.0979   -2.3310   -0.0953 C   0  0  1  0  0  0  0  0  0  0  0  0
    9.7977   -2.7754    1.1917 C   0  0  0  0  0  0  0  0  0  0  0  0
    9.4525   -0.9266   -0.3558 N   0  0  0  0  0  0  0  0  0  0  0  0
    8.4676    0.1206   -0.3884 C   0  0  0  0  0  0  0  0  0  0  0  0
    7.2935   -0.1341   -0.7716 O   0  0  0  0  0  0  0  0  0  0  0  0
    8.8001    1.5144    0.1059 C   0  0  1  0  0  0  0  0  0  0  0  0
    9.1366    1.4532    1.6030 C   0  0  0  0  0  0  0  0  0  0  0  0
    9.9242    2.0893   -0.6449 N   0  0  0  0  0  0  0  0  0  0  0  0
   10.2247    3.4947   -0.7310 C   0  0  0  0  0  0  0  0  0  0  0  0
   11.3051    3.8370   -1.2830 O   0  0  0  0  0  0  0  0  0  0  0  0
    9.2631    4.5713   -0.2639 C   0  0  1  0  0  0  0  0  0  0  0  0
   10.0288    5.8284    0.1746 C   0  0  0  0  0  0  0  0  0  0  0  0
    8.3537    4.9031   -1.3622 N   0  0  0  0  0  0  0  0  0  0  0  0
    6.9188    4.8702   -1.2895 C   0  0  0  0  0  0  0  0  0  0  0  0
    6.2724    4.6590   -2.3491 O   0  0  0  0  0  0  0  0  0  0  0  0
   -0.7321   -2.5638    1.8347 C   0  0  0  0  0  0  0  0  0  0  0  0
   -0.8189   -1.9290    2.9206 O   0  0  0  0  0  0  0  0  0  0  0  0
   -1.9418   -3.0545    1.2243 N   0  0  0  0  0  0  0  0  0  0  0  0
   -2.0956   -3.3257   -0.2104 C   0  0  2  0  0  0  0  0  0  0  0  0
   -3.4528   -2.8344   -0.7209 C   0  0  0  0  0  0  0  0  0  0  0  0
   -1.8339   -4.7820   -0.5277 C   0  0  0  0  0  0  0  0  0  0  0  0
   -0.9503   -5.0542   -1.3818 O   0  0  0  0  0  0  0  0  0  0  0  0
   -2.4639   -5.8679    0.1751 N   0  0  0  0  0  0  0  0  0  0  0  0
   -3.8855   -5.9123    0.5248 C   0  0  2  0  0  0  0  0  0  0  0  0
   -4.1908   -7.2121    1.2822 C   0  0  0  0  0  0  0  0  0  0  0  0
   -4.7307   -5.8294   -0.7322 C   0  0  0  0  0  0  0  0  0  0  0  0
   -4.2986   -6.3555   -1.7987 O   0  0  0  0  0  0  0  0  0  0  0  0
   -5.9734   -5.1085   -0.7721 N   0  0  0  0  0  0  0  0  0  0  0  0
   -6.9896   -5.2234    0.2782 C   0  0  2  0  0  0  0  0  0  0  0  0
   -7.7301   -6.5568    0.1116 C   0  0  0  0  0  0  0  0  0  0  0  0
   -7.8954   -4.0008    0.2367 C   0  0  0  0  0  0  0  0  0  0  0  0
   -7.3824   -2.8666    0.4153 O   0  0  0  0  0  0  0  0  0  0  0  0
   -9.3116   -4.0956   -0.0236 N   0  0  0  0  0  0  0  0  0  0  0  0
  -10.1656   -2.9123   -0.2089 C   0  0  2  0  0  0  0  0  0  0  0  0
  -11.6330   -3.3458   -0.3307 C   0  0  0  0  0  0  0  0  0  0  0  0
   -9.7476   -2.1688   -1.4643 C   0  0  0  0  0  0  0  0  0  0  0  0
   -9.6928   -2.8159   -2.5446 O   0  0  0  0  0  0  0  0  0  0  0  0
   -9.3806   -0.7761   -1.4756 N   0  0  0  0  0  0  0  0  0  0  0  0
   -9.5133    0.1610   -0.3445 C   0  0  2  0  0  0  0  0  0  0  0  0
  -10.9857    0.5442   -0.1608 C   0  0  0  0  0  0  0  0  0  0  0  0
   -8.6318    1.3674   -0.5777 C   0  0  0  0  0  0  0  0  0  0  0  0
   -7.4097    1.1933   -0.8290 O   0  0  0  0  0  0  0  0  0  0  0  0
   -9.1447    2.7041   -0.5263 N   0  0  0  0  0  0  0  0  0  0  0  0
   -9.3283    3.3959    0.7493 C   0  0  2  0  0  0  0  0  0  0  0  0
  -10.6299    4.2055    0.6973 C   0  0  0  0  0  0  0  0  0  0  0  0
   -8.0938    4.2282    1.0307 C   0  0  0  0  0  0  0  0  0  0  0  0
   -6.9856    3.6387    1.1336 O   0  0  0  0  0  0  0  0  0  0  0  0
   -8.1392    5.6623    1.1407 N   0  0  0  0  0  0  0  0  0  0  0  0
   -6.9928    6.4950    0.7311 C   0  0  2  0  0  0  0  0  0  0  0  0
   -7.3144    7.9742    0.9740 C   0  0  0  0  0  0  0  0  0  0  0  0
   -6.6900    6.2652   -0.7327 C   0  0  0  0  0  0  0  0  0  0  0  0
   -7.6342    6.3987   -1.5605 O   0  0  0  0  0  0  0  0  0  0  0  0
   -5.4011    5.8562   -1.2358 N   0  0  0  0  0  0  0  0  0  0  0  0
   -4.0975    5.9607   -0.5542 C   0  0  1  0  0  0  0  0  0  0  0  0
   -3.9435    7.2982    0.1292 C   0  0  0  0  0  0  0  0  0  0  0  0
   -3.9940    8.4951   -0.6630 N   0  0  0  0  0  0  0  0  0  0  0  0
   -3.7578    7.3863    1.3728 O   0  0  0  0  0  0  0  0  0  0  0  0
   -3.8618    4.7329    0.3486 C   0  0  0  0  0  0  0  0  0  0  0  0
   -2.1749    4.6917    1.0749 S   0  0  0  0  0  0  0  0  0  0  0  0
   -1.2542    4.2919   -0.4554 C   0  0  0  0  0  0  0  0  0  0  0  0
    4.9962    8.1184   -0.9401 H   0  0  0  0  0  0  0  0  0  0  0  0
    6.4451    9.0887   -1.3738 H   0  0  0  0  0  0  0  0  0  0  0  0
    6.3552    7.3864   -1.9128 H   0  0  0  0  0  0  0  0  0  0  0  0
    7.1113    6.1416    1.6454 H   0  0  0  0  0  0  0  0  0  0  0  0
    6.3378    4.2363    0.6598 H   0  0  0  0  0  0  0  0  0  0  0  0
    4.2595    4.2371   -0.5494 H   0  0  0  0  0  0  0  0  0  0  0  0
    4.4065    5.9330   -1.0069 H   0  0  0  0  0  0  0  0  0  0  0  0
    2.7530    4.2853    2.9164 H   0  0  0  0  0  0  0  0  0  0  0  0
    4.1165    3.4974    2.0505 H   0  0  0  0  0  0  0  0  0  0  0  0
    0.7807    5.1173    1.1897 H   0  0  0  0  0  0  0  0  0  0  0  0
   -0.3943    1.8826   -1.4011 H   0  0  0  0  0  0  0  0  0  0  0  0
    3.4055    1.7662    0.6103 H   0  0  0  0  0  0  0  0  0  0  0  0
    2.8389   -0.0199   -0.8137 H   0  0  0  0  0  0  0  0  0  0  0  0
    1.8580    0.4807   -2.2127 H   0  0  0  0  0  0  0  0  0  0  0  0
    2.3952   -1.7643    0.5786 H   0  0  0  0  0  0  0  0  0  0  0  0
    1.2938   -0.7721    1.6027 H   0  0  0  0  0  0  0  0  0  0  0  0
    0.5010   -3.4901    0.3769 H   0  0  0  0  0  0  0  0  0  0  0  0
    1.4409   -3.1847    3.2191 H   0  0  0  0  0  0  0  0  0  0  0  0
    3.5845   -5.9978    1.0959 H   0  0  0  0  0  0  0  0  0  0  0  0
    1.5446   -7.1327    0.3058 H   0  0  0  0  0  0  0  0  0  0  0  0
    1.4446   -6.6983    2.0529 H   0  0  0  0  0  0  0  0  0  0  0  0
    0.5358   -5.7387    0.8262 H   0  0  0  0  0  0  0  0  0  0  0  0
    2.0396   -4.2083   -0.8411 H   0  0  0  0  0  0  0  0  0  0  0  0
    5.3635   -5.7041   -0.2660 H   0  0  0  0  0  0  0  0  0  0  0  0
    4.0048   -7.8014   -0.2842 H   0  0  0  0  0  0  0  0  0  0  0  0
    5.6507   -8.1084   -0.9392 H   0  0  0  0  0  0  0  0  0  0  0  0
    4.2532   -7.9650   -2.0717 H   0  0  0  0  0  0  0  0  0  0  0  0
    5.6216   -5.9985   -3.2821 H   0  0  0  0  0  0  0  0  0  0  0  0
    7.3364   -4.5260   -0.4137 H   0  0  0  0  0  0  0  0  0  0  0  0
    8.7523   -5.9618    1.0644 H   0  0  0  0  0  0  0  0  0  0  0  0
    8.9743   -7.1473   -0.2750 H   0  0  0  0  0  0  0  0  0  0  0  0
    7.3429   -6.8810    0.4493 H   0  0  0  0  0  0  0  0  0  0  0  0
    9.9997   -5.2259   -1.7390 H   0  0  0  0  0  0  0  0  0  0  0  0
    7.9984   -2.4216    0.0566 H   0  0  0  0  0  0  0  0  0  0  0  0
   10.9000   -2.7101    1.0686 H   0  0  0  0  0  0  0  0  0  0  0  0
    9.5258   -3.8184    1.4412 H   0  0  0  0  0  0  0  0  0  0  0  0
    9.4904   -2.1176    2.0315 H   0  0  0  0  0  0  0  0  0  0  0  0
   10.4678   -0.6727   -0.3531 H   0  0  0  0  0  0  0  0  0  0  0  0
    7.9009    2.1489   -0.0368 H   0  0  0  0  0  0  0  0  0  0  0  0
    9.3465    2.4679    1.9995 H   0  0  0  0  0  0  0  0  0  0  0  0
   10.0322    0.8183    1.7742 H   0  0  0  0  0  0  0  0  0  0  0  0
    8.2795    1.0258    2.1688 H   0  0  0  0  0  0  0  0  0  0  0  0
   10.6036    1.4431   -1.1093 H   0  0  0  0  0  0  0  0  0  0  0  0
    8.6964    4.2167    0.6171 H   0  0  0  0  0  0  0  0  0  0  0  0
   10.7805    5.5702    0.9504 H   0  0  0  0  0  0  0  0  0  0  0  0
   10.5445    6.3024   -0.6898 H   0  0  0  0  0  0  0  0  0  0  0  0
    9.3349    6.5713    0.6129 H   0  0  0  0  0  0  0  0  0  0  0  0
    8.7795    5.0846   -2.3029 H   0  0  0  0  0  0  0  0  0  0  0  0
   -2.7916   -3.1047    1.8349 H   0  0  0  0  0  0  0  0  0  0  0  0
   -1.3590   -2.7304   -0.7812 H   0  0  0  0  0  0  0  0  0  0  0  0
   -3.4709   -1.7188   -0.7077 H   0  0  0  0  0  0  0  0  0  0  0  0
   -3.6331   -3.1703   -1.7679 H   0  0  0  0  0  0  0  0  0  0  0  0
   -4.2879   -3.1726   -0.0720 H   0  0  0  0  0  0  0  0  0  0  0  0
   -1.9006   -6.7514    0.2584 H   0  0  0  0  0  0  0  0  0  0  0  0
   -4.1235   -5.0660    1.2046 H   0  0  0  0  0  0  0  0  0  0  0  0
   -4.0570   -8.0905    0.6129 H   0  0  0  0  0  0  0  0  0  0  0  0
   -5.2277   -7.2063    1.6729 H   0  0  0  0  0  0  0  0  0  0  0  0
   -3.4960   -7.3112    2.1440 H   0  0  0  0  0  0  0  0  0  0  0  0
   -6.2947   -4.7899   -1.7161 H   0  0  0  0  0  0  0  0  0  0  0  0
   -6.5012   -5.2252    1.2778 H   0  0  0  0  0  0  0  0  0  0  0  0
   -8.4634   -6.6969    0.9324 H   0  0  0  0  0  0  0  0  0  0  0  0
   -7.0079   -7.3969    0.1475 H   0  0  0  0  0  0  0  0  0  0  0  0
   -8.2411   -6.5933   -0.8780 H   0  0  0  0  0  0  0  0  0  0  0  0
   -9.7502   -5.0303   -0.1529 H   0  0  0  0  0  0  0  0  0  0  0  0
  -10.0843   -2.2717    0.6894 H   0  0  0  0  0  0  0  0  0  0  0  0
  -11.9557   -3.8600    0.6025 H   0  0  0  0  0  0  0  0  0  0  0  0
  -12.3020   -2.4760   -0.4996 H   0  0  0  0  0  0  0  0  0  0  0  0
  -11.7664   -4.0515   -1.1818 H   0  0  0  0  0  0  0  0  0  0  0  0
   -8.9813   -0.4139   -2.3750 H   0  0  0  0  0  0  0  0  0  0  0  0
   -9.1396   -0.3193    0.5861 H   0  0  0  0  0  0  0  0  0  0  0  0
  -11.1282    1.1138    0.7806 H   0  0  0  0  0  0  0  0  0  0  0  0
  -11.6205   -0.3562   -0.0909 H   0  0  0  0  0  0  0  0  0  0  0  0
  -11.3361    1.1604   -1.0207 H   0  0  0  0  0  0  0  0  0  0  0  0
   -9.0128    3.2957   -1.3826 H   0  0  0  0  0  0  0  0  0  0  0  0
   -9.4321    2.6521    1.5698 H   0  0  0  0  0  0  0  0  0  0  0  0
  -10.5667    4.9996   -0.0814 H   0  0  0  0  0  0  0  0  0  0  0  0
  -10.8470    4.6572    1.6918 H   0  0  0  0  0  0  0  0  0  0  0  0
  -11.4818    3.5397    0.4377 H   0  0  0  0  0  0  0  0  0  0  0  0
   -9.0448    6.1382    1.3508 H   0  0  0  0  0  0  0  0  0  0  0  0
   -6.1348    6.2417    1.3770 H   0  0  0  0  0  0  0  0  0  0  0  0
   -6.4398    8.6047    0.7155 H   0  0  0  0  0  0  0  0  0  0  0  0
   -7.5539    8.1360    2.0457 H   0  0  0  0  0  0  0  0  0  0  0  0
   -8.1822    8.2918    0.3603 H   0  0  0  0  0  0  0  0  0  0  0  0
   -5.3581    5.6414   -2.2585 H   0  0  0  0  0  0  0  0  0  0  0  0
   -3.3169    5.9395   -1.3407 H   0  0  0  0  0  0  0  0  0  0  0  0
   -3.9986    9.4289   -0.1960 H   0  0  0  0  0  0  0  0  0  0  0  0
   -4.1481    8.4383   -1.6943 H   0  0  0  0  0  0  0  0  0  0  0  0
   -4.5820    4.7145    1.1890 H   0  0  0  0  0  0  0  0  0  0  0  0
   -4.0392    3.8128   -0.2388 H   0  0  0  0  0  0  0  0  0  0  0  0
   -1.8856    3.6601   -1.1093 H   0  0  0  0  0  0  0  0  0  0  0  0
   -1.0240    5.2326   -0.9960 H   0  0  0  0  0  0  0  0  0  0  0  0
  1  2  1  0
  2  3  2  0
  2  4  1  0
  4  5  1  0
  5  6  1  0
  6  7  1  0
  7  8  1  0
  8  9  1  0
  9 10  2  0
 10 11  1  0
 11 12  2  0
 12 13  1  0
 13 14  2  0
 13 15  1  0
 15 16  1  0
 16 17  1  0
 17 18  1  0
 18 19  1  0
 19 20  1  0
 20 21  2  0
 20 22  1  0
 22 23  1  0
 22 24  1  0
 24 25  1  0
 25 26  2  0
 25 27  1  0
 27 28  1  0
 27 29  1  0
 29 30  1  0
 30 31  2  0
 30 32  1  0
 32 33  1  0
 32 34  1  0
 34 35  1  0
 35 36  2  0
 35 37  1  0
 37 38  1  0
 37 39  1  0
 39 40  1  0
 40 41  2  0
 40 42  1  0
 42 43  1  0
 42 44  1  0
 44 45  1  0
 45 46  2  0
 45 47  1  0
 47 48  1  0
 47 49  1  0
 49 50  1  0
 50 51  2  0
 18 52  1  0
 52 53  2  0
 52 54  1  0
 54 55  1  0
 55 56  1  0
 55 57  1  0
 57 58  2  0
 57 59  1  0
 59 60  1  0
 60 61  1  0
 60 62  1  0
 62 63  2  0
 62 64  1  0
 64 65  1  0
 65 66  1  0
 65 67  1  0
 67 68  2  0
 67 69  1  0
 69 70  1  0
 70 71  1  0
 70 72  1  0
 72 73  2  0
 72 74  1  0
 74 75  1  0
 75 76  1  0
 75 77  1  0
 77 78  2  0
 77 79  1  0
 79 80  1  0
 80 81  1  0
 80 82  1  0
 82 83  2  0
 82 84  1  0
 84 85  1  0
 85 86  1  0
 85 87  1  0
 87 88  2  0
 87 89  1  0
 89 90  1  0
 90 91  1  0
 91 92  1  0
 91 93  2  0
 90 94  1  0
 94 95  1  0
 95 96  1  0
 50  5  1  0
 14  9  1  0
 96 11  1  0
  1 97  1  0
  1 98  1  0
  1 99  1  0
  4100  1  0
  5101  1  1
  6102  1  0
  6103  1  0
  8104  1  0
  8105  1  0
 10106  1  0
 12107  1  0
 14108  1  0
 15109  1  0
 15110  1  0
 17111  1  0
 17112  1  0
 18113  1  6
 19114  1  0
 22115  1  1
 23116  1  0
 23117  1  0
 23118  1  0
 24119  1  0
 27120  1  1
 28121  1  0
 28122  1  0
 28123  1  0
 29124  1  0
 32125  1  1
 33126  1  0
 33127  1  0
 33128  1  0
 34129  1  0
 37130  1  1
 38131  1  0
 38132  1  0
 38133  1  0
 39134  1  0
 42135  1  1
 43136  1  0
 43137  1  0
 43138  1  0
 44139  1  0
 47140  1  1
 48141  1  0
 48142  1  0
 48143  1  0
 49144  1  0
 54145  1  0
 55146  1  6
 56147  1  0
 56148  1  0
 56149  1  0
 59150  1  0
 60151  1  1
 61152  1  0
 61153  1  0
 61154  1  0
 64155  1  0
 65156  1  1
 66157  1  0
 66158  1  0
 66159  1  0
 69160  1  0
 70161  1  1
 71162  1  0
 71163  1  0
 71164  1  0
 74165  1  0
 75166  1  1
 76167  1  0
 76168  1  0
 76169  1  0
 79170  1  0
 80171  1  1
 81172  1  0
 81173  1  0
 81174  1  0
 84175  1  0
 85176  1  1
 86177  1  0
 86178  1  0
 86179  1  0
 89180  1  0
 90181  1  6
 92182  1  0
 92183  1  0
 94184  1  0
 94185  1  0
 96186  1  0
 96187  1  0
M  END
