
     RDKit          3D

197199  0  0  0  0  0  0  0  0999 V2000
    8.0580    7.7421   -3.2670 C   0  0  0  0  0  0  0  0  0  0  0  0
    6.5985    8.0082   -3.4984 C   0  0  0  0  0  0  0  0  0  0  0  0
    6.2263    9.1612   -3.8186 O   0  0  0  0  0  0  0  0  0  0  0  0
    5.6040    6.9590   -3.4075 N   0  0  0  0  0  0  0  0  0  0  0  0
    5.6755    5.7904   -2.5177 C   0  0  2  0  0  0  0  0  0  0  0  0
    5.6998    6.2478   -1.0602 C   0  0  0  0  0  0  0  0  0  0  0  0
    4.0629    6.9513   -0.5987 S   0  0  0  0  0  0  0  0  0  0  0  0
    3.3461    5.4050    0.0488 C   0  0  0  0  0  0  0  0  0  0  0  0
    2.3951    4.7256   -0.9378 C   0  0  0  0  0  0  0  0  0  0  0  0
    1.0317    4.9644   -0.7278 C   0  0  0  0  0  0  0  0  0  0  0  0
    0.1409    3.8891   -0.5603 C   0  0  0  0  0  0  0  0  0  0  0  0
    0.6198    2.5801   -0.7625 C   0  0  0  0  0  0  0  0  0  0  0  0
    1.9578    2.3689   -1.1186 C   0  0  0  0  0  0  0  0  0  0  0  0
    2.7732    3.4518   -1.3878 C   0  0  0  0  0  0  0  0  0  0  0  0
    2.6142    1.0696   -0.6737 C   0  0  0  0  0  0  0  0  0  0  0  0
    2.0855   -0.3663   -1.6849 S   0  0  0  0  0  0  0  0  0  0  0  0
    1.3327   -1.2894   -0.2896 C   0  0  0  0  0  0  0  0  0  0  0  0
    1.1446   -2.7853   -0.5962 C   0  0  1  0  0  0  0  0  0  0  0  0
    0.8090   -3.4433    0.6661 N   0  0  0  0  0  0  0  0  0  0  0  0
    1.7130   -4.2244    1.4557 C   0  0  0  0  0  0  0  0  0  0  0  0
    1.2259   -5.0556    2.2655 O   0  0  0  0  0  0  0  0  0  0  0  0
    3.2215   -4.0514    1.4008 C   0  0  1  0  0  0  0  0  0  0  0  0
    3.7258   -3.6594    2.8012 C   0  0  0  0  0  0  0  0  0  0  0  0
    3.7841   -5.3017    0.8590 N   0  0  0  0  0  0  0  0  0  0  0  0
    4.8940   -6.0779    1.3411 C   0  0  0  0  0  0  0  0  0  0  0  0
    4.7995   -7.3309    1.3114 O   0  0  0  0  0  0  0  0  0  0  0  0
    6.1934   -5.4635    1.7774 C   0  0  1  0  0  0  0  0  0  0  0  0
    6.5227   -5.9151    3.2119 C   0  0  0  0  0  0  0  0  0  0  0  0
    7.2716   -5.9219    0.8891 N   0  0  0  0  0  0  0  0  0  0  0  0
    8.6455   -5.5958    1.1655 C   0  0  0  0  0  0  0  0  0  0  0  0
    9.3563   -6.4490    1.7673 O   0  0  0  0  0  0  0  0  0  0  0  0
    9.1430   -4.1566    1.0296 C   0  0  1  0  0  0  0  0  0  0  0  0
   10.5467   -4.0240    1.6660 C   0  0  0  0  0  0  0  0  0  0  0  0
    9.1438   -3.8026   -0.4092 N   0  0  0  0  0  0  0  0  0  0  0  0
    9.2886   -2.4693   -0.9306 C   0  0  0  0  0  0  0  0  0  0  0  0
    8.4147   -2.0506   -1.7496 O   0  0  0  0  0  0  0  0  0  0  0  0
   10.4741   -1.5942   -0.5864 C   0  0  1  0  0  0  0  0  0  0  0  0
   11.8058   -2.2989   -0.9054 C   0  0  0  0  0  0  0  0  0  0  0  0
   10.4100   -0.3170   -1.3277 N   0  0  0  0  0  0  0  0  0  0  0  0
   10.4373    0.9704   -0.6812 C   0  0  0  0  0  0  0  0  0  0  0  0
   11.0808    1.9022   -1.2444 O   0  0  0  0  0  0  0  0  0  0  0  0
    9.7252    1.2375    0.6043 C   0  0  1  0  0  0  0  0  0  0  0  0
   10.7163    1.1975    1.7728 C   0  0  0  0  0  0  0  0  0  0  0  0
    9.0563    2.5377    0.5477 N   0  0  0  0  0  0  0  0  0  0  0  0
    7.7537    2.7093   -0.0295 C   0  0  0  0  0  0  0  0  0  0  0  0
    6.7708    2.8678    0.7411 O   0  0  0  0  0  0  0  0  0  0  0  0
    7.5895    2.8411   -1.5198 C   0  0  1  0  0  0  0  0  0  0  0  0
    6.2909    2.1411   -1.9671 C   0  0  0  0  0  0  0  0  0  0  0  0
    7.6300    4.2615   -1.8672 N   0  0  0  0  0  0  0  0  0  0  0  0
    6.8189    4.8609   -2.8924 C   0  0  0  0  0  0  0  0  0  0  0  0
    6.9340    4.4810   -4.0895 O   0  0  0  0  0  0  0  0  0  0  0  0
    0.0490   -3.0023   -1.6202 C   0  0  0  0  0  0  0  0  0  0  0  0
    0.1953   -2.5910   -2.8080 O   0  0  0  0  0  0  0  0  0  0  0  0
   -1.1491   -3.6861   -1.2611 N   0  0  0  0  0  0  0  0  0  0  0  0
   -1.1180   -5.1597   -1.2023 C   0  0  2  0  0  0  0  0  0  0  0  0
   -1.0868   -5.7447   -2.6258 C   0  0  0  0  0  0  0  0  0  0  0  0
   -2.2226   -5.6581   -0.3037 C   0  0  0  0  0  0  0  0  0  0  0  0
   -2.2044   -5.3198    0.9072 O   0  0  0  0  0  0  0  0  0  0  0  0
   -3.2201   -6.6058   -0.7331 N   0  0  0  0  0  0  0  0  0  0  0  0
   -4.1417   -6.4114   -1.8751 C   0  0  2  0  0  0  0  0  0  0  0  0
   -4.5912   -4.9502   -2.0033 C   0  0  0  0  0  0  0  0  0  0  0  0
   -5.3003   -7.3818   -1.7874 C   0  0  0  0  0  0  0  0  0  0  0  0
   -5.0971   -8.5661   -2.1698 O   0  0  0  0  0  0  0  0  0  0  0  0
   -6.6198   -7.0389   -1.3349 N   0  0  0  0  0  0  0  0  0  0  0  0
   -6.9225   -6.2469   -0.1383 C   0  0  2  0  0  0  0  0  0  0  0  0
   -6.3935   -6.9289    1.1264 C   0  0  0  0  0  0  0  0  0  0  0  0
   -8.4181   -6.0284   -0.0235 C   0  0  0  0  0  0  0  0  0  0  0  0
   -9.1947   -7.0247   -0.0683 O   0  0  0  0  0  0  0  0  0  0  0  0
   -8.9880   -4.7197    0.0925 N   0  0  0  0  0  0  0  0  0  0  0  0
   -8.3910   -3.6421    0.8891 C   0  0  2  0  0  0  0  0  0  0  0  0
   -9.1932   -3.4048    2.1722 C   0  0  0  0  0  0  0  0  0  0  0  0
   -8.2256   -2.3725    0.0621 C   0  0  0  0  0  0  0  0  0  0  0  0
   -7.0899   -1.8067    0.0850 O   0  0  0  0  0  0  0  0  0  0  0  0
   -9.2384   -1.8395   -0.8114 N   0  0  0  0  0  0  0  0  0  0  0  0
  -10.6515   -1.7338   -0.4603 C   0  0  2  0  0  0  0  0  0  0  0  0
  -11.4931   -1.6012   -1.7232 C   0  0  0  0  0  0  0  0  0  0  0  0
  -10.8870   -0.5321    0.4163 C   0  0  0  0  0  0  0  0  0  0  0  0
  -11.4194   -0.6763    1.5582 O   0  0  0  0  0  0  0  0  0  0  0  0
  -10.5411    0.7742   -0.0402 N   0  0  0  0  0  0  0  0  0  0  0  0
   -9.3165    1.4354    0.4009 C   0  0  2  0  0  0  0  0  0  0  0  0
   -9.6157    2.2832    1.6410 C   0  0  0  0  0  0  0  0  0  0  0  0
   -8.7340    2.2562   -0.7340 C   0  0  0  0  0  0  0  0  0  0  0  0
   -8.7846    1.7958   -1.9070 O   0  0  0  0  0  0  0  0  0  0  0  0
   -7.9904    3.4589   -0.4958 N   0  0  0  0  0  0  0  0  0  0  0  0
   -8.5830    4.7867   -0.5702 C   0  0  2  0  0  0  0  0  0  0  0  0
   -9.4099    4.9482   -1.8641 C   0  0  0  0  0  0  0  0  0  0  0  0
   -7.4965    5.8419   -0.4803 C   0  0  0  0  0  0  0  0  0  0  0  0
   -7.3027    6.6398   -1.4422 O   0  0  0  0  0  0  0  0  0  0  0  0
   -6.6474    5.9569    0.6736 N   0  0  0  0  0  0  0  0  0  0  0  0
   -6.9166    5.3525    1.9762 C   0  0  2  0  0  0  0  0  0  0  0  0
   -7.2149    6.4502    3.0005 C   0  0  0  0  0  0  0  0  0  0  0  0
   -5.7702    4.4996    2.4175 C   0  0  0  0  0  0  0  0  0  0  0  0
   -5.8538    3.2418    2.3004 O   0  0  0  0  0  0  0  0  0  0  0  0
   -4.6245    5.0640    3.0602 N   0  0  0  0  0  0  0  0  0  0  0  0
   -3.4366    5.4685    2.3120 C   0  0  1  0  0  0  0  0  0  0  0  0
   -3.0880    6.8812    2.6803 C   0  0  0  0  0  0  0  0  0  0  0  0
   -3.2036    7.9179    1.7217 N   0  0  0  0  0  0  0  0  0  0  0  0
   -2.7123    7.1581    3.8508 O   0  0  0  0  0  0  0  0  0  0  0  0
   -2.2879    4.5043    2.6326 C   0  0  0  0  0  0  0  0  0  0  0  0
   -0.7513    4.9224    1.7545 S   0  0  0  0  0  0  0  0  0  0  0  0
   -1.1579    4.1453    0.1528 C   0  0  0  0  0  0  0  0  0  0  0  0
    8.4482    7.0805   -4.0601 H   0  0  0  0  0  0  0  0  0  0  0  0
    8.6150    8.7177   -3.2915 H   0  0  0  0  0  0  0  0  0  0  0  0
    8.2541    7.2998   -2.2691 H   0  0  0  0  0  0  0  0  0  0  0  0
    4.6475    7.2204   -3.7032 H   0  0  0  0  0  0  0  0  0  0  0  0
    4.7555    5.1792   -2.6680 H   0  0  0  0  0  0  0  0  0  0  0  0
    6.0127    5.4283   -0.3485 H   0  0  0  0  0  0  0  0  0  0  0  0
    6.4554    7.0485   -0.9109 H   0  0  0  0  0  0  0  0  0  0  0  0
    2.7940    5.6764    0.9764 H   0  0  0  0  0  0  0  0  0  0  0  0
    4.1125    4.6739    0.4062 H   0  0  0  0  0  0  0  0  0  0  0  0
    0.7219    5.9511   -0.3802 H   0  0  0  0  0  0  0  0  0  0  0  0
    0.0149    1.7529   -0.4575 H   0  0  0  0  0  0  0  0  0  0  0  0
    3.2828    3.4436   -2.3831 H   0  0  0  0  0  0  0  0  0  0  0  0
    3.7286    1.1522   -0.7227 H   0  0  0  0  0  0  0  0  0  0  0  0
    2.3811    0.9308    0.3953 H   0  0  0  0  0  0  0  0  0  0  0  0
    2.0101   -1.2398    0.5943 H   0  0  0  0  0  0  0  0  0  0  0  0
    0.3561   -0.8396   -0.0058 H   0  0  0  0  0  0  0  0  0  0  0  0
    2.0839   -3.2269   -1.0132 H   0  0  0  0  0  0  0  0  0  0  0  0
   -0.1478   -3.2868    1.0646 H   0  0  0  0  0  0  0  0  0  0  0  0
    3.4870   -3.2140    0.6975 H   0  0  0  0  0  0  0  0  0  0  0  0
    3.0143   -2.9353    3.2704 H   0  0  0  0  0  0  0  0  0  0  0  0
    3.7581   -4.5486    3.4582 H   0  0  0  0  0  0  0  0  0  0  0  0
    4.7115   -3.1437    2.7557 H   0  0  0  0  0  0  0  0  0  0  0  0
    3.2409   -5.7354    0.0740 H   0  0  0  0  0  0  0  0  0  0  0  0
    6.1695   -4.3522    1.7079 H   0  0  0  0  0  0  0  0  0  0  0  0
    7.3859   -5.3246    3.6075 H   0  0  0  0  0  0  0  0  0  0  0  0
    6.7795   -6.9963    3.2282 H   0  0  0  0  0  0  0  0  0  0  0  0
    5.6687   -5.7302    3.8864 H   0  0  0  0  0  0  0  0  0  0  0  0
    7.0913   -6.7460    0.2657 H   0  0  0  0  0  0  0  0  0  0  0  0
    8.4428   -3.4901    1.5946 H   0  0  0  0  0  0  0  0  0  0  0  0
   10.8539   -2.9739    1.7859 H   0  0  0  0  0  0  0  0  0  0  0  0
   10.5351   -4.4646    2.6908 H   0  0  0  0  0  0  0  0  0  0  0  0
   11.2985   -4.5703    1.0631 H   0  0  0  0  0  0  0  0  0  0  0  0
    8.5753   -4.4279   -1.0275 H   0  0  0  0  0  0  0  0  0  0  0  0
   10.3937   -1.3747    0.4950 H   0  0  0  0  0  0  0  0  0  0  0  0
   11.6470   -3.2888   -1.3962 H   0  0  0  0  0  0  0  0  0  0  0  0
   12.3820   -2.4632    0.0271 H   0  0  0  0  0  0  0  0  0  0  0  0
   12.4291   -1.6944   -1.5847 H   0  0  0  0  0  0  0  0  0  0  0  0
   10.6013   -0.3514   -2.3617 H   0  0  0  0  0  0  0  0  0  0  0  0
    8.9564    0.4436    0.7756 H   0  0  0  0  0  0  0  0  0  0  0  0
   11.1866    0.1976    1.8849 H   0  0  0  0  0  0  0  0  0  0  0  0
   10.1948    1.4412    2.7128 H   0  0  0  0  0  0  0  0  0  0  0  0
   11.5257    1.9562    1.6109 H   0  0  0  0  0  0  0  0  0  0  0  0
    9.3769    3.2851    1.1886 H   0  0  0  0  0  0  0  0  0  0  0  0
    8.4332    2.3361   -2.0366 H   0  0  0  0  0  0  0  0  0  0  0  0
    6.2151    2.1598   -3.0735 H   0  0  0  0  0  0  0  0  0  0  0  0
    6.2969    1.0905   -1.6465 H   0  0  0  0  0  0  0  0  0  0  0  0
    5.4073    2.6477   -1.5241 H   0  0  0  0  0  0  0  0  0  0  0  0
    8.5037    4.7844   -1.6053 H   0  0  0  0  0  0  0  0  0  0  0  0
   -2.0387   -3.2356   -1.5869 H   0  0  0  0  0  0  0  0  0  0  0  0
   -0.1682   -5.4661   -0.7029 H   0  0  0  0  0  0  0  0  0  0  0  0
   -1.2115   -6.8394   -2.5692 H   0  0  0  0  0  0  0  0  0  0  0  0
   -0.1047   -5.5407   -3.0750 H   0  0  0  0  0  0  0  0  0  0  0  0
   -1.8556   -5.2920   -3.2404 H   0  0  0  0  0  0  0  0  0  0  0  0
   -3.4274   -7.3806   -0.0637 H   0  0  0  0  0  0  0  0  0  0  0  0
   -3.6068   -6.6646   -2.8085 H   0  0  0  0  0  0  0  0  0  0  0  0
   -5.5870   -4.8704   -2.4865 H   0  0  0  0  0  0  0  0  0  0  0  0
   -4.6010   -4.4317   -1.0220 H   0  0  0  0  0  0  0  0  0  0  0  0
   -3.8984   -4.3817   -2.6563 H   0  0  0  0  0  0  0  0  0  0  0  0
   -7.3976   -7.5653   -1.7928 H   0  0  0  0  0  0  0  0  0  0  0  0
   -6.4452   -5.2533   -0.2226 H   0  0  0  0  0  0  0  0  0  0  0  0
   -6.5828   -8.0288    1.0860 H   0  0  0  0  0  0  0  0  0  0  0  0
   -5.3029   -6.7698    1.2014 H   0  0  0  0  0  0  0  0  0  0  0  0
   -6.8736   -6.4946    2.0409 H   0  0  0  0  0  0  0  0  0  0  0  0
   -9.9658   -4.6093   -0.2619 H   0  0  0  0  0  0  0  0  0  0  0  0
   -7.3805   -3.9344    1.2388 H   0  0  0  0  0  0  0  0  0  0  0  0
   -8.8372   -2.5013    2.7013 H   0  0  0  0  0  0  0  0  0  0  0  0
   -9.0516   -4.2761    2.8520 H   0  0  0  0  0  0  0  0  0  0  0  0
  -10.2841   -3.3194    1.9717 H   0  0  0  0  0  0  0  0  0  0  0  0
   -8.8995   -1.2376   -1.5875 H   0  0  0  0  0  0  0  0  0  0  0  0
  -11.0066   -2.6524    0.0457 H   0  0  0  0  0  0  0  0  0  0  0  0
  -12.5690   -1.5126   -1.4713 H   0  0  0  0  0  0  0  0  0  0  0  0
  -11.1816   -0.6962   -2.3018 H   0  0  0  0  0  0  0  0  0  0  0  0
  -11.3383   -2.5067   -2.3743 H   0  0  0  0  0  0  0  0  0  0  0  0
  -11.3028    1.3574   -0.4356 H   0  0  0  0  0  0  0  0  0  0  0  0
   -8.5505    0.6787    0.6752 H   0  0  0  0  0  0  0  0  0  0  0  0
  -10.3290    3.1007    1.3978 H   0  0  0  0  0  0  0  0  0  0  0  0
   -8.6767    2.7009    2.0775 H   0  0  0  0  0  0  0  0  0  0  0  0
  -10.0782    1.6311    2.4137 H   0  0  0  0  0  0  0  0  0  0  0  0
   -6.9443    3.3674   -0.5200 H   0  0  0  0  0  0  0  0  0  0  0  0
   -9.2952    4.9295    0.2703 H   0  0  0  0  0  0  0  0  0  0  0  0
   -8.7815    4.7369   -2.7532 H   0  0  0  0  0  0  0  0  0  0  0  0
  -10.2693    4.2377   -1.8532 H   0  0  0  0  0  0  0  0  0  0  0  0
   -9.8223    5.9766   -1.9321 H   0  0  0  0  0  0  0  0  0  0  0  0
   -5.8329    6.6075    0.5955 H   0  0  0  0  0  0  0  0  0  0  0  0
   -7.8341    4.7300    1.9276 H   0  0  0  0  0  0  0  0  0  0  0  0
   -8.0610    7.0762    2.6535 H   0  0  0  0  0  0  0  0  0  0  0  0
   -6.3260    7.1047    3.1286 H   0  0  0  0  0  0  0  0  0  0  0  0
   -7.4613    5.9819    3.9843 H   0  0  0  0  0  0  0  0  0  0  0  0
   -4.5357    4.9052    4.0911 H   0  0  0  0  0  0  0  0  0  0  0  0
   -3.6492    5.4122    1.2349 H   0  0  0  0  0  0  0  0  0  0  0  0
   -3.4998    7.7211    0.7486 H   0  0  0  0  0  0  0  0  0  0  0  0
   -3.1817    8.9220    2.0255 H   0  0  0  0  0  0  0  0  0  0  0  0
   -2.5981    3.4542    2.4102 H   0  0  0  0  0  0  0  0  0  0  0  0
   -2.0501    4.5493    3.7228 H   0  0  0  0  0  0  0  0  0  0  0  0
   -1.6870    3.1800    0.3074 H   0  0  0  0  0  0  0  0  0  0  0  0
   -1.8139    4.8321   -0.4474 H   0  0  0  0  0  0  0  0  0  0  0  0
  1  2  1  0
  2  3  2  0
  2  4  1  0
  4  5  1  0
  5  6  1  0
  6  7  1  0
  7  8  1  0
  8  9  1  0
  9 10  2  0
 10 11  1  0
 11 12  2  0
 12 13  1  0
 13 14  2  0
 13 15  1  0
 15 16  1  0
 16 17  1  0
 17 18  1  0
 18 19  1  0
 19 20  1  0
 20 21  2  0
 20 22  1  0
 22 23  1  0
 22 24  1  0
 24 25  1  0
 25 26  2  0
 25 27  1  0
 27 28  1  0
 27 29  1  0
 29 30  1  0
 30 31  2  0
 30 32  1  0
 32 33  1  0
 32 34  1  0
 34 35  1  0
 35 36  2  0
 35 37  1  0
 37 38  1  0
 37 39  1  0
 39 40  1  0
 40 41  2  0
 40 42  1  0
 42 43  1  0
 42 44  1  0
 44 45  1  0
 45 46  2  0
 45 47  1  0
 47 48  1  0
 47 49  1  0
 49 50  1  0
 50 51  2  0
 18 52  1  0
 52 53  2  0
 52 54  1  0
 54 55  1  0
 55 56  1  0
 55 57  1  0
 57 58  2  0
 57 59  1  0
 59 60  1  0
 60 61  1  0
 60 62  1  0
 62 63  2  0
 62 64  1  0
 64 65  1  0
 65 66  1  0
 65 67  1  0
 67 68  2  0
 67 69  1  0
 69 70  1  0
 70 71  1  0
 70 72  1  0
 72 73  2  0
 72 74  1  0
 74 75  1  0
 75 76  1  0
 75 77  1  0
 77 78  2  0
 77 79  1  0
 79 80  1  0
 80 81  1  0
 80 82  1  0
 82 83  2  0
 82 84  1  0
 84 85  1  0
 85 86  1  0
 85 87  1  0
 87 88  2  0
 87 89  1  0
 89 90  1  0
 90 91  1  0
 90 92  1  0
 92 93  2  0
 92 94  1  0
 94 95  1  0
 95 96  1  0
 96 97  1  0
 96 98  2  0
 95 99  1  0
 99100  1  0
100101  1  0
 50  5  1  0
 14  9  1  0
101 11  1  0
  1102  1  0
  1103  1  0
  1104  1  0
  4105  1  0
  5106  1  1
  6107  1  0
  6108  1  0
  8109  1  0
  8110  1  0
 10111  1  0
 12112  1  0
 14113  1  0
 15114  1  0
 15115  1  0
 17116  1  0
 17117  1  0
 18118  1  6
 19119  1  0
 22120  1  6
 23121  1  0
 23122  1  0
 23123  1  0
 24124  1  0
 27125  1  1
 28126  1  0
 28127  1  0
 28128  1  0
 29129  1  0
 32130  1  1
 33131  1  0
 33132  1  0
 33133  1  0
 34134  1  0
 37135  1  1
 38136  1  0
 38137  1  0
 38138  1  0
 39139  1  0
 42140  1  1
 43141  1  0
 43142  1  0
 43143  1  0
 44144  1  0
 47145  1  6
 48146  1  0
 48147  1  0
 48148  1  0
 49149  1  0
 54150  1  0
 55151  1  1
 56152  1  0
 56153  1  0
 56154  1  0
 59155  1  0
 60156  1  6
 61157  1  0
 61158  1  0
 61159  1  0
 64160  1  0
 65161  1  6
 66162  1  0
 66163  1  0
 66164  1  0
 69165  1  0
 70166  1  1
 71167  1  0
 71168  1  0
 71169  1  0
 74170  1  0
 75171  1  1
 76172  1  0
 76173  1  0
 76174  1  0
 79175  1  0
 80176  1  1
 81177  1  0
 81178  1  0
 81179  1  0
 84180  1  0
 85181  1  1
 86182  1  0
 86183  1  0
 86184  1  0
 89185  1  0
 90186  1  6
 91187  1  0
 91188  1  0
 91189  1  0
 94190  1  0
 95191  1  6
 97192  1  0
 97193  1  0
 99194  1  0
 99195  1  0
101196  1  0
101197  1  0
M  END
