
     RDKit          3D

197199  0  0  0  0  0  0  0  0999 V2000
   -4.6714   -6.5107    1.3683 C   0  0  0  0  0  0  0  0  0  0  0  0
   -5.6807   -7.0775    0.4139 C   0  0  0  0  0  0  0  0  0  0  0  0
   -5.7953   -8.3257    0.3692 O   0  0  0  0  0  0  0  0  0  0  0  0
   -6.5138   -6.2801   -0.4492 N   0  0  0  0  0  0  0  0  0  0  0  0
   -6.4920   -4.8211   -0.6081 C   0  0  2  0  0  0  0  0  0  0  0  0
   -5.1578   -4.3860   -1.2551 C   0  0  0  0  0  0  0  0  0  0  0  0
   -5.2428   -2.6719   -1.9062 S   0  0  0  0  0  0  0  0  0  0  0  0
   -3.6291   -2.7173   -2.7624 C   0  0  0  0  0  0  0  0  0  0  0  0
   -2.5122   -2.2874   -1.8458 C   0  0  0  0  0  0  0  0  0  0  0  0
   -2.4316   -0.9564   -1.4050 C   0  0  0  0  0  0  0  0  0  0  0  0
   -1.3517   -0.5267   -0.6115 C   0  0  0  0  0  0  0  0  0  0  0  0
   -0.3450   -1.4441   -0.2696 C   0  0  0  0  0  0  0  0  0  0  0  0
   -0.4399   -2.7836   -0.6716 C   0  0  0  0  0  0  0  0  0  0  0  0
   -1.5047   -3.1921   -1.4862 C   0  0  0  0  0  0  0  0  0  0  0  0
    0.6275   -3.7560   -0.2777 C   0  0  0  0  0  0  0  0  0  0  0  0
    2.0310   -3.6446   -1.4469 S   0  0  0  0  0  0  0  0  0  0  0  0
    2.3413   -5.4414   -1.5913 C   0  0  0  0  0  0  0  0  0  0  0  0
    2.9972   -6.0214   -0.3173 C   0  0  1  0  0  0  0  0  0  0  0  0
    2.7229   -7.4972   -0.2130 C   0  0  0  0  0  0  0  0  0  0  0  0
    2.0075   -8.0228    0.9085 N   0  0  0  0  0  0  0  0  0  0  0  0
    3.1153   -8.2797   -1.1180 O   0  0  0  0  0  0  0  0  0  0  0  0
    4.4406   -5.7900   -0.3296 N   0  0  0  0  0  0  0  0  0  0  0  0
    5.1458   -5.2857    0.8196 C   0  0  0  0  0  0  0  0  0  0  0  0
    4.5241   -4.6253    1.6983 O   0  0  0  0  0  0  0  0  0  0  0  0
    6.6039   -5.5966    1.0450 C   0  0  1  0  0  0  0  0  0  0  0  0
    6.7316   -6.9042    1.8259 C   0  0  0  0  0  0  0  0  0  0  0  0
    7.3274   -5.7043   -0.2262 N   0  0  0  0  0  0  0  0  0  0  0  0
    8.4013   -4.8509   -0.6544 C   0  0  0  0  0  0  0  0  0  0  0  0
    9.3295   -5.3700   -1.3398 O   0  0  0  0  0  0  0  0  0  0  0  0
    8.4473   -3.3547   -0.4128 C   0  0  1  0  0  0  0  0  0  0  0  0
    7.0692   -2.6852   -0.4572 C   0  0  0  0  0  0  0  0  0  0  0  0
    9.1339   -3.0551    0.8490 N   0  0  0  0  0  0  0  0  0  0  0  0
   10.0597   -1.9691    0.9701 C   0  0  0  0  0  0  0  0  0  0  0  0
    9.7645   -1.0078    1.7262 O   0  0  0  0  0  0  0  0  0  0  0  0
   11.4039   -1.9720    0.2843 C   0  0  1  0  0  0  0  0  0  0  0  0
   11.9468   -3.3823    0.0583 C   0  0  0  0  0  0  0  0  0  0  0  0
   11.3333   -1.2477   -0.9891 N   0  0  0  0  0  0  0  0  0  0  0  0
   11.9486    0.0354   -1.2081 C   0  0  0  0  0  0  0  0  0  0  0  0
   12.3426    0.3333   -2.3693 O   0  0  0  0  0  0  0  0  0  0  0  0
   12.0725    1.0619   -0.1062 C   0  0  1  0  0  0  0  0  0  0  0  0
   13.5280    1.1950    0.3382 C   0  0  0  0  0  0  0  0  0  0  0  0
   11.5633    2.3527   -0.5750 N   0  0  0  0  0  0  0  0  0  0  0  0
   10.3583    2.9069   -0.0532 C   0  0  0  0  0  0  0  0  0  0  0  0
   10.4070    3.5726    1.0204 O   0  0  0  0  0  0  0  0  0  0  0  0
    9.0796    2.8553   -0.8507 C   0  0  1  0  0  0  0  0  0  0  0  0
    8.9218    1.5163   -1.5705 C   0  0  0  0  0  0  0  0  0  0  0  0
    7.9307    3.0563    0.0316 N   0  0  0  0  0  0  0  0  0  0  0  0
    7.0502    4.1895   -0.0797 C   0  0  0  0  0  0  0  0  0  0  0  0
    7.2702    5.0853   -0.9395 O   0  0  0  0  0  0  0  0  0  0  0  0
    5.8793    4.3343    0.8552 C   0  0  1  0  0  0  0  0  0  0  0  0
    6.0531    5.5547    1.7662 C   0  0  0  0  0  0  0  0  0  0  0  0
    4.6176    4.3964    0.1040 N   0  0  0  0  0  0  0  0  0  0  0  0
    4.2801    5.4748   -0.7748 C   0  0  0  0  0  0  0  0  0  0  0  0
    4.5835    5.4032   -1.9965 O   0  0  0  0  0  0  0  0  0  0  0  0
    3.4503    6.6275   -0.2740 C   0  0  1  0  0  0  0  0  0  0  0  0
    4.1103    7.9773   -0.6135 C   0  0  0  0  0  0  0  0  0  0  0  0
    2.1273    6.5776   -0.8967 N   0  0  0  0  0  0  0  0  0  0  0  0
    0.9205    7.0085   -0.2387 C   0  0  0  0  0  0  0  0  0  0  0  0
    0.0310    7.5790   -0.9182 O   0  0  0  0  0  0  0  0  0  0  0  0
    0.7018    6.8023    1.2413 C   0  0  1  0  0  0  0  0  0  0  0  0
    1.0910    8.0712    2.0030 C   0  0  0  0  0  0  0  0  0  0  0  0
   -0.7018    6.4915    1.5137 N   0  0  0  0  0  0  0  0  0  0  0  0
   -1.1443    5.2411    2.0646 C   0  0  0  0  0  0  0  0  0  0  0  0
   -1.9476    5.2604    3.0329 O   0  0  0  0  0  0  0  0  0  0  0  0
   -0.6683    3.9180    1.4974 C   0  0  1  0  0  0  0  0  0  0  0  0
   -1.5893    2.7337    1.8548 C   0  0  0  0  0  0  0  0  0  0  0  0
   -0.8133    1.1027    1.5555 S   0  0  0  0  0  0  0  0  0  0  0  0
   -1.2338    0.9234   -0.2198 C   0  0  0  0  0  0  0  0  0  0  0  0
   -0.4599    4.0067    0.0397 N   0  0  0  0  0  0  0  0  0  0  0  0
   -1.4686    4.1789   -0.9713 C   0  0  0  0  0  0  0  0  0  0  0  0
   -1.1739    3.9094   -2.1677 O   0  0  0  0  0  0  0  0  0  0  0  0
   -2.8647    4.7087   -0.6857 C   0  0  1  0  0  0  0  0  0  0  0  0
   -3.0870    6.0135   -1.4540 C   0  0  0  0  0  0  0  0  0  0  0  0
   -3.8635    3.7268   -1.1030 N   0  0  0  0  0  0  0  0  0  0  0  0
   -4.8204    3.1039   -0.2330 C   0  0  0  0  0  0  0  0  0  0  0  0
   -5.0277    1.8624   -0.3729 O   0  0  0  0  0  0  0  0  0  0  0  0
   -5.7697    3.8810    0.6564 C   0  0  1  0  0  0  0  0  0  0  0  0
   -5.1183    4.5418    1.8762 C   0  0  0  0  0  0  0  0  0  0  0  0
   -6.5031    4.8690   -0.1390 N   0  0  0  0  0  0  0  0  0  0  0  0
   -7.7759    4.6496   -0.7683 C   0  0  0  0  0  0  0  0  0  0  0  0
   -8.0024    5.2040   -1.8769 O   0  0  0  0  0  0  0  0  0  0  0  0
   -8.8868    3.8751   -0.1078 C   0  0  1  0  0  0  0  0  0  0  0  0
  -10.0247    4.8140    0.2858 C   0  0  0  0  0  0  0  0  0  0  0  0
   -9.3830    2.8444   -1.0180 N   0  0  0  0  0  0  0  0  0  0  0  0
   -9.0675    1.4659   -0.8173 C   0  0  0  0  0  0  0  0  0  0  0  0
   -7.9231    1.0349   -1.1335 O   0  0  0  0  0  0  0  0  0  0  0  0
  -10.1156    0.4965   -0.3319 C   0  0  1  0  0  0  0  0  0  0  0  0
  -11.1324    1.1818    0.5863 C   0  0  0  0  0  0  0  0  0  0  0  0
  -10.8029   -0.1069   -1.4764 N   0  0  0  0  0  0  0  0  0  0  0  0
  -11.3149   -1.4531   -1.5068 C   0  0  0  0  0  0  0  0  0  0  0  0
  -11.8660   -1.8672   -2.5667 O   0  0  0  0  0  0  0  0  0  0  0  0
  -11.1551   -2.4020   -0.3439 C   0  0  1  0  0  0  0  0  0  0  0  0
  -12.3384   -3.3915   -0.2625 C   0  0  0  0  0  0  0  0  0  0  0  0
   -9.8563   -3.0764   -0.4448 N   0  0  0  0  0  0  0  0  0  0  0  0
   -9.6610   -4.4703   -0.2106 C   0  0  0  0  0  0  0  0  0  0  0  0
   -9.8595   -5.2903   -1.1517 O   0  0  0  0  0  0  0  0  0  0  0  0
   -9.2515   -4.9396    1.1579 C   0  0  1  0  0  0  0  0  0  0  0  0
   -9.4026   -6.4519    1.3588 C   0  0  0  0  0  0  0  0  0  0  0  0
   -7.9044   -4.4957    1.5494 N   0  0  0  0  0  0  0  0  0  0  0  0
   -6.8054   -4.1103    0.7011 C   0  0  0  0  0  0  0  0  0  0  0  0
   -6.0283   -3.1961    1.1080 O   0  0  0  0  0  0  0  0  0  0  0  0
   -3.6502   -6.8272    1.0589 H   0  0  0  0  0  0  0  0  0  0  0  0
   -4.6965   -5.4117    1.4441 H   0  0  0  0  0  0  0  0  0  0  0  0
   -4.8712   -6.9163    2.3797 H   0  0  0  0  0  0  0  0  0  0  0  0
   -7.1825   -6.7973   -1.0554 H   0  0  0  0  0  0  0  0  0  0  0  0
   -7.2838   -4.5440   -1.3377 H   0  0  0  0  0  0  0  0  0  0  0  0
   -4.3151   -4.4511   -0.5370 H   0  0  0  0  0  0  0  0  0  0  0  0
   -4.9425   -5.0690   -2.1024 H   0  0  0  0  0  0  0  0  0  0  0  0
   -3.4425   -3.7266   -3.1836 H   0  0  0  0  0  0  0  0  0  0  0  0
   -3.6794   -2.0227   -3.6241 H   0  0  0  0  0  0  0  0  0  0  0  0
   -3.2019   -0.2533   -1.6955 H   0  0  0  0  0  0  0  0  0  0  0  0
    0.5115   -1.1125    0.3107 H   0  0  0  0  0  0  0  0  0  0  0  0
   -1.5450   -4.2232   -1.8265 H   0  0  0  0  0  0  0  0  0  0  0  0
    0.2044   -4.7795   -0.2380 H   0  0  0  0  0  0  0  0  0  0  0  0
    1.0054   -3.5259    0.7426 H   0  0  0  0  0  0  0  0  0  0  0  0
    1.3792   -5.9617   -1.8112 H   0  0  0  0  0  0  0  0  0  0  0  0
    3.0052   -5.6134   -2.4650 H   0  0  0  0  0  0  0  0  0  0  0  0
    2.5413   -5.5359    0.5693 H   0  0  0  0  0  0  0  0  0  0  0  0
    1.8019   -9.0474    0.9623 H   0  0  0  0  0  0  0  0  0  0  0  0
    1.6748   -7.4024    1.6779 H   0  0  0  0  0  0  0  0  0  0  0  0
    4.9786   -6.1565   -1.1462 H   0  0  0  0  0  0  0  0  0  0  0  0
    7.0415   -4.7993    1.6722 H   0  0  0  0  0  0  0  0  0  0  0  0
    6.2989   -7.7502    1.2490 H   0  0  0  0  0  0  0  0  0  0  0  0
    6.2042   -6.8233    2.8047 H   0  0  0  0  0  0  0  0  0  0  0  0
    7.8043   -7.1215    2.0243 H   0  0  0  0  0  0  0  0  0  0  0  0
    7.1887   -6.5919   -0.7732 H   0  0  0  0  0  0  0  0  0  0  0  0
    9.0236   -2.9088   -1.2534 H   0  0  0  0  0  0  0  0  0  0  0  0
    6.4760   -3.0655   -1.3195 H   0  0  0  0  0  0  0  0  0  0  0  0
    7.1929   -1.5880   -0.5791 H   0  0  0  0  0  0  0  0  0  0  0  0
    6.5003   -2.8526    0.4784 H   0  0  0  0  0  0  0  0  0  0  0  0
    8.7161   -3.3978    1.7419 H   0  0  0  0  0  0  0  0  0  0  0  0
   12.1301   -1.4700    0.9590 H   0  0  0  0  0  0  0  0  0  0  0  0
   11.9376   -3.9530    1.0150 H   0  0  0  0  0  0  0  0  0  0  0  0
   12.9959   -3.3230   -0.3004 H   0  0  0  0  0  0  0  0  0  0  0  0
   11.3468   -3.9232   -0.6994 H   0  0  0  0  0  0  0  0  0  0  0  0
   10.9837   -1.7537   -1.8376 H   0  0  0  0  0  0  0  0  0  0  0  0
   11.4780    0.7371    0.7748 H   0  0  0  0  0  0  0  0  0  0  0  0
   13.9503    0.1999    0.5927 H   0  0  0  0  0  0  0  0  0  0  0  0
   13.5903    1.8422    1.2348 H   0  0  0  0  0  0  0  0  0  0  0  0
   14.1417    1.6411   -0.4741 H   0  0  0  0  0  0  0  0  0  0  0  0
   11.9951    2.7808   -1.4311 H   0  0  0  0  0  0  0  0  0  0  0  0
    9.1335    3.6502   -1.6283 H   0  0  0  0  0  0  0  0  0  0  0  0
    8.9977    0.6736   -0.8522 H   0  0  0  0  0  0  0  0  0  0  0  0
    7.9315    1.4690   -2.0706 H   0  0  0  0  0  0  0  0  0  0  0  0
    9.7018    1.4087   -2.3536 H   0  0  0  0  0  0  0  0  0  0  0  0
    7.7846    2.3772    0.8196 H   0  0  0  0  0  0  0  0  0  0  0  0
    5.8287    3.4416    1.5166 H   0  0  0  0  0  0  0  0  0  0  0  0
    6.1931    6.4770    1.1669 H   0  0  0  0  0  0  0  0  0  0  0  0
    5.1617    5.6763    2.4201 H   0  0  0  0  0  0  0  0  0  0  0  0
    6.9479    5.4215    2.4082 H   0  0  0  0  0  0  0  0  0  0  0  0
    4.0891    3.5077   -0.0301 H   0  0  0  0  0  0  0  0  0  0  0  0
    3.3765    6.5546    0.8243 H   0  0  0  0  0  0  0  0  0  0  0  0
    3.4565    8.8124   -0.2687 H   0  0  0  0  0  0  0  0  0  0  0  0
    5.0936    8.0671   -0.1110 H   0  0  0  0  0  0  0  0  0  0  0  0
    4.2693    8.0717   -1.7041 H   0  0  0  0  0  0  0  0  0  0  0  0
    2.0848    6.5067   -1.9390 H   0  0  0  0  0  0  0  0  0  0  0  0
    1.3353    5.9623    1.5910 H   0  0  0  0  0  0  0  0  0  0  0  0
    2.1720    8.2829    1.8904 H   0  0  0  0  0  0  0  0  0  0  0  0
    0.5187    8.9408    1.6175 H   0  0  0  0  0  0  0  0  0  0  0  0
    0.8564    7.9509    3.0825 H   0  0  0  0  0  0  0  0  0  0  0  0
   -1.4006    7.2729    1.4935 H   0  0  0  0  0  0  0  0  0  0  0  0
    0.3205    3.7184    1.9799 H   0  0  0  0  0  0  0  0  0  0  0  0
   -1.8272    2.7678    2.9359 H   0  0  0  0  0  0  0  0  0  0  0  0
   -2.5573    2.7991    1.3307 H   0  0  0  0  0  0  0  0  0  0  0  0
   -2.1873    1.4451   -0.4385 H   0  0  0  0  0  0  0  0  0  0  0  0
   -0.4310    1.3874   -0.8267 H   0  0  0  0  0  0  0  0  0  0  0  0
    0.5264    3.8820   -0.2786 H   0  0  0  0  0  0  0  0  0  0  0  0
   -2.9693    4.9221    0.3776 H   0  0  0  0  0  0  0  0  0  0  0  0
   -3.2121    5.8070   -2.5379 H   0  0  0  0  0  0  0  0  0  0  0  0
   -2.2325    6.7004   -1.3053 H   0  0  0  0  0  0  0  0  0  0  0  0
   -3.9915    6.5278   -1.0800 H   0  0  0  0  0  0  0  0  0  0  0  0
   -3.7125    3.2544   -2.0317 H   0  0  0  0  0  0  0  0  0  0  0  0
   -6.4733    3.1328    1.0783 H   0  0  0  0  0  0  0  0  0  0  0  0
   -4.3600    3.8706    2.3355 H   0  0  0  0  0  0  0  0  0  0  0  0
   -5.8944    4.7418    2.6408 H   0  0  0  0  0  0  0  0  0  0  0  0
   -4.6591    5.5166    1.6224 H   0  0  0  0  0  0  0  0  0  0  0  0
   -5.9815    5.7250   -0.4394 H   0  0  0  0  0  0  0  0  0  0  0  0
   -8.5432    3.3954    0.8267 H   0  0  0  0  0  0  0  0  0  0  0  0
   -9.6585    5.5697    1.0127 H   0  0  0  0  0  0  0  0  0  0  0  0
  -10.8467    4.2332    0.7584 H   0  0  0  0  0  0  0  0  0  0  0  0
  -10.4324    5.3364   -0.6075 H   0  0  0  0  0  0  0  0  0  0  0  0
   -9.9905    3.1063   -1.8317 H   0  0  0  0  0  0  0  0  0  0  0  0
   -9.5835   -0.2762    0.2596 H   0  0  0  0  0  0  0  0  0  0  0  0
  -10.6098    1.6712    1.4322 H   0  0  0  0  0  0  0  0  0  0  0  0
  -11.7185    1.9390    0.0269 H   0  0  0  0  0  0  0  0  0  0  0  0
  -11.8392    0.4310    1.0002 H   0  0  0  0  0  0  0  0  0  0  0  0
  -11.0110    0.5005   -2.2992 H   0  0  0  0  0  0  0  0  0  0  0  0
  -11.1793   -1.8295    0.6008 H   0  0  0  0  0  0  0  0  0  0  0  0
  -12.3598   -4.0630   -1.1455 H   0  0  0  0  0  0  0  0  0  0  0  0
  -13.2964   -2.8261   -0.2161 H   0  0  0  0  0  0  0  0  0  0  0  0
  -12.2601   -4.0059    0.6588 H   0  0  0  0  0  0  0  0  0  0  0  0
   -8.9985   -2.4810   -0.5610 H   0  0  0  0  0  0  0  0  0  0  0  0
   -9.9683   -4.4629    1.8650 H   0  0  0  0  0  0  0  0  0  0  0  0
   -8.7628   -7.0171    0.6622 H   0  0  0  0  0  0  0  0  0  0  0  0
  -10.4583   -6.7470    1.2006 H   0  0  0  0  0  0  0  0  0  0  0  0
   -9.1221   -6.7127    2.4021 H   0  0  0  0  0  0  0  0  0  0  0  0
   -7.7820   -4.2968    2.5710 H   0  0  0  0  0  0  0  0  0  0  0  0
  1  2  1  0
  2  3  2  0
  2  4  1  0
  4  5  1  0
  5  6  1  0
  6  7  1  0
  7  8  1  0
  8  9  1  0
  9 10  2  0
 10 11  1  0
 11 12  2  0
 12 13  1  0
 13 14  2  0
 13 15  1  0
 15 16  1  0
 16 17  1  0
 17 18  1  0
 18 19  1  0
 19 20  1  0
 19 21  2  0
 18 22  1  0
 22 23  1  0
 23 24  2  0
 23 25  1  0
 25 26  1  0
 25 27  1  0
 27 28  1  0
 28 29  2  0
 28 30  1  0
 30 31  1  0
 30 32  1  0
 32 33  1  0
 33 34  2  0
 33 35  1  0
 35 36  1  0
 35 37  1  0
 37 38  1  0
 38 39  2  0
 38 40  1  0
 40 41  1  0
 40 42  1  0
 42 43  1  0
 43 44  2  0
 43 45  1  0
 45 46  1  0
 45 47  1  0
 47 48  1  0
 48 49  2  0
 48 50  1  0
 50 51  1  0
 50 52  1  0
 52 53  1  0
 53 54  2  0
 53 55  1  0
 55 56  1  0
 55 57  1  0
 57 58  1  0
 58 59  2  0
 58 60  1  0
 60 61  1  0
 60 62  1  0
 62 63  1  0
 63 64  2  0
 63 65  1  0
 65 66  1  0
 66 67  1  0
 67 68  1  0
 65 69  1  0
 69 70  1  0
 70 71  2  0
 70 72  1  0
 72 73  1  0
 72 74  1  0
 74 75  1  0
 75 76  2  0
 75 77  1  0
 77 78  1  0
 77 79  1  0
 79 80  1  0
 80 81  2  0
 80 82  1  0
 82 83  1  0
 82 84  1  0
 84 85  1  0
 85 86  2  0
 85 87  1  0
 87 88  1  0
 87 89  1  0
 89 90  1  0
 90 91  2  0
 90 92  1  0
 92 93  1  0
 92 94  1  0
 94 95  1  0
 95 96  2  0
 95 97  1  0
 97 98  1  0
 97 99  1  0
 99100  1  0
100101  2  0
100  5  1  0
 14  9  1  0
 68 11  1  0
  1102  1  0
  1103  1  0
  1104  1  0
  4105  1  0
  5106  1  6
  6107  1  0
  6108  1  0
  8109  1  0
  8110  1  0
 10111  1  0
 12112  1  0
 14113  1  0
 15114  1  0
 15115  1  0
 17116  1  0
 17117  1  0
 18118  1  1
 20119  1  0
 20120  1  0
 22121  1  0
 25122  1  1
 26123  1  0
 26124  1  0
 26125  1  0
 27126  1  0
 30127  1  6
 31128  1  0
 31129  1  0
 31130  1  0
 32131  1  0
 35132  1  1
 36133  1  0
 36134  1  0
 36135  1  0
 37136  1  0
 40137  1  1
 41138  1  0
 41139  1  0
 41140  1  0
 42141  1  0
 45142  1  6
 46143  1  0
 46144  1  0
 46145  1  0
 47146  1  0
 50147  1  1
 51148  1  0
 51149  1  0
 51150  1  0
 52151  1  0
 55152  1  1
 56153  1  0
 56154  1  0
 56155  1  0
 57156  1  0
 60157  1  1
 61158  1  0
 61159  1  0
 61160  1  0
 62161  1  0
 65162  1  1
 66163  1  0
 66164  1  0
 68165  1  0
 68166  1  0
 69167  1  0
 72168  1  1
 73169  1  0
 73170  1  0
 73171  1  0
 74172  1  0
 77173  1  1
 78174  1  0
 78175  1  0
 78176  1  0
 79177  1  0
 82178  1  1
 83179  1  0
 83180  1  0
 83181  1  0
 84182  1  0
 87183  1  1
 88184  1  0
 88185  1  0
 88186  1  0
 89187  1  0
 92188  1  1
 93189  1  0
 93190  1  0
 93191  1  0
 94192  1  0
 97193  1  1
 98194  1  0
 98195  1  0
 98196  1  0
 99197  1  0
M  END
