
     RDKit          3D

197199  0  0  0  0  0  0  0  0999 V2000
    7.6089   -7.7945    2.5739 C   0  0  0  0  0  0  0  0  0  0  0  0
    6.7619   -6.8351    1.8137 C   0  0  0  0  0  0  0  0  0  0  0  0
    6.0106   -7.2659    0.8885 O   0  0  0  0  0  0  0  0  0  0  0  0
    6.7761   -5.4474    2.1471 N   0  0  0  0  0  0  0  0  0  0  0  0
    6.1172   -4.4394    1.3115 C   0  0  1  0  0  0  0  0  0  0  0  0
    5.8360   -3.1748    2.1383 C   0  0  0  0  0  0  0  0  0  0  0  0
    4.6925   -2.0465    1.2636 S   0  0  0  0  0  0  0  0  0  0  0  0
    3.1496   -2.8996    1.7501 C   0  0  0  0  0  0  0  0  0  0  0  0
    2.1267   -2.8001    0.6527 C   0  0  0  0  0  0  0  0  0  0  0  0
    1.7051   -1.5432    0.2007 C   0  0  0  0  0  0  0  0  0  0  0  0
    0.7891   -1.4324   -0.8555 C   0  0  0  0  0  0  0  0  0  0  0  0
    0.2485   -2.6035   -1.4195 C   0  0  0  0  0  0  0  0  0  0  0  0
    0.6201   -3.8738   -0.9327 C   0  0  0  0  0  0  0  0  0  0  0  0
    1.5847   -3.9583    0.0850 C   0  0  0  0  0  0  0  0  0  0  0  0
    0.0309   -5.1134   -1.5718 C   0  0  0  0  0  0  0  0  0  0  0  0
   -0.1029   -6.5346   -0.4049 S   0  0  0  0  0  0  0  0  0  0  0  0
   -1.5776   -5.9348    0.5092 C   0  0  0  0  0  0  0  0  0  0  0  0
   -2.8501   -6.6085   -0.0199 C   0  0  1  0  0  0  0  0  0  0  0  0
   -2.9002   -8.0681    0.3613 C   0  0  0  0  0  0  0  0  0  0  0  0
   -3.0224   -8.4635    1.7266 N   0  0  0  0  0  0  0  0  0  0  0  0
   -2.8402   -8.9461   -0.5379 O   0  0  0  0  0  0  0  0  0  0  0  0
   -4.0442   -5.9257    0.4931 N   0  0  0  0  0  0  0  0  0  0  0  0
   -5.2423   -5.8207   -0.2924 C   0  0  0  0  0  0  0  0  0  0  0  0
   -5.3439   -6.4829   -1.3581 O   0  0  0  0  0  0  0  0  0  0  0  0
   -6.3628   -4.8946    0.1348 C   0  0  1  0  0  0  0  0  0  0  0  0
   -5.8537   -3.4651    0.3086 C   0  0  0  0  0  0  0  0  0  0  0  0
   -7.4381   -4.8993   -0.8622 N   0  0  0  0  0  0  0  0  0  0  0  0
   -8.6765   -5.5832   -0.6420 C   0  0  0  0  0  0  0  0  0  0  0  0
   -8.8157   -6.7554   -1.0875 O   0  0  0  0  0  0  0  0  0  0  0  0
   -9.8523   -4.8570   -0.0340 C   0  0  1  0  0  0  0  0  0  0  0  0
  -10.8617   -5.8239    0.6009 C   0  0  0  0  0  0  0  0  0  0  0  0
   -9.3780   -3.9129    0.9941 N   0  0  0  0  0  0  0  0  0  0  0  0
   -9.4712   -2.4792    0.9188 C   0  0  0  0  0  0  0  0  0  0  0  0
   -9.2864   -1.8183    1.9733 O   0  0  0  0  0  0  0  0  0  0  0  0
   -9.8276   -1.7449   -0.3645 C   0  0  1  0  0  0  0  0  0  0  0  0
  -11.3313   -1.4951   -0.4652 C   0  0  0  0  0  0  0  0  0  0  0  0
   -9.0351   -0.5123   -0.5312 N   0  0  0  0  0  0  0  0  0  0  0  0
   -8.9425    0.6125    0.3747 C   0  0  0  0  0  0  0  0  0  0  0  0
   -7.8150    1.1593    0.5190 O   0  0  0  0  0  0  0  0  0  0  0  0
  -10.1475    1.1744    1.1050 C   0  0  1  0  0  0  0  0  0  0  0  0
   -9.7912    2.3468    2.0317 C   0  0  0  0  0  0  0  0  0  0  0  0
  -11.2321    1.5599    0.1924 N   0  0  0  0  0  0  0  0  0  0  0  0
  -11.1995    2.5628   -0.8470 C   0  0  0  0  0  0  0  0  0  0  0  0
  -12.3005    2.9486   -1.3308 O   0  0  0  0  0  0  0  0  0  0  0  0
   -9.9169    3.0817   -1.4617 C   0  0  1  0  0  0  0  0  0  0  0  0
   -9.6323    2.3206   -2.7588 C   0  0  0  0  0  0  0  0  0  0  0  0
  -10.0277    4.5174   -1.7518 N   0  0  0  0  0  0  0  0  0  0  0  0
   -8.9504    5.4626   -1.6138 C   0  0  0  0  0  0  0  0  0  0  0  0
   -9.2301    6.6815   -1.4813 O   0  0  0  0  0  0  0  0  0  0  0  0
   -7.4935    5.0479   -1.6320 C   0  0  1  0  0  0  0  0  0  0  0  0
   -6.8289    5.4575   -2.9521 C   0  0  0  0  0  0  0  0  0  0  0  0
   -6.8156    5.5784   -0.4336 N   0  0  0  0  0  0  0  0  0  0  0  0
   -5.9178    6.7010   -0.4084 C   0  0  0  0  0  0  0  0  0  0  0  0
   -6.0962    7.6736   -1.1959 O   0  0  0  0  0  0  0  0  0  0  0  0
   -4.8086    6.7914    0.6122 C   0  0  1  0  0  0  0  0  0  0  0  0
   -5.2474    7.6433    1.8058 C   0  0  0  0  0  0  0  0  0  0  0  0
   -4.4035    5.4582    1.0749 N   0  0  0  0  0  0  0  0  0  0  0  0
   -3.0906    4.8590    0.9525 C   0  0  0  0  0  0  0  0  0  0  0  0
   -2.9978    3.6093    1.0860 O   0  0  0  0  0  0  0  0  0  0  0  0
   -1.8223    5.6597    0.7491 C   0  0  1  0  0  0  0  0  0  0  0  0
   -0.8824    5.5142    1.9513 C   0  0  0  0  0  0  0  0  0  0  0  0
   -1.1634    5.2931   -0.5150 N   0  0  0  0  0  0  0  0  0  0  0  0
   -0.7812    3.9534   -0.8778 C   0  0  0  0  0  0  0  0  0  0  0  0
   -1.4117    3.3768   -1.8063 O   0  0  0  0  0  0  0  0  0  0  0  0
    0.4397    3.3013   -0.2738 C   0  0  1  0  0  0  0  0  0  0  0  0
    0.1497    1.9711    0.4574 C   0  0  0  0  0  0  0  0  0  0  0  0
   -0.8682    0.7342   -0.4561 S   0  0  0  0  0  0  0  0  0  0  0  0
    0.4657   -0.0779   -1.4149 C   0  0  0  0  0  0  0  0  0  0  0  0
    1.4690    3.1146   -1.2996 N   0  0  0  0  0  0  0  0  0  0  0  0
    2.8837    3.1402   -1.0164 C   0  0  0  0  0  0  0  0  0  0  0  0
    3.6289    2.3172   -1.6114 O   0  0  0  0  0  0  0  0  0  0  0  0
    3.4840    4.0931   -0.0039 C   0  0  1  0  0  0  0  0  0  0  0  0
    3.6110    3.4256    1.3711 C   0  0  0  0  0  0  0  0  0  0  0  0
    4.8049    4.5659   -0.4342 N   0  0  0  0  0  0  0  0  0  0  0  0
    5.3623    5.7874    0.0903 C   0  0  0  0  0  0  0  0  0  0  0  0
    4.6052    6.7716    0.2920 O   0  0  0  0  0  0  0  0  0  0  0  0
    6.8335    5.9215    0.4139 C   0  0  1  0  0  0  0  0  0  0  0  0
    7.0065    6.2598    1.8938 C   0  0  0  0  0  0  0  0  0  0  0  0
    7.5702    4.6926    0.1055 N   0  0  0  0  0  0  0  0  0  0  0  0
    8.4651    4.6228   -1.0092 C   0  0  0  0  0  0  0  0  0  0  0  0
    7.9961    4.6521   -2.1791 O   0  0  0  0  0  0  0  0  0  0  0  0
    9.9623    4.6480   -0.8144 C   0  0  1  0  0  0  0  0  0  0  0  0
   10.4245    4.4730    0.6426 C   0  0  0  0  0  0  0  0  0  0  0  0
   10.6318    3.6999   -1.7100 N   0  0  0  0  0  0  0  0  0  0  0  0
   10.5642    2.2567   -1.6821 C   0  0  0  0  0  0  0  0  0  0  0  0
   11.3575    1.6126   -2.4159 O   0  0  0  0  0  0  0  0  0  0  0  0
    9.5575    1.4862   -0.8472 C   0  0  1  0  0  0  0  0  0  0  0  0
    8.5905    0.6986   -1.7359 C   0  0  0  0  0  0  0  0  0  0  0  0
   10.2349    0.6083    0.1202 N   0  0  0  0  0  0  0  0  0  0  0  0
   11.2802   -0.3107   -0.2210 C   0  0  0  0  0  0  0  0  0  0  0  0
   12.4684   -0.0296    0.0991 O   0  0  0  0  0  0  0  0  0  0  0  0
   10.9796   -1.6335   -0.8873 C   0  0  1  0  0  0  0  0  0  0  0  0
   11.6371   -1.7208   -2.2656 C   0  0  0  0  0  0  0  0  0  0  0  0
   11.4776   -2.7318   -0.0538 N   0  0  0  0  0  0  0  0  0  0  0  0
   10.7713   -3.9540    0.2049 C   0  0  0  0  0  0  0  0  0  0  0  0
   11.2334   -4.7434    1.0691 O   0  0  0  0  0  0  0  0  0  0  0  0
    9.4635   -4.2907   -0.4945 C   0  0  1  0  0  0  0  0  0  0  0  0
    9.3365   -5.8148   -0.6968 C   0  0  0  0  0  0  0  0  0  0  0  0
    8.3556   -3.7641    0.3101 N   0  0  0  0  0  0  0  0  0  0  0  0
    6.9865   -4.1494    0.1185 C   0  0  0  0  0  0  0  0  0  0  0  0
    6.5334   -4.3083   -1.0422 O   0  0  0  0  0  0  0  0  0  0  0  0
    7.4887   -8.8261    2.1850 H   0  0  0  0  0  0  0  0  0  0  0  0
    7.3138   -7.7718    3.6433 H   0  0  0  0  0  0  0  0  0  0  0  0
    8.6782   -7.5012    2.4849 H   0  0  0  0  0  0  0  0  0  0  0  0
    7.3708   -5.1323    2.9513 H   0  0  0  0  0  0  0  0  0  0  0  0
    5.1505   -4.8532    0.9543 H   0  0  0  0  0  0  0  0  0  0  0  0
    6.7745   -2.6258    2.3676 H   0  0  0  0  0  0  0  0  0  0  0  0
    5.3872   -3.4522    3.1144 H   0  0  0  0  0  0  0  0  0  0  0  0
    2.7536   -2.4208    2.6640 H   0  0  0  0  0  0  0  0  0  0  0  0
    3.3473   -3.9590    1.9986 H   0  0  0  0  0  0  0  0  0  0  0  0
    2.1172   -0.6472    0.6474 H   0  0  0  0  0  0  0  0  0  0  0  0
   -0.4685   -2.5293   -2.2338 H   0  0  0  0  0  0  0  0  0  0  0  0
    1.9102   -4.9271    0.4454 H   0  0  0  0  0  0  0  0  0  0  0  0
    0.6794   -5.4097   -2.4221 H   0  0  0  0  0  0  0  0  0  0  0  0
   -0.9741   -4.8911   -1.9861 H   0  0  0  0  0  0  0  0  0  0  0  0
   -1.6678   -4.8247    0.4155 H   0  0  0  0  0  0  0  0  0  0  0  0
   -1.4372   -6.1592    1.5926 H   0  0  0  0  0  0  0  0  0  0  0  0
   -2.8298   -6.5087   -1.1298 H   0  0  0  0  0  0  0  0  0  0  0  0
   -3.0868   -9.4758    1.9767 H   0  0  0  0  0  0  0  0  0  0  0  0
   -3.0441   -7.7476    2.4923 H   0  0  0  0  0  0  0  0  0  0  0  0
   -3.9725   -5.3637    1.3684 H   0  0  0  0  0  0  0  0  0  0  0  0
   -6.7621   -5.2451    1.1111 H   0  0  0  0  0  0  0  0  0  0  0  0
   -6.6990   -2.7783    0.5307 H   0  0  0  0  0  0  0  0  0  0  0  0
   -5.3521   -3.1182   -0.6163 H   0  0  0  0  0  0  0  0  0  0  0  0
   -5.1384   -3.4057    1.1457 H   0  0  0  0  0  0  0  0  0  0  0  0
   -7.2213   -4.6085   -1.8450 H   0  0  0  0  0  0  0  0  0  0  0  0
  -10.3838   -4.3316   -0.8544 H   0  0  0  0  0  0  0  0  0  0  0  0
  -11.7027   -5.2481    1.0446 H   0  0  0  0  0  0  0  0  0  0  0  0
  -10.3774   -6.4220    1.4038 H   0  0  0  0  0  0  0  0  0  0  0  0
  -11.2827   -6.5118   -0.1615 H   0  0  0  0  0  0  0  0  0  0  0  0
   -8.9664   -4.3201    1.8644 H   0  0  0  0  0  0  0  0  0  0  0  0
   -9.5520   -2.3968   -1.2274 H   0  0  0  0  0  0  0  0  0  0  0  0
  -11.8550   -2.4442   -0.7089 H   0  0  0  0  0  0  0  0  0  0  0  0
  -11.5561   -0.7626   -1.2742 H   0  0  0  0  0  0  0  0  0  0  0  0
  -11.7512   -1.1338    0.4973 H   0  0  0  0  0  0  0  0  0  0  0  0
   -8.2931   -0.5542   -1.2672 H   0  0  0  0  0  0  0  0  0  0  0  0
  -10.5283    0.3749    1.7748 H   0  0  0  0  0  0  0  0  0  0  0  0
   -8.9853    2.0489    2.7369 H   0  0  0  0  0  0  0  0  0  0  0  0
  -10.6816    2.6361    2.6297 H   0  0  0  0  0  0  0  0  0  0  0  0
   -9.4532    3.2330    1.4595 H   0  0  0  0  0  0  0  0  0  0  0  0
  -12.1782    1.1845    0.4249 H   0  0  0  0  0  0  0  0  0  0  0  0
   -9.0948    2.9197   -0.7597 H   0  0  0  0  0  0  0  0  0  0  0  0
  -10.4154    2.5230   -3.5115 H   0  0  0  0  0  0  0  0  0  0  0  0
   -8.6471    2.6194   -3.1727 H   0  0  0  0  0  0  0  0  0  0  0  0
   -9.6025    1.2269   -2.5691 H   0  0  0  0  0  0  0  0  0  0  0  0
  -10.9577    4.9163   -2.0200 H   0  0  0  0  0  0  0  0  0  0  0  0
   -7.3925    3.9446   -1.5947 H   0  0  0  0  0  0  0  0  0  0  0  0
   -6.9857    6.5315   -3.1876 H   0  0  0  0  0  0  0  0  0  0  0  0
   -7.2644    4.8697   -3.7901 H   0  0  0  0  0  0  0  0  0  0  0  0
   -5.7365    5.2466   -2.9169 H   0  0  0  0  0  0  0  0  0  0  0  0
   -7.0617    5.1245    0.4717 H   0  0  0  0  0  0  0  0  0  0  0  0
   -3.9717    7.3092    0.1026 H   0  0  0  0  0  0  0  0  0  0  0  0
   -4.4171    7.7177    2.5366 H   0  0  0  0  0  0  0  0  0  0  0  0
   -5.5234    8.6701    1.4756 H   0  0  0  0  0  0  0  0  0  0  0  0
   -6.1328    7.1830    2.3058 H   0  0  0  0  0  0  0  0  0  0  0  0
   -5.1189    4.8731    1.5699 H   0  0  0  0  0  0  0  0  0  0  0  0
   -2.0438    6.7480    0.6996 H   0  0  0  0  0  0  0  0  0  0  0  0
   -1.3471    5.9843    2.8477 H   0  0  0  0  0  0  0  0  0  0  0  0
   -0.6934    4.4492    2.1892 H   0  0  0  0  0  0  0  0  0  0  0  0
    0.0772    6.0221    1.7478 H   0  0  0  0  0  0  0  0  0  0  0  0
   -1.2364    5.9846   -1.2923 H   0  0  0  0  0  0  0  0  0  0  0  0
    0.8269    4.0036    0.4869 H   0  0  0  0  0  0  0  0  0  0  0  0
    1.1046    1.5211    0.7869 H   0  0  0  0  0  0  0  0  0  0  0  0
   -0.4090    2.1968    1.3924 H   0  0  0  0  0  0  0  0  0  0  0  0
    1.3836    0.5304   -1.4382 H   0  0  0  0  0  0  0  0  0  0  0  0
    0.1130   -0.1861   -2.4632 H   0  0  0  0  0  0  0  0  0  0  0  0
    1.1731    2.6932   -2.2120 H   0  0  0  0  0  0  0  0  0  0  0  0
    2.8034    4.9752    0.0792 H   0  0  0  0  0  0  0  0  0  0  0  0
    4.0954    4.1206    2.0879 H   0  0  0  0  0  0  0  0  0  0  0  0
    4.2282    2.5027    1.3003 H   0  0  0  0  0  0  0  0  0  0  0  0
    2.6133    3.1659    1.7791 H   0  0  0  0  0  0  0  0  0  0  0  0
    5.4108    3.9536   -1.0342 H   0  0  0  0  0  0  0  0  0  0  0  0
    7.2501    6.7699   -0.1817 H   0  0  0  0  0  0  0  0  0  0  0  0
    6.5251    7.2296    2.1329 H   0  0  0  0  0  0  0  0  0  0  0  0
    8.0849    6.3349    2.1458 H   0  0  0  0  0  0  0  0  0  0  0  0
    6.5482    5.4680    2.5278 H   0  0  0  0  0  0  0  0  0  0  0  0
    7.3848    3.8240    0.6559 H   0  0  0  0  0  0  0  0  0  0  0  0
   10.2888    5.6777   -1.1035 H   0  0  0  0  0  0  0  0  0  0  0  0
   10.0565    5.3181    1.2630 H   0  0  0  0  0  0  0  0  0  0  0  0
   11.5335    4.4692    0.6796 H   0  0  0  0  0  0  0  0  0  0  0  0
   10.0572    3.5259    1.0824 H   0  0  0  0  0  0  0  0  0  0  0  0
   11.2817    4.1129   -2.4135 H   0  0  0  0  0  0  0  0  0  0  0  0
    8.9208    2.1830   -0.2688 H   0  0  0  0  0  0  0  0  0  0  0  0
    7.9135    0.0823   -1.1082 H   0  0  0  0  0  0  0  0  0  0  0  0
    9.1335    0.0385   -2.4429 H   0  0  0  0  0  0  0  0  0  0  0  0
    7.9694    1.4108   -2.3278 H   0  0  0  0  0  0  0  0  0  0  0  0
   10.1519    0.8654    1.1324 H   0  0  0  0  0  0  0  0  0  0  0  0
    9.8809   -1.7061   -1.0164 H   0  0  0  0  0  0  0  0  0  0  0  0
   12.7322   -1.5640   -2.1857 H   0  0  0  0  0  0  0  0  0  0  0  0
   11.4620   -2.7305   -2.6933 H   0  0  0  0  0  0  0  0  0  0  0  0
   11.2135   -0.9650   -2.9563 H   0  0  0  0  0  0  0  0  0  0  0  0
   12.4281   -2.6331    0.3700 H   0  0  0  0  0  0  0  0  0  0  0  0
    9.4323   -3.8255   -1.5077 H   0  0  0  0  0  0  0  0  0  0  0  0
    9.2224   -6.3374    0.2793 H   0  0  0  0  0  0  0  0  0  0  0  0
   10.2499   -6.1984   -1.2150 H   0  0  0  0  0  0  0  0  0  0  0  0
    8.4561   -6.0560   -1.3293 H   0  0  0  0  0  0  0  0  0  0  0  0
    8.5239   -2.9213    0.9079 H   0  0  0  0  0  0  0  0  0  0  0  0
  1  2  1  0
  2  3  2  0
  2  4  1  0
  4  5  1  0
  5  6  1  0
  6  7  1  0
  7  8  1  0
  8  9  1  0
  9 10  2  0
 10 11  1  0
 11 12  2  0
 12 13  1  0
 13 14  2  0
 13 15  1  0
 15 16  1  0
 16 17  1  0
 17 18  1  0
 18 19  1  0
 19 20  1  0
 19 21  2  0
 18 22  1  0
 22 23  1  0
 23 24  2  0
 23 25  1  0
 25 26  1  0
 25 27  1  0
 27 28  1  0
 28 29  2  0
 28 30  1  0
 30 31  1  0
 30 32  1  0
 32 33  1  0
 33 34  2  0
 33 35  1  0
 35 36  1  0
 35 37  1  0
 37 38  1  0
 38 39  2  0
 38 40  1  0
 40 41  1  0
 40 42  1  0
 42 43  1  0
 43 44  2  0
 43 45  1  0
 45 46  1  0
 45 47  1  0
 47 48  1  0
 48 49  2  0
 48 50  1  0
 50 51  1  0
 50 52  1  0
 52 53  1  0
 53 54  2  0
 53 55  1  0
 55 56  1  0
 55 57  1  0
 57 58  1  0
 58 59  2  0
 58 60  1  0
 60 61  1  0
 60 62  1  0
 62 63  1  0
 63 64  2  0
 63 65  1  0
 65 66  1  0
 66 67  1  0
 67 68  1  0
 65 69  1  0
 69 70  1  0
 70 71  2  0
 70 72  1  0
 72 73  1  0
 72 74  1  0
 74 75  1  0
 75 76  2  0
 75 77  1  0
 77 78  1  0
 77 79  1  0
 79 80  1  0
 80 81  2  0
 80 82  1  0
 82 83  1  0
 82 84  1  0
 84 85  1  0
 85 86  2  0
 85 87  1  0
 87 88  1  0
 87 89  1  0
 89 90  1  0
 90 91  2  0
 90 92  1  0
 92 93  1  0
 92 94  1  0
 94 95  1  0
 95 96  2  0
 95 97  1  0
 97 98  1  0
 97 99  1  0
 99100  1  0
100101  2  0
100  5  1  0
 14  9  1  0
 68 11  1  0
  1102  1  0
  1103  1  0
  1104  1  0
  4105  1  0
  5106  1  6
  6107  1  0
  6108  1  0
  8109  1  0
  8110  1  0
 10111  1  0
 12112  1  0
 14113  1  0
 15114  1  0
 15115  1  0
 17116  1  0
 17117  1  0
 18118  1  6
 20119  1  0
 20120  1  0
 22121  1  0
 25122  1  1
 26123  1  0
 26124  1  0
 26125  1  0
 27126  1  0
 30127  1  6
 31128  1  0
 31129  1  0
 31130  1  0
 32131  1  0
 35132  1  6
 36133  1  0
 36134  1  0
 36135  1  0
 37136  1  0
 40137  1  1
 41138  1  0
 41139  1  0
 41140  1  0
 42141  1  0
 45142  1  1
 46143  1  0
 46144  1  0
 46145  1  0
 47146  1  0
 50147  1  1
 51148  1  0
 51149  1  0
 51150  1  0
 52151  1  0
 55152  1  6
 56153  1  0
 56154  1  0
 56155  1  0
 57156  1  0
 60157  1  6
 61158  1  0
 61159  1  0
 61160  1  0
 62161  1  0
 65162  1  1
 66163  1  0
 66164  1  0
 68165  1  0
 68166  1  0
 69167  1  0
 72168  1  1
 73169  1  0
 73170  1  0
 73171  1  0
 74172  1  0
 77173  1  6
 78174  1  0
 78175  1  0
 78176  1  0
 79177  1  0
 82178  1  6
 83179  1  0
 83180  1  0
 83181  1  0
 84182  1  0
 87183  1  1
 88184  1  0
 88185  1  0
 88186  1  0
 89187  1  0
 92188  1  6
 93189  1  0
 93190  1  0
 93191  1  0
 94192  1  0
 97193  1  6
 98194  1  0
 98195  1  0
 98196  1  0
 99197  1  0
M  END
