
     RDKit          3D

207209  0  0  0  0  0  0  0  0999 V2000
    8.2830    6.1537   -3.6623 C   0  0  0  0  0  0  0  0  0  0  0  0
    7.5963    4.8508   -3.3904 C   0  0  0  0  0  0  0  0  0  0  0  0
    7.2699    4.1173   -4.3662 O   0  0  0  0  0  0  0  0  0  0  0  0
    7.3076    4.4088   -2.0536 N   0  0  0  0  0  0  0  0  0  0  0  0
    6.8760    5.2753   -0.9514 C   0  0  2  0  0  0  0  0  0  0  0  0
    5.5134    5.9322   -1.2753 C   0  0  0  0  0  0  0  0  0  0  0  0
    4.2158    4.7160   -1.7328 S   0  0  0  0  0  0  0  0  0  0  0  0
    4.2468    3.7452   -0.1862 C   0  0  0  0  0  0  0  0  0  0  0  0
    2.9590    2.9946    0.0008 C   0  0  0  0  0  0  0  0  0  0  0  0
    2.6683    1.8782   -0.8004 C   0  0  0  0  0  0  0  0  0  0  0  0
    1.5299    1.0898   -0.5637 C   0  0  0  0  0  0  0  0  0  0  0  0
    0.6755    1.4448    0.4984 C   0  0  0  0  0  0  0  0  0  0  0  0
    0.9362    2.5806    1.2848 C   0  0  0  0  0  0  0  0  0  0  0  0
    2.0868    3.3433    1.0382 C   0  0  0  0  0  0  0  0  0  0  0  0
    0.0227    2.9285    2.4344 C   0  0  0  0  0  0  0  0  0  0  0  0
   -1.7256    3.0059    1.9003 S   0  0  0  0  0  0  0  0  0  0  0  0
   -1.5961    4.5263    0.8855 C   0  0  0  0  0  0  0  0  0  0  0  0
   -2.1095    5.7478    1.6644 C   0  0  1  0  0  0  0  0  0  0  0  0
   -1.0936    6.2519    2.6546 C   0  0  0  0  0  0  0  0  0  0  0  0
    0.2054    6.6792    2.2420 N   0  0  0  0  0  0  0  0  0  0  0  0
   -1.3944    6.2954    3.8776 O   0  0  0  0  0  0  0  0  0  0  0  0
   -2.4561    6.8221    0.7285 N   0  0  0  0  0  0  0  0  0  0  0  0
   -3.7957    7.2575    0.4548 C   0  0  0  0  0  0  0  0  0  0  0  0
   -4.0229    7.8996   -0.6070 O   0  0  0  0  0  0  0  0  0  0  0  0
   -4.9388    6.9782    1.4134 C   0  0  1  0  0  0  0  0  0  0  0  0
   -6.0352    8.0504    1.3547 C   0  0  0  0  0  0  0  0  0  0  0  0
   -5.4882    5.6345    1.1960 N   0  0  0  0  0  0  0  0  0  0  0  0
   -5.9148    5.1416   -0.0784 C   0  0  0  0  0  0  0  0  0  0  0  0
   -5.2123    4.2733   -0.6680 O   0  0  0  0  0  0  0  0  0  0  0  0
   -7.2485    5.5387   -0.6595 C   0  0  1  0  0  0  0  0  0  0  0  0
   -7.0583    6.1787   -2.0364 C   0  0  0  0  0  0  0  0  0  0  0  0
   -8.1371    4.3745   -0.7379 N   0  0  0  0  0  0  0  0  0  0  0  0
   -8.6825    3.7760    0.4458 C   0  0  0  0  0  0  0  0  0  0  0  0
   -7.9653    3.6594    1.4794 O   0  0  0  0  0  0  0  0  0  0  0  0
  -10.1088    3.2946    0.4922 C   0  0  1  0  0  0  0  0  0  0  0  0
  -11.0758    4.4664    0.3111 C   0  0  0  0  0  0  0  0  0  0  0  0
  -10.3538    2.2780   -0.5324 N   0  0  0  0  0  0  0  0  0  0  0  0
  -10.1890    0.8762   -0.2718 C   0  0  0  0  0  0  0  0  0  0  0  0
   -9.2179    0.2762   -0.8119 O   0  0  0  0  0  0  0  0  0  0  0  0
  -11.2026    0.0582    0.5016 C   0  0  1  0  0  0  0  0  0  0  0  0
  -12.1848    0.8866    1.3352 C   0  0  0  0  0  0  0  0  0  0  0  0
  -11.9662   -0.7765   -0.4278 N   0  0  0  0  0  0  0  0  0  0  0  0
  -12.2390   -2.1781   -0.2507 C   0  0  0  0  0  0  0  0  0  0  0  0
  -13.1866   -2.6923   -0.9035 O   0  0  0  0  0  0  0  0  0  0  0  0
  -11.4016   -3.0608    0.6488 C   0  0  1  0  0  0  0  0  0  0  0  0
  -11.9612   -3.0532    2.0713 C   0  0  0  0  0  0  0  0  0  0  0  0
  -11.3923   -4.4392    0.1428 N   0  0  0  0  0  0  0  0  0  0  0  0
  -10.2103   -5.1144   -0.3131 C   0  0  0  0  0  0  0  0  0  0  0  0
   -9.9618   -6.2629    0.1343 O   0  0  0  0  0  0  0  0  0  0  0  0
   -9.2809   -4.5273   -1.3560 C   0  0  1  0  0  0  0  0  0  0  0  0
  -10.0301   -3.7456   -2.4396 C   0  0  0  0  0  0  0  0  0  0  0  0
   -8.2527   -3.6817   -0.7340 N   0  0  0  0  0  0  0  0  0  0  0  0
   -7.1023   -4.1878   -0.0332 C   0  0  0  0  0  0  0  0  0  0  0  0
   -6.7910   -3.6494    1.0607 O   0  0  0  0  0  0  0  0  0  0  0  0
   -6.1877   -5.2543   -0.5988 C   0  0  1  0  0  0  0  0  0  0  0  0
   -6.6910   -6.6667   -0.2977 C   0  0  0  0  0  0  0  0  0  0  0  0
   -5.9713   -5.0713   -2.0409 N   0  0  0  0  0  0  0  0  0  0  0  0
   -4.7690   -5.4261   -2.7487 C   0  0  0  0  0  0  0  0  0  0  0  0
   -4.7214   -5.2152   -3.9925 O   0  0  0  0  0  0  0  0  0  0  0  0
   -3.5304   -5.9498   -2.0518 C   0  0  1  0  0  0  0  0  0  0  0  0
   -2.7843   -6.9626   -2.9264 C   0  0  0  0  0  0  0  0  0  0  0  0
   -2.6479   -4.8277   -1.7301 N   0  0  0  0  0  0  0  0  0  0  0  0
   -2.2894   -4.5138   -0.3789 C   0  0  0  0  0  0  0  0  0  0  0  0
   -3.0030   -3.7092    0.2771 O   0  0  0  0  0  0  0  0  0  0  0  0
   -1.0738   -5.1331    0.2548 C   0  0  1  0  0  0  0  0  0  0  0  0
   -1.3980   -6.5274    0.7850 C   0  0  0  0  0  0  0  0  0  0  0  0
    0.0190   -5.1970   -0.7215 N   0  0  0  0  0  0  0  0  0  0  0  0
    0.8399   -4.0645   -1.0498 C   0  0  0  0  0  0  0  0  0  0  0  0
    1.0798   -3.8167   -2.2642 O   0  0  0  0  0  0  0  0  0  0  0  0
    1.4826   -3.1891    0.0069 C   0  0  1  0  0  0  0  0  0  0  0  0
    0.5794   -2.0021    0.4098 C   0  0  0  0  0  0  0  0  0  0  0  0
   -0.1572   -1.1325   -1.0322 S   0  0  0  0  0  0  0  0  0  0  0  0
    1.3042   -0.1127   -1.4465 C   0  0  0  0  0  0  0  0  0  0  0  0
    1.8459   -3.9879    1.1884 N   0  0  0  0  0  0  0  0  0  0  0  0
    2.6289   -5.1931    1.1269 C   0  0  0  0  0  0  0  0  0  0  0  0
    2.2073   -6.2169    1.7340 O   0  0  0  0  0  0  0  0  0  0  0  0
    3.9575   -5.2798    0.4163 C   0  0  1  0  0  0  0  0  0  0  0  0
    3.8409   -5.3146   -1.1120 C   0  0  0  0  0  0  0  0  0  0  0  0
    4.8487   -4.1915    0.8326 N   0  0  0  0  0  0  0  0  0  0  0  0
    5.6402   -4.3271    2.0211 C   0  0  0  0  0  0  0  0  0  0  0  0
    5.1775   -3.9160    3.1236 O   0  0  0  0  0  0  0  0  0  0  0  0
    7.0346   -4.8941    1.9759 C   0  0  1  0  0  0  0  0  0  0  0  0
    7.0633   -6.3197    1.4161 C   0  0  0  0  0  0  0  0  0  0  0  0
    7.9092   -4.0320    1.1783 N   0  0  0  0  0  0  0  0  0  0  0  0
    8.9862   -3.3141    1.7828 C   0  0  0  0  0  0  0  0  0  0  0  0
    8.7401   -2.5116    2.7259 O   0  0  0  0  0  0  0  0  0  0  0  0
   10.4099   -3.5622    1.3651 C   0  0  1  0  0  0  0  0  0  0  0  0
   10.9511   -4.7948    2.0942 C   0  0  0  0  0  0  0  0  0  0  0  0
   10.4947   -3.7504   -0.0904 N   0  0  0  0  0  0  0  0  0  0  0  0
   10.2421   -2.7106   -1.0431 C   0  0  0  0  0  0  0  0  0  0  0  0
    9.6489   -2.9997   -2.1174 O   0  0  0  0  0  0  0  0  0  0  0  0
   10.7518   -1.3006   -0.8477 C   0  0  1  0  0  0  0  0  0  0  0  0
   11.8100   -0.9913   -1.9105 C   0  0  0  0  0  0  0  0  0  0  0  0
    9.6458   -0.3444   -0.9400 N   0  0  0  0  0  0  0  0  0  0  0  0
    9.1663    0.4028    0.1886 C   0  0  0  0  0  0  0  0  0  0  0  0
    8.0136    0.1635    0.6341 O   0  0  0  0  0  0  0  0  0  0  0  0
    9.9808    1.5109    0.8242 C   0  0  1  0  0  0  0  0  0  0  0  0
   11.0223    0.9536    1.7978 C   0  0  0  0  0  0  0  0  0  0  0  0
   10.6391    2.3181   -0.2142 N   0  0  0  0  0  0  0  0  0  0  0  0
   10.4393    3.7226   -0.4675 C   0  0  0  0  0  0  0  0  0  0  0  0
   11.0196    4.2367   -1.4577 O   0  0  0  0  0  0  0  0  0  0  0  0
    9.6082    4.6051    0.4339 C   0  0  1  0  0  0  0  0  0  0  0  0
   10.3630    4.9179    1.7279 C   0  0  0  0  0  0  0  0  0  0  0  0
    9.2792    5.8728   -0.2405 N   0  0  0  0  0  0  0  0  0  0  0  0
    7.9495    6.2809   -0.5875 C   0  0  0  0  0  0  0  0  0  0  0  0
    7.6859    7.5170   -0.5984 O   0  0  0  0  0  0  0  0  0  0  0  0
    9.2882    6.1523   -3.1830 H   0  0  0  0  0  0  0  0  0  0  0  0
    7.6854    6.9977   -3.2682 H   0  0  0  0  0  0  0  0  0  0  0  0
    8.4196    6.3035   -4.7578 H   0  0  0  0  0  0  0  0  0  0  0  0
    7.2495    3.3732   -1.9046 H   0  0  0  0  0  0  0  0  0  0  0  0
    6.7220    4.6534   -0.0517 H   0  0  0  0  0  0  0  0  0  0  0  0
    5.6256    6.6394   -2.1218 H   0  0  0  0  0  0  0  0  0  0  0  0
    5.1618    6.5177   -0.3979 H   0  0  0  0  0  0  0  0  0  0  0  0
    4.4269    4.4209    0.6747 H   0  0  0  0  0  0  0  0  0  0  0  0
    5.0792    3.0161   -0.2358 H   0  0  0  0  0  0  0  0  0  0  0  0
    3.3571    1.6014   -1.5928 H   0  0  0  0  0  0  0  0  0  0  0  0
   -0.1930    0.8525    0.7354 H   0  0  0  0  0  0  0  0  0  0  0  0
    2.2993    4.2056    1.6612 H   0  0  0  0  0  0  0  0  0  0  0  0
    0.3112    3.8786    2.9194 H   0  0  0  0  0  0  0  0  0  0  0  0
    0.1057    2.1307    3.1977 H   0  0  0  0  0  0  0  0  0  0  0  0
   -2.2451    4.3736   -0.0102 H   0  0  0  0  0  0  0  0  0  0  0  0
   -0.5668    4.6845    0.5045 H   0  0  0  0  0  0  0  0  0  0  0  0
   -3.0087    5.4191    2.2295 H   0  0  0  0  0  0  0  0  0  0  0  0
    0.9040    6.9863    2.9536 H   0  0  0  0  0  0  0  0  0  0  0  0
    0.5313    6.5507    1.2633 H   0  0  0  0  0  0  0  0  0  0  0  0
   -1.6968    7.2042    0.1241 H   0  0  0  0  0  0  0  0  0  0  0  0
   -4.5378    7.0261    2.4484 H   0  0  0  0  0  0  0  0  0  0  0  0
   -5.6360    9.0262    1.7072 H   0  0  0  0  0  0  0  0  0  0  0  0
   -6.4273    8.1833    0.3232 H   0  0  0  0  0  0  0  0  0  0  0  0
   -6.8767    7.7687    2.0312 H   0  0  0  0  0  0  0  0  0  0  0  0
   -5.3240    4.9199    1.9385 H   0  0  0  0  0  0  0  0  0  0  0  0
   -7.7287    6.2935   -0.0021 H   0  0  0  0  0  0  0  0  0  0  0  0
   -6.3756    7.0513   -1.9662 H   0  0  0  0  0  0  0  0  0  0  0  0
   -6.6235    5.4477   -2.7525 H   0  0  0  0  0  0  0  0  0  0  0  0
   -8.0359    6.5247   -2.4247 H   0  0  0  0  0  0  0  0  0  0  0  0
   -8.3421    3.9401   -1.6711 H   0  0  0  0  0  0  0  0  0  0  0  0
  -10.2845    2.8694    1.4960 H   0  0  0  0  0  0  0  0  0  0  0  0
  -12.1188    4.1058    0.4116 H   0  0  0  0  0  0  0  0  0  0  0  0
  -10.9482    4.9328   -0.6908 H   0  0  0  0  0  0  0  0  0  0  0  0
  -10.8938    5.2353    1.0915 H   0  0  0  0  0  0  0  0  0  0  0  0
  -10.3160    2.5801   -1.5360 H   0  0  0  0  0  0  0  0  0  0  0  0
  -10.6276   -0.5681    1.2168 H   0  0  0  0  0  0  0  0  0  0  0  0
  -12.9895    0.2264    1.7218 H   0  0  0  0  0  0  0  0  0  0  0  0
  -11.6818    1.3290    2.2171 H   0  0  0  0  0  0  0  0  0  0  0  0
  -12.6640    1.6838    0.7225 H   0  0  0  0  0  0  0  0  0  0  0  0
  -12.4990   -0.2826   -1.1822 H   0  0  0  0  0  0  0  0  0  0  0  0
  -10.3588   -2.6855    0.6767 H   0  0  0  0  0  0  0  0  0  0  0  0
  -13.0105   -3.4238    2.0785 H   0  0  0  0  0  0  0  0  0  0  0  0
  -11.9468   -2.0296    2.4965 H   0  0  0  0  0  0  0  0  0  0  0  0
  -11.3435   -3.7103    2.7206 H   0  0  0  0  0  0  0  0  0  0  0  0
  -12.2380   -5.0316    0.3120 H   0  0  0  0  0  0  0  0  0  0  0  0
   -8.8008   -5.3731   -1.8887 H   0  0  0  0  0  0  0  0  0  0  0  0
  -10.8952   -4.3317   -2.8107 H   0  0  0  0  0  0  0  0  0  0  0  0
   -9.3473   -3.5461   -3.2900 H   0  0  0  0  0  0  0  0  0  0  0  0
  -10.3865   -2.7744   -2.0579 H   0  0  0  0  0  0  0  0  0  0  0  0
   -8.4816   -2.6762   -0.5901 H   0  0  0  0  0  0  0  0  0  0  0  0
   -5.2220   -5.1305   -0.0756 H   0  0  0  0  0  0  0  0  0  0  0  0
   -6.9152   -6.7685    0.7880 H   0  0  0  0  0  0  0  0  0  0  0  0
   -5.9129   -7.4109   -0.5651 H   0  0  0  0  0  0  0  0  0  0  0  0
   -7.6000   -6.9118   -0.8828 H   0  0  0  0  0  0  0  0  0  0  0  0
   -6.7576   -4.7092   -2.6290 H   0  0  0  0  0  0  0  0  0  0  0  0
   -3.8089   -6.4896   -1.1221 H   0  0  0  0  0  0  0  0  0  0  0  0
   -1.8760   -7.3287   -2.4047 H   0  0  0  0  0  0  0  0  0  0  0  0
   -3.4415   -7.8345   -3.1386 H   0  0  0  0  0  0  0  0  0  0  0  0
   -2.4704   -6.5034   -3.8935 H   0  0  0  0  0  0  0  0  0  0  0  0
   -2.2468   -4.2477   -2.5014 H   0  0  0  0  0  0  0  0  0  0  0  0
   -0.7727   -4.5232    1.1299 H   0  0  0  0  0  0  0  0  0  0  0  0
   -1.6315   -7.2288   -0.0429 H   0  0  0  0  0  0  0  0  0  0  0  0
   -2.2619   -6.4856    1.4758 H   0  0  0  0  0  0  0  0  0  0  0  0
   -0.5234   -6.9286    1.3353 H   0  0  0  0  0  0  0  0  0  0  0  0
   -0.0226   -5.9584   -1.4402 H   0  0  0  0  0  0  0  0  0  0  0  0
    2.4129   -2.7607   -0.4051 H   0  0  0  0  0  0  0  0  0  0  0  0
    1.1660   -1.2895    1.0225 H   0  0  0  0  0  0  0  0  0  0  0  0
   -0.2653   -2.3511    1.0457 H   0  0  0  0  0  0  0  0  0  0  0  0
    1.1578    0.2422   -2.4842 H   0  0  0  0  0  0  0  0  0  0  0  0
    2.2157   -0.7420   -1.4440 H   0  0  0  0  0  0  0  0  0  0  0  0
    1.3567   -3.7968    2.0926 H   0  0  0  0  0  0  0  0  0  0  0  0
    4.4121   -6.2481    0.7063 H   0  0  0  0  0  0  0  0  0  0  0  0
    3.6480   -4.3043   -1.5302 H   0  0  0  0  0  0  0  0  0  0  0  0
    3.0337   -6.0105   -1.4211 H   0  0  0  0  0  0  0  0  0  0  0  0
    4.7977   -5.6782   -1.5442 H   0  0  0  0  0  0  0  0  0  0  0  0
    4.6229   -3.2204    0.5229 H   0  0  0  0  0  0  0  0  0  0  0  0
    7.4195   -4.9509    3.0168 H   0  0  0  0  0  0  0  0  0  0  0  0
    8.0950   -6.7282    1.4859 H   0  0  0  0  0  0  0  0  0  0  0  0
    6.3866   -6.9813    1.9996 H   0  0  0  0  0  0  0  0  0  0  0  0
    6.7640   -6.3309    0.3469 H   0  0  0  0  0  0  0  0  0  0  0  0
    7.8857   -4.1240    0.1379 H   0  0  0  0  0  0  0  0  0  0  0  0
   11.0396   -2.7051    1.6745 H   0  0  0  0  0  0  0  0  0  0  0  0
   10.3660   -5.6983    1.8251 H   0  0  0  0  0  0  0  0  0  0  0  0
   10.8978   -4.6454    3.1945 H   0  0  0  0  0  0  0  0  0  0  0  0
   12.0159   -4.9618    1.8180 H   0  0  0  0  0  0  0  0  0  0  0  0
   10.4682   -4.7313   -0.4523 H   0  0  0  0  0  0  0  0  0  0  0  0
   11.2454   -1.2197    0.1313 H   0  0  0  0  0  0  0  0  0  0  0  0
   12.6012   -1.7713   -1.8999 H   0  0  0  0  0  0  0  0  0  0  0  0
   11.3568   -0.9567   -2.9261 H   0  0  0  0  0  0  0  0  0  0  0  0
   12.2963   -0.0167   -1.7035 H   0  0  0  0  0  0  0  0  0  0  0  0
    9.0143   -0.4004   -1.7743 H   0  0  0  0  0  0  0  0  0  0  0  0
    9.2855    2.1279    1.4239 H   0  0  0  0  0  0  0  0  0  0  0  0
   11.3579    1.7553    2.4898 H   0  0  0  0  0  0  0  0  0  0  0  0
   10.5928    0.1308    2.4079 H   0  0  0  0  0  0  0  0  0  0  0  0
   11.9226    0.5870    1.2607 H   0  0  0  0  0  0  0  0  0  0  0  0
   11.3143    1.8314   -0.8387 H   0  0  0  0  0  0  0  0  0  0  0  0
    8.6755    4.0745    0.6966 H   0  0  0  0  0  0  0  0  0  0  0  0
    9.7434    5.5802    2.3703 H   0  0  0  0  0  0  0  0  0  0  0  0
   11.3241    5.4325    1.5063 H   0  0  0  0  0  0  0  0  0  0  0  0
   10.5809    3.9930    2.2940 H   0  0  0  0  0  0  0  0  0  0  0  0
   10.0481    6.5612   -0.3890 H   0  0  0  0  0  0  0  0  0  0  0  0
  1  2  1  0
  2  3  2  0
  2  4  1  0
  4  5  1  0
  5  6  1  0
  6  7  1  0
  7  8  1  0
  8  9  1  0
  9 10  2  0
 10 11  1  0
 11 12  2  0
 12 13  1  0
 13 14  2  0
 13 15  1  0
 15 16  1  0
 16 17  1  0
 17 18  1  0
 18 19  1  0
 19 20  1  0
 19 21  2  0
 18 22  1  0
 22 23  1  0
 23 24  2  0
 23 25  1  0
 25 26  1  0
 25 27  1  0
 27 28  1  0
 28 29  2  0
 28 30  1  0
 30 31  1  0
 30 32  1  0
 32 33  1  0
 33 34  2  0
 33 35  1  0
 35 36  1  0
 35 37  1  0
 37 38  1  0
 38 39  2  0
 38 40  1  0
 40 41  1  0
 40 42  1  0
 42 43  1  0
 43 44  2  0
 43 45  1  0
 45 46  1  0
 45 47  1  0
 47 48  1  0
 48 49  2  0
 48 50  1  0
 50 51  1  0
 50 52  1  0
 52 53  1  0
 53 54  2  0
 53 55  1  0
 55 56  1  0
 55 57  1  0
 57 58  1  0
 58 59  2  0
 58 60  1  0
 60 61  1  0
 60 62  1  0
 62 63  1  0
 63 64  2  0
 63 65  1  0
 65 66  1  0
 65 67  1  0
 67 68  1  0
 68 69  2  0
 68 70  1  0
 70 71  1  0
 71 72  1  0
 72 73  1  0
 70 74  1  0
 74 75  1  0
 75 76  2  0
 75 77  1  0
 77 78  1  0
 77 79  1  0
 79 80  1  0
 80 81  2  0
 80 82  1  0
 82 83  1  0
 82 84  1  0
 84 85  1  0
 85 86  2  0
 85 87  1  0
 87 88  1  0
 87 89  1  0
 89 90  1  0
 90 91  2  0
 90 92  1  0
 92 93  1  0
 92 94  1  0
 94 95  1  0
 95 96  2  0
 95 97  1  0
 97 98  1  0
 97 99  1  0
 99100  1  0
100101  2  0
100102  1  0
102103  1  0
102104  1  0
104105  1  0
105106  2  0
105  5  1  0
 14  9  1  0
 73 11  1  0
  1107  1  0
  1108  1  0
  1109  1  0
  4110  1  0
  5111  1  1
  6112  1  0
  6113  1  0
  8114  1  0
  8115  1  0
 10116  1  0
 12117  1  0
 14118  1  0
 15119  1  0
 15120  1  0
 17121  1  0
 17122  1  0
 18123  1  1
 20124  1  0
 20125  1  0
 22126  1  0
 25127  1  1
 26128  1  0
 26129  1  0
 26130  1  0
 27131  1  0
 30132  1  1
 31133  1  0
 31134  1  0
 31135  1  0
 32136  1  0
 35137  1  1
 36138  1  0
 36139  1  0
 36140  1  0
 37141  1  0
 40142  1  1
 41143  1  0
 41144  1  0
 41145  1  0
 42146  1  0
 45147  1  1
 46148  1  0
 46149  1  0
 46150  1  0
 47151  1  0
 50152  1  6
 51153  1  0
 51154  1  0
 51155  1  0
 52156  1  0
 55157  1  1
 56158  1  0
 56159  1  0
 56160  1  0
 57161  1  0
 60162  1  1
 61163  1  0
 61164  1  0
 61165  1  0
 62166  1  0
 65167  1  1
 66168  1  0
 66169  1  0
 66170  1  0
 67171  1  0
 70172  1  6
 71173  1  0
 71174  1  0
 73175  1  0
 73176  1  0
 74177  1  0
 77178  1  1
 78179  1  0
 78180  1  0
 78181  1  0
 79182  1  0
 82183  1  1
 83184  1  0
 83185  1  0
 83186  1  0
 84187  1  0
 87188  1  1
 88189  1  0
 88190  1  0
 88191  1  0
 89192  1  0
 92193  1  1
 93194  1  0
 93195  1  0
 93196  1  0
 94197  1  0
 97198  1  1
 98199  1  0
 98200  1  0
 98201  1  0
 99202  1  0
102203  1  1
103204  1  0
103205  1  0
103206  1  0
104207  1  0
M  END
