
     RDKit          3D

207209  0  0  0  0  0  0  0  0999 V2000
    6.5357   -7.8539    1.3421 C   0  0  0  0  0  0  0  0  0  0  0  0
    6.6444   -7.5378   -0.1233 C   0  0  0  0  0  0  0  0  0  0  0  0
    6.8252   -8.4810   -0.9381 O   0  0  0  0  0  0  0  0  0  0  0  0
    6.5632   -6.1917   -0.6203 N   0  0  0  0  0  0  0  0  0  0  0  0
    6.1122   -5.0475    0.1851 C   0  0  2  0  0  0  0  0  0  0  0  0
    4.5674   -4.9218    0.1812 C   0  0  0  0  0  0  0  0  0  0  0  0
    3.7714   -5.6233   -1.3239 S   0  0  0  0  0  0  0  0  0  0  0  0
    3.1472   -4.0610   -2.0353 C   0  0  0  0  0  0  0  0  0  0  0  0
    2.0135   -3.4952   -1.2253 C   0  0  0  0  0  0  0  0  0  0  0  0
    0.8227   -4.2150   -1.0750 C   0  0  0  0  0  0  0  0  0  0  0  0
   -0.2483   -3.6842   -0.3503 C   0  0  0  0  0  0  0  0  0  0  0  0
   -0.1283   -2.4062    0.2276 C   0  0  0  0  0  0  0  0  0  0  0  0
    1.0448   -1.6478    0.0558 C   0  0  0  0  0  0  0  0  0  0  0  0
    2.1237   -2.2264   -0.6360 C   0  0  0  0  0  0  0  0  0  0  0  0
    1.1683   -0.2756    0.6875 C   0  0  0  0  0  0  0  0  0  0  0  0
    2.1140    0.8685   -0.3966 S   0  0  0  0  0  0  0  0  0  0  0  0
    1.0286    2.3354   -0.3022 C   0  0  0  0  0  0  0  0  0  0  0  0
    1.3806    3.2786    0.8691 C   0  0  1  0  0  0  0  0  0  0  0  0
    2.5928    4.0592    0.5784 N   0  0  0  0  0  0  0  0  0  0  0  0
    3.9071    3.4865    0.4769 C   0  0  0  0  0  0  0  0  0  0  0  0
    4.2200    2.4953    1.1834 O   0  0  0  0  0  0  0  0  0  0  0  0
    4.9278    4.0963   -0.4599 C   0  0  1  0  0  0  0  0  0  0  0  0
    4.2836    4.3401   -1.8304 C   0  0  0  0  0  0  0  0  0  0  0  0
    5.4190    5.3629    0.0966 N   0  0  0  0  0  0  0  0  0  0  0  0
    6.7855    5.6966    0.4159 C   0  0  0  0  0  0  0  0  0  0  0  0
    7.0030    6.7569    1.0669 O   0  0  0  0  0  0  0  0  0  0  0  0
    7.9816    4.8791   -0.0313 C   0  0  1  0  0  0  0  0  0  0  0  0
    8.0616    3.5221    0.7025 C   0  0  0  0  0  0  0  0  0  0  0  0
    8.0025    4.7189   -1.4890 N   0  0  0  0  0  0  0  0  0  0  0  0
    9.0990    4.1989   -2.2564 C   0  0  0  0  0  0  0  0  0  0  0  0
    8.8414    3.5218   -3.2882 O   0  0  0  0  0  0  0  0  0  0  0  0
   10.5435    4.5328   -1.9666 C   0  0  1  0  0  0  0  0  0  0  0  0
   10.7826    6.0456   -2.0743 C   0  0  0  0  0  0  0  0  0  0  0  0
   10.9617    4.0340   -0.6475 N   0  0  0  0  0  0  0  0  0  0  0  0
   11.2549    2.6587   -0.3513 C   0  0  0  0  0  0  0  0  0  0  0  0
   11.6194    2.3694    0.8215 O   0  0  0  0  0  0  0  0  0  0  0  0
   11.2411    1.5731   -1.4067 C   0  0  1  0  0  0  0  0  0  0  0  0
   12.6298    1.4931   -2.0557 C   0  0  0  0  0  0  0  0  0  0  0  0
   10.8780    0.2826   -0.8074 N   0  0  0  0  0  0  0  0  0  0  0  0
   11.0423   -0.9635   -1.4933 C   0  0  0  0  0  0  0  0  0  0  0  0
   10.7905   -1.0334   -2.7282 O   0  0  0  0  0  0  0  0  0  0  0  0
   11.5794   -2.1904   -0.7889 C   0  0  1  0  0  0  0  0  0  0  0  0
   12.0262   -1.8784    0.6535 C   0  0  0  0  0  0  0  0  0  0  0  0
   10.5843   -3.2753   -0.8504 N   0  0  0  0  0  0  0  0  0  0  0  0
   10.3832   -4.2335    0.1918 C   0  0  0  0  0  0  0  0  0  0  0  0
   11.3288   -4.9984    0.5231 O   0  0  0  0  0  0  0  0  0  0  0  0
    9.0461   -4.3670    0.8688 C   0  0  1  0  0  0  0  0  0  0  0  0
    9.1777   -4.1240    2.3732 C   0  0  0  0  0  0  0  0  0  0  0  0
    8.0792   -3.4113    0.3008 N   0  0  0  0  0  0  0  0  0  0  0  0
    6.8193   -3.7900   -0.2650 C   0  0  0  0  0  0  0  0  0  0  0  0
    6.2710   -3.0098   -1.0927 O   0  0  0  0  0  0  0  0  0  0  0  0
    0.2247    4.2340    1.0964 C   0  0  0  0  0  0  0  0  0  0  0  0
   -0.4171    4.1857    2.1775 O   0  0  0  0  0  0  0  0  0  0  0  0
   -0.1050    5.1991    0.0788 N   0  0  0  0  0  0  0  0  0  0  0  0
   -0.8102    6.4780    0.2688 C   0  0  2  0  0  0  0  0  0  0  0  0
   -0.1008    7.5585   -0.5488 C   0  0  0  0  0  0  0  0  0  0  0  0
   -0.8732    6.9083    1.7258 C   0  0  0  0  0  0  0  0  0  0  0  0
    0.2110    7.0661    2.3484 O   0  0  0  0  0  0  0  0  0  0  0  0
   -2.1061    7.1478    2.4312 N   0  0  0  0  0  0  0  0  0  0  0  0
   -3.4251    7.3131    1.8048 C   0  0  2  0  0  0  0  0  0  0  0  0
   -3.5358    8.7056    1.1688 C   0  0  0  0  0  0  0  0  0  0  0  0
   -4.5157    7.1241    2.8388 C   0  0  0  0  0  0  0  0  0  0  0  0
   -4.5441    7.9026    3.8340 O   0  0  0  0  0  0  0  0  0  0  0  0
   -5.5192    6.0939    2.7420 N   0  0  0  0  0  0  0  0  0  0  0  0
   -5.6819    5.1548    1.6217 C   0  0  2  0  0  0  0  0  0  0  0  0
   -6.3205    5.8764    0.4209 C   0  0  0  0  0  0  0  0  0  0  0  0
   -6.4635    3.9440    2.0721 C   0  0  0  0  0  0  0  0  0  0  0  0
   -5.9815    3.2158    2.9854 O   0  0  0  0  0  0  0  0  0  0  0  0
   -7.6576    3.5161    1.4130 N   0  0  0  0  0  0  0  0  0  0  0  0
   -8.9836    4.0707    1.7162 C   0  0  2  0  0  0  0  0  0  0  0  0
   -9.2917    3.9741    3.2175 C   0  0  0  0  0  0  0  0  0  0  0  0
  -10.0798    3.3986    0.9193 C   0  0  0  0  0  0  0  0  0  0  0  0
  -11.1779    4.0031    0.7567 O   0  0  0  0  0  0  0  0  0  0  0  0
   -9.9134    2.0755    0.3930 N   0  0  0  0  0  0  0  0  0  0  0  0
  -10.3627    1.6579   -0.9441 C   0  0  2  0  0  0  0  0  0  0  0  0
  -10.2426    2.7924   -1.9765 C   0  0  0  0  0  0  0  0  0  0  0  0
  -11.7768    1.1317   -0.8736 C   0  0  0  0  0  0  0  0  0  0  0  0
  -12.7112    1.9387   -0.6131 O   0  0  0  0  0  0  0  0  0  0  0  0
  -12.1115   -0.2510   -1.0939 N   0  0  0  0  0  0  0  0  0  0  0  0
  -11.1512   -1.3202   -1.3907 C   0  0  2  0  0  0  0  0  0  0  0  0
  -10.8727   -1.3723   -2.9005 C   0  0  0  0  0  0  0  0  0  0  0  0
  -11.6869   -2.6493   -0.9104 C   0  0  0  0  0  0  0  0  0  0  0  0
  -12.8515   -3.0048   -1.2334 O   0  0  0  0  0  0  0  0  0  0  0  0
  -10.8737   -3.5291   -0.1202 N   0  0  0  0  0  0  0  0  0  0  0  0
   -9.5648   -3.9901   -0.5921 C   0  0  2  0  0  0  0  0  0  0  0  0
   -9.7683   -5.0330   -1.6979 C   0  0  0  0  0  0  0  0  0  0  0  0
   -8.7649   -4.5948    0.5426 C   0  0  0  0  0  0  0  0  0  0  0  0
   -9.2903   -5.5286    1.2073 O   0  0  0  0  0  0  0  0  0  0  0  0
   -7.4345   -4.1748    0.8964 N   0  0  0  0  0  0  0  0  0  0  0  0
   -6.5698   -3.2057    0.2087 C   0  0  2  0  0  0  0  0  0  0  0  0
   -6.9776   -1.7814    0.5930 C   0  0  0  0  0  0  0  0  0  0  0  0
   -6.5187   -3.4383   -1.2902 C   0  0  0  0  0  0  0  0  0  0  0  0
   -6.7632   -2.4837   -2.0790 O   0  0  0  0  0  0  0  0  0  0  0  0
   -6.2313   -4.7268   -1.8553 N   0  0  0  0  0  0  0  0  0  0  0  0
   -5.2466   -5.6689   -1.3090 C   0  0  2  0  0  0  0  0  0  0  0  0
   -4.7609   -6.5945   -2.4365 C   0  0  0  0  0  0  0  0  0  0  0  0
   -5.8643   -6.5132   -0.2163 C   0  0  0  0  0  0  0  0  0  0  0  0
   -6.9613   -7.0871   -0.4512 O   0  0  0  0  0  0  0  0  0  0  0  0
   -5.2394   -6.7332    1.0654 N   0  0  0  0  0  0  0  0  0  0  0  0
   -4.0475   -6.0313    1.5644 C   0  0  1  0  0  0  0  0  0  0  0  0
   -4.0088   -6.0914    3.0734 C   0  0  0  0  0  0  0  0  0  0  0  0
   -3.9754   -7.3495    3.7648 N   0  0  0  0  0  0  0  0  0  0  0  0
   -3.9843   -5.0251    3.7351 O   0  0  0  0  0  0  0  0  0  0  0  0
   -2.7641   -6.6403    0.9554 C   0  0  0  0  0  0  0  0  0  0  0  0
   -1.2959   -5.5863    1.2882 S   0  0  0  0  0  0  0  0  0  0  0  0
   -1.4989   -4.4989   -0.1703 C   0  0  0  0  0  0  0  0  0  0  0  0
    5.5504   -7.5209    1.7326 H   0  0  0  0  0  0  0  0  0  0  0  0
    6.6431   -8.9445    1.5099 H   0  0  0  0  0  0  0  0  0  0  0  0
    7.3469   -7.3257    1.8881 H   0  0  0  0  0  0  0  0  0  0  0  0
    6.7878   -6.0358   -1.6309 H   0  0  0  0  0  0  0  0  0  0  0  0
    6.4087   -5.1973    1.2408 H   0  0  0  0  0  0  0  0  0  0  0  0
    4.1684   -5.5057    1.0319 H   0  0  0  0  0  0  0  0  0  0  0  0
    4.2630   -3.8695    0.3680 H   0  0  0  0  0  0  0  0  0  0  0  0
    3.9792   -3.3299   -2.1273 H   0  0  0  0  0  0  0  0  0  0  0  0
    2.7753   -4.2641   -3.0589 H   0  0  0  0  0  0  0  0  0  0  0  0
    0.7324   -5.1951   -1.5388 H   0  0  0  0  0  0  0  0  0  0  0  0
   -0.9477   -2.0067    0.8152 H   0  0  0  0  0  0  0  0  0  0  0  0
    3.0520   -1.6809   -0.7527 H   0  0  0  0  0  0  0  0  0  0  0  0
    0.1528    0.1225    0.8945 H   0  0  0  0  0  0  0  0  0  0  0  0
    1.6976   -0.3679    1.6562 H   0  0  0  0  0  0  0  0  0  0  0  0
    1.1363    2.8832   -1.2613 H   0  0  0  0  0  0  0  0  0  0  0  0
   -0.0356    2.0137   -0.2430 H   0  0  0  0  0  0  0  0  0  0  0  0
    1.5370    2.6806    1.7986 H   0  0  0  0  0  0  0  0  0  0  0  0
    2.5035    5.0759    0.3532 H   0  0  0  0  0  0  0  0  0  0  0  0
    5.7540    3.3707   -0.6094 H   0  0  0  0  0  0  0  0  0  0  0  0
    5.0407    4.6560   -2.5778 H   0  0  0  0  0  0  0  0  0  0  0  0
    3.8126    3.4086   -2.2102 H   0  0  0  0  0  0  0  0  0  0  0  0
    3.5144    5.1350   -1.7759 H   0  0  0  0  0  0  0  0  0  0  0  0
    4.6991    6.0910    0.3229 H   0  0  0  0  0  0  0  0  0  0  0  0
    8.8797    5.4618    0.2585 H   0  0  0  0  0  0  0  0  0  0  0  0
    8.0841    2.6726   -0.0111 H   0  0  0  0  0  0  0  0  0  0  0  0
    8.9862    3.4794    1.3212 H   0  0  0  0  0  0  0  0  0  0  0  0
    7.2021    3.3742    1.3973 H   0  0  0  0  0  0  0  0  0  0  0  0
    7.1592    4.9883   -2.0340 H   0  0  0  0  0  0  0  0  0  0  0  0
   11.1886    4.0682   -2.7476 H   0  0  0  0  0  0  0  0  0  0  0  0
   11.8651    6.2683   -1.9481 H   0  0  0  0  0  0  0  0  0  0  0  0
   10.2176    6.6046   -1.2998 H   0  0  0  0  0  0  0  0  0  0  0  0
   10.4680    6.4117   -3.0781 H   0  0  0  0  0  0  0  0  0  0  0  0
   11.1021    4.7265    0.1240 H   0  0  0  0  0  0  0  0  0  0  0  0
   10.4937    1.8009   -2.1920 H   0  0  0  0  0  0  0  0  0  0  0  0
   13.3770    1.1142   -1.3231 H   0  0  0  0  0  0  0  0  0  0  0  0
   12.9532    2.4924   -2.4155 H   0  0  0  0  0  0  0  0  0  0  0  0
   12.6158    0.8148   -2.9309 H   0  0  0  0  0  0  0  0  0  0  0  0
   10.4357    0.2555    0.1397 H   0  0  0  0  0  0  0  0  0  0  0  0
   12.4839   -2.5269   -1.3440 H   0  0  0  0  0  0  0  0  0  0  0  0
   12.7192   -1.0105    0.6639 H   0  0  0  0  0  0  0  0  0  0  0  0
   12.5753   -2.7425    1.0881 H   0  0  0  0  0  0  0  0  0  0  0  0
   11.1511   -1.6496    1.2944 H   0  0  0  0  0  0  0  0  0  0  0  0
   10.1668   -3.4968   -1.7869 H   0  0  0  0  0  0  0  0  0  0  0  0
    8.6982   -5.4067    0.7101 H   0  0  0  0  0  0  0  0  0  0  0  0
    9.8027   -4.9166    2.8423 H   0  0  0  0  0  0  0  0  0  0  0  0
    9.6401   -3.1312    2.5707 H   0  0  0  0  0  0  0  0  0  0  0  0
    8.1720   -4.1593    2.8442 H   0  0  0  0  0  0  0  0  0  0  0  0
    8.3243   -2.3943    0.3210 H   0  0  0  0  0  0  0  0  0  0  0  0
    0.1935    4.9762   -0.8982 H   0  0  0  0  0  0  0  0  0  0  0  0
   -1.8188    6.3640   -0.1658 H   0  0  0  0  0  0  0  0  0  0  0  0
   -0.5660    8.5537   -0.3836 H   0  0  0  0  0  0  0  0  0  0  0  0
    0.9756    7.6183   -0.2699 H   0  0  0  0  0  0  0  0  0  0  0  0
   -0.1708    7.3170   -1.6301 H   0  0  0  0  0  0  0  0  0  0  0  0
   -2.0050    7.4383    3.4283 H   0  0  0  0  0  0  0  0  0  0  0  0
   -3.5426    6.5692    1.0044 H   0  0  0  0  0  0  0  0  0  0  0  0
   -3.3066    9.4969    1.9194 H   0  0  0  0  0  0  0  0  0  0  0  0
   -4.5617    8.8793    0.7745 H   0  0  0  0  0  0  0  0  0  0  0  0
   -2.8292    8.8007    0.3222 H   0  0  0  0  0  0  0  0  0  0  0  0
   -6.2045    6.0350    3.5321 H   0  0  0  0  0  0  0  0  0  0  0  0
   -4.6878    4.7650    1.3166 H   0  0  0  0  0  0  0  0  0  0  0  0
   -7.2285    6.4275    0.7332 H   0  0  0  0  0  0  0  0  0  0  0  0
   -6.5872    5.1504   -0.3762 H   0  0  0  0  0  0  0  0  0  0  0  0
   -5.6146    6.6054   -0.0188 H   0  0  0  0  0  0  0  0  0  0  0  0
   -7.5455    2.7241    0.7393 H   0  0  0  0  0  0  0  0  0  0  0  0
   -8.9843    5.1477    1.4419 H   0  0  0  0  0  0  0  0  0  0  0  0
  -10.2612    4.4650    3.4356 H   0  0  0  0  0  0  0  0  0  0  0  0
   -8.5127    4.5017    3.8064 H   0  0  0  0  0  0  0  0  0  0  0  0
   -9.3437    2.9109    3.5335 H   0  0  0  0  0  0  0  0  0  0  0  0
   -9.3799    1.3781    0.9597 H   0  0  0  0  0  0  0  0  0  0  0  0
   -9.6656    0.8782   -1.2968 H   0  0  0  0  0  0  0  0  0  0  0  0
  -10.9779    3.6012   -1.7831 H   0  0  0  0  0  0  0  0  0  0  0  0
  -10.4339    2.3891   -2.9942 H   0  0  0  0  0  0  0  0  0  0  0  0
   -9.2181    3.2180   -1.9571 H   0  0  0  0  0  0  0  0  0  0  0  0
  -13.1335   -0.4736   -1.1687 H   0  0  0  0  0  0  0  0  0  0  0  0
  -10.2039   -1.1367   -0.8524 H   0  0  0  0  0  0  0  0  0  0  0  0
  -10.0963   -2.1366   -3.1205 H   0  0  0  0  0  0  0  0  0  0  0  0
  -11.7995   -1.6249   -3.4606 H   0  0  0  0  0  0  0  0  0  0  0  0
  -10.4961   -0.3883   -3.2584 H   0  0  0  0  0  0  0  0  0  0  0  0
  -11.3751   -4.1007    0.6015 H   0  0  0  0  0  0  0  0  0  0  0  0
   -9.0287   -3.1353   -1.0279 H   0  0  0  0  0  0  0  0  0  0  0  0
   -8.7995   -5.4914   -1.9756 H   0  0  0  0  0  0  0  0  0  0  0  0
  -10.4580   -5.8306   -1.3569 H   0  0  0  0  0  0  0  0  0  0  0  0
  -10.1932   -4.5541   -2.6032 H   0  0  0  0  0  0  0  0  0  0  0  0
   -7.0143   -4.6454    1.7308 H   0  0  0  0  0  0  0  0  0  0  0  0
   -5.5355   -3.3357    0.5823 H   0  0  0  0  0  0  0  0  0  0  0  0
   -7.0750   -1.7004    1.6968 H   0  0  0  0  0  0  0  0  0  0  0  0
   -6.1924   -1.0606    0.2685 H   0  0  0  0  0  0  0  0  0  0  0  0
   -7.9435   -1.4810    0.1349 H   0  0  0  0  0  0  0  0  0  0  0  0
   -6.5759   -4.8799   -2.8304 H   0  0  0  0  0  0  0  0  0  0  0  0
   -4.3611   -5.1103   -0.9480 H   0  0  0  0  0  0  0  0  0  0  0  0
   -4.2316   -6.0113   -3.2147 H   0  0  0  0  0  0  0  0  0  0  0  0
   -5.6196   -7.1072   -2.9126 H   0  0  0  0  0  0  0  0  0  0  0  0
   -4.0676   -7.3645   -2.0453 H   0  0  0  0  0  0  0  0  0  0  0  0
   -5.7464   -7.3778    1.7155 H   0  0  0  0  0  0  0  0  0  0  0  0
   -4.1128   -4.9668    1.2782 H   0  0  0  0  0  0  0  0  0  0  0  0
   -3.9012   -7.3646    4.8075 H   0  0  0  0  0  0  0  0  0  0  0  0
   -4.0103   -8.2543    3.2390 H   0  0  0  0  0  0  0  0  0  0  0  0
   -2.8777   -6.8051   -0.1280 H   0  0  0  0  0  0  0  0  0  0  0  0
   -2.5783   -7.6422    1.3908 H   0  0  0  0  0  0  0  0  0  0  0  0
   -1.6574   -5.1123   -1.0840 H   0  0  0  0  0  0  0  0  0  0  0  0
   -2.3824   -3.8378   -0.0374 H   0  0  0  0  0  0  0  0  0  0  0  0
  1  2  1  0
  2  3  2  0
  2  4  1  0
  4  5  1  0
  5  6  1  0
  6  7  1  0
  7  8  1  0
  8  9  1  0
  9 10  2  0
 10 11  1  0
 11 12  2  0
 12 13  1  0
 13 14  2  0
 13 15  1  0
 15 16  1  0
 16 17  1  0
 17 18  1  0
 18 19  1  0
 19 20  1  0
 20 21  2  0
 20 22  1  0
 22 23  1  0
 22 24  1  0
 24 25  1  0
 25 26  2  0
 25 27  1  0
 27 28  1  0
 27 29  1  0
 29 30  1  0
 30 31  2  0
 30 32  1  0
 32 33  1  0
 32 34  1  0
 34 35  1  0
 35 36  2  0
 35 37  1  0
 37 38  1  0
 37 39  1  0
 39 40  1  0
 40 41  2  0
 40 42  1  0
 42 43  1  0
 42 44  1  0
 44 45  1  0
 45 46  2  0
 45 47  1  0
 47 48  1  0
 47 49  1  0
 49 50  1  0
 50 51  2  0
 18 52  1  0
 52 53  2  0
 52 54  1  0
 54 55  1  0
 55 56  1  0
 55 57  1  0
 57 58  2  0
 57 59  1  0
 59 60  1  0
 60 61  1  0
 60 62  1  0
 62 63  2  0
 62 64  1  0
 64 65  1  0
 65 66  1  0
 65 67  1  0
 67 68  2  0
 67 69  1  0
 69 70  1  0
 70 71  1  0
 70 72  1  0
 72 73  2  0
 72 74  1  0
 74 75  1  0
 75 76  1  0
 75 77  1  0
 77 78  2  0
 77 79  1  0
 79 80  1  0
 80 81  1  0
 80 82  1  0
 82 83  2  0
 82 84  1  0
 84 85  1  0
 85 86  1  0
 85 87  1  0
 87 88  2  0
 87 89  1  0
 89 90  1  0
 90 91  1  0
 90 92  1  0
 92 93  2  0
 92 94  1  0
 94 95  1  0
 95 96  1  0
 95 97  1  0
 97 98  2  0
 97 99  1  0
 99100  1  0
100101  1  0
101102  1  0
101103  2  0
100104  1  0
104105  1  0
105106  1  0
 50  5  1  0
 14  9  1  0
106 11  1  0
  1107  1  0
  1108  1  0
  1109  1  0
  4110  1  0
  5111  1  1
  6112  1  0
  6113  1  0
  8114  1  0
  8115  1  0
 10116  1  0
 12117  1  0
 14118  1  0
 15119  1  0
 15120  1  0
 17121  1  0
 17122  1  0
 18123  1  1
 19124  1  0
 22125  1  6
 23126  1  0
 23127  1  0
 23128  1  0
 24129  1  0
 27130  1  1
 28131  1  0
 28132  1  0
 28133  1  0
 29134  1  0
 32135  1  6
 33136  1  0
 33137  1  0
 33138  1  0
 34139  1  0
 37140  1  6
 38141  1  0
 38142  1  0
 38143  1  0
 39144  1  0
 42145  1  6
 43146  1  0
 43147  1  0
 43148  1  0
 44149  1  0
 47150  1  1
 48151  1  0
 48152  1  0
 48153  1  0
 49154  1  0
 54155  1  0
 55156  1  6
 56157  1  0
 56158  1  0
 56159  1  0
 59160  1  0
 60161  1  6
 61162  1  0
 61163  1  0
 61164  1  0
 64165  1  0
 65166  1  6
 66167  1  0
 66168  1  0
 66169  1  0
 69170  1  0
 70171  1  6
 71172  1  0
 71173  1  0
 71174  1  0
 74175  1  0
 75176  1  6
 76177  1  0
 76178  1  0
 76179  1  0
 79180  1  0
 80181  1  1
 81182  1  0
 81183  1  0
 81184  1  0
 84185  1  0
 85186  1  6
 86187  1  0
 86188  1  0
 86189  1  0
 89190  1  0
 90191  1  1
 91192  1  0
 91193  1  0
 91194  1  0
 94195  1  0
 95196  1  1
 96197  1  0
 96198  1  0
 96199  1  0
 99200  1  0
100201  1  1
102202  1  0
102203  1  0
104204  1  0
104205  1  0
106206  1  0
106207  1  0
M  END
