
     RDKit          3D

 97 99  0  0  0  0  0  0  0  0999 V2000
    5.6243    1.3394   -2.7101 C   0  0  0  0  0  0  0  0  0  0  0  0
    4.3706    1.5917   -1.9340 C   0  0  0  0  0  0  0  0  0  0  0  0
    3.5644    2.4634   -2.3539 O   0  0  0  0  0  0  0  0  0  0  0  0
    4.0154    0.8217   -0.7659 N   0  0  0  0  0  0  0  0  0  0  0  0
    4.9579    0.2285    0.2025 C   0  0  2  0  0  0  0  0  0  0  0  0
    5.8740    1.3020    0.8498 C   0  0  0  0  0  0  0  0  0  0  0  0
    5.0630    2.1247    2.2710 S   0  0  0  0  0  0  0  0  0  0  0  0
    4.0189    3.3003    1.3237 C   0  0  0  0  0  0  0  0  0  0  0  0
    2.5273    3.0576    1.4265 C   0  0  0  0  0  0  0  0  0  0  0  0
    1.6698    4.0503    0.9295 C   0  0  0  0  0  0  0  0  0  0  0  0
    0.2773    3.9268    1.0567 C   0  0  0  0  0  0  0  0  0  0  0  0
   -0.2564    2.7840    1.6587 C   0  0  0  0  0  0  0  0  0  0  0  0
    0.5687    1.7517    2.1213 C   0  0  0  0  0  0  0  0  0  0  0  0
    1.9649    1.9050    2.0133 C   0  0  0  0  0  0  0  0  0  0  0  0
   -0.0901    0.5994    2.8440 C   0  0  0  0  0  0  0  0  0  0  0  0
    0.9967   -0.8365    3.1824 S   0  0  0  0  0  0  0  0  0  0  0  0
    0.9942   -1.5032    1.4821 C   0  0  0  0  0  0  0  0  0  0  0  0
    1.4888   -2.9528    1.4792 C   0  0  2  0  0  0  0  0  0  0  0  0
    1.9003   -3.3174    0.1231 N   0  0  0  0  0  0  0  0  0  0  0  0
    3.2439   -3.6468   -0.2529 C   0  0  0  0  0  0  0  0  0  0  0  0
    3.4336   -4.4937   -1.1739 O   0  0  0  0  0  0  0  0  0  0  0  0
    4.4333   -2.9539    0.3665 C   0  0  1  0  0  0  0  0  0  0  0  0
    5.3838   -3.9703    0.9946 C   0  0  0  0  0  0  0  0  0  0  0  0
    5.1521   -2.1966   -0.6626 N   0  0  0  0  0  0  0  0  0  0  0  0
    5.7391   -0.9081   -0.4361 C   0  0  0  0  0  0  0  0  0  0  0  0
    6.9219   -0.7085   -0.8264 O   0  0  0  0  0  0  0  0  0  0  0  0
    0.4087   -3.8724    1.9877 C   0  0  0  0  0  0  0  0  0  0  0  0
   -0.0057   -3.7525    3.1717 O   0  0  0  0  0  0  0  0  0  0  0  0
   -0.1743   -4.8624    1.1377 N   0  0  0  0  0  0  0  0  0  0  0  0
   -1.5891   -4.7877    0.7946 C   0  0  2  0  0  0  0  0  0  0  0  0
   -2.1908   -6.1911    0.7256 C   0  0  0  0  0  0  0  0  0  0  0  0
   -1.7347   -4.0759   -0.5314 C   0  0  0  0  0  0  0  0  0  0  0  0
   -1.2160   -4.5866   -1.5618 O   0  0  0  0  0  0  0  0  0  0  0  0
   -2.3648   -2.7920   -0.6463 N   0  0  0  0  0  0  0  0  0  0  0  0
   -3.6851   -2.5066   -0.0740 C   0  0  2  0  0  0  0  0  0  0  0  0
   -4.7700   -3.1404   -0.9553 C   0  0  0  0  0  0  0  0  0  0  0  0
   -3.8999   -1.0183    0.0442 C   0  0  0  0  0  0  0  0  0  0  0  0
   -4.0341   -0.5040    1.1889 O   0  0  0  0  0  0  0  0  0  0  0  0
   -3.9608   -0.1887   -1.1244 N   0  0  0  0  0  0  0  0  0  0  0  0
   -4.7870    1.0198   -1.1662 C   0  0  2  0  0  0  0  0  0  0  0  0
   -6.2690    0.6435   -1.1861 C   0  0  0  0  0  0  0  0  0  0  0  0
   -4.4392    1.8554   -2.3807 C   0  0  0  0  0  0  0  0  0  0  0  0
   -4.5104    1.3261   -3.5273 O   0  0  0  0  0  0  0  0  0  0  0  0
   -4.0121    3.2255   -2.2863 N   0  0  0  0  0  0  0  0  0  0  0  0
   -4.3124    4.1160   -1.1651 C   0  0  2  0  0  0  0  0  0  0  0  0
   -4.6852    5.4817   -1.6929 C   0  0  0  0  0  0  0  0  0  0  0  0
   -5.8438    5.6218   -2.5148 N   0  0  0  0  0  0  0  0  0  0  0  0
   -4.0013    6.5032   -1.4096 O   0  0  0  0  0  0  0  0  0  0  0  0
   -3.1515    4.1466   -0.1445 C   0  0  0  0  0  0  0  0  0  0  0  0
   -1.5380    4.5620   -0.9219 S   0  0  0  0  0  0  0  0  0  0  0  0
   -0.6447    5.0299    0.6092 C   0  0  0  0  0  0  0  0  0  0  0  0
    5.6331    0.2844   -3.0714 H   0  0  0  0  0  0  0  0  0  0  0  0
    5.6733    2.0080   -3.6056 H   0  0  0  0  0  0  0  0  0  0  0  0
    6.5271    1.5400   -2.0831 H   0  0  0  0  0  0  0  0  0  0  0  0
    3.0060    0.8070   -0.5056 H   0  0  0  0  0  0  0  0  0  0  0  0
    4.3527   -0.1872    1.0288 H   0  0  0  0  0  0  0  0  0  0  0  0
    6.7764    0.8037    1.2665 H   0  0  0  0  0  0  0  0  0  0  0  0
    6.2329    2.0518    0.1107 H   0  0  0  0  0  0  0  0  0  0  0  0
    4.3001    3.3354    0.2522 H   0  0  0  0  0  0  0  0  0  0  0  0
    4.2398    4.3099    1.7372 H   0  0  0  0  0  0  0  0  0  0  0  0
    2.0956    4.9392    0.4803 H   0  0  0  0  0  0  0  0  0  0  0  0
   -1.3205    2.7113    1.8052 H   0  0  0  0  0  0  0  0  0  0  0  0
    2.6099    1.1274    2.3919 H   0  0  0  0  0  0  0  0  0  0  0  0
   -0.4543    0.9816    3.8147 H   0  0  0  0  0  0  0  0  0  0  0  0
   -0.9917    0.2677    2.2817 H   0  0  0  0  0  0  0  0  0  0  0  0
    1.6608   -0.8687    0.8571 H   0  0  0  0  0  0  0  0  0  0  0  0
   -0.0278   -1.4575    1.0440 H   0  0  0  0  0  0  0  0  0  0  0  0
    2.3460   -3.0505    2.1750 H   0  0  0  0  0  0  0  0  0  0  0  0
    1.1713   -3.3931   -0.6237 H   0  0  0  0  0  0  0  0  0  0  0  0
    4.1094   -2.2840    1.1792 H   0  0  0  0  0  0  0  0  0  0  0  0
    5.7627   -4.6825    0.2262 H   0  0  0  0  0  0  0  0  0  0  0  0
    4.8637   -4.5430    1.7956 H   0  0  0  0  0  0  0  0  0  0  0  0
    6.2603   -3.4506    1.4416 H   0  0  0  0  0  0  0  0  0  0  0  0
    5.5519   -2.7515   -1.4524 H   0  0  0  0  0  0  0  0  0  0  0  0
    0.4571   -5.3807    0.4867 H   0  0  0  0  0  0  0  0  0  0  0  0
   -2.1190   -4.2318    1.5926 H   0  0  0  0  0  0  0  0  0  0  0  0
   -3.2659   -6.1209    0.4433 H   0  0  0  0  0  0  0  0  0  0  0  0
   -1.6558   -6.8260   -0.0120 H   0  0  0  0  0  0  0  0  0  0  0  0
   -2.1163   -6.6730    1.7243 H   0  0  0  0  0  0  0  0  0  0  0  0
   -2.0490   -2.1934   -1.4495 H   0  0  0  0  0  0  0  0  0  0  0  0
   -3.7646   -2.9514    0.9432 H   0  0  0  0  0  0  0  0  0  0  0  0
   -5.7706   -2.8789   -0.5555 H   0  0  0  0  0  0  0  0  0  0  0  0
   -4.6857   -2.7811   -2.0045 H   0  0  0  0  0  0  0  0  0  0  0  0
   -4.6598   -4.2481   -0.9254 H   0  0  0  0  0  0  0  0  0  0  0  0
   -3.4325   -0.4833   -1.9851 H   0  0  0  0  0  0  0  0  0  0  0  0
   -4.6010    1.5977   -0.2434 H   0  0  0  0  0  0  0  0  0  0  0  0
   -6.8943    1.5607   -1.2236 H   0  0  0  0  0  0  0  0  0  0  0  0
   -6.4996    0.0163   -2.0698 H   0  0  0  0  0  0  0  0  0  0  0  0
   -6.5348    0.0800   -0.2712 H   0  0  0  0  0  0  0  0  0  0  0  0
   -3.5505    3.6315   -3.1282 H   0  0  0  0  0  0  0  0  0  0  0  0
   -5.2159    3.7554   -0.6300 H   0  0  0  0  0  0  0  0  0  0  0  0
   -6.4113    4.7816   -2.7727 H   0  0  0  0  0  0  0  0  0  0  0  0
   -6.1429    6.5620   -2.8636 H   0  0  0  0  0  0  0  0  0  0  0  0
   -3.4090    4.8784    0.6552 H   0  0  0  0  0  0  0  0  0  0  0  0
   -3.0649    3.1481    0.3344 H   0  0  0  0  0  0  0  0  0  0  0  0
   -1.3477    5.2898    1.4336 H   0  0  0  0  0  0  0  0  0  0  0  0
   -0.0712    5.9569    0.3951 H   0  0  0  0  0  0  0  0  0  0  0  0
  1  2  1  0
  2  3  2  0
  2  4  1  0
  4  5  1  0
  5  6  1  0
  6  7  1  0
  7  8  1  0
  8  9  1  0
  9 10  1  0
 10 11  2  0
 11 12  1  0
 12 13  2  0
 13 14  1  0
 13 15  1  0
 15 16  1  0
 16 17  1  0
 17 18  1  0
 18 19  1  0
 19 20  1  0
 20 21  2  0
 20 22  1  0
 22 23  1  0
 22 24  1  0
 24 25  1  0
 25 26  2  0
 18 27  1  0
 27 28  2  0
 27 29  1  0
 29 30  1  0
 30 31  1  0
 30 32  1  0
 32 33  2  0
 32 34  1  0
 34 35  1  0
 35 36  1  0
 35 37  1  0
 37 38  2  0
 37 39  1  0
 39 40  1  0
 40 41  1  0
 40 42  1  0
 42 43  2  0
 42 44  1  0
 44 45  1  0
 45 46  1  0
 46 47  1  0
 46 48  2  0
 45 49  1  0
 49 50  1  0
 50 51  1  0
 25  5  1  0
 14  9  2  0
 51 11  1  0
  1 52  1  0
  1 53  1  0
  1 54  1  0
  4 55  1  0
  5 56  1  1
  6 57  1  0
  6 58  1  0
  8 59  1  0
  8 60  1  0
 10 61  1  0
 12 62  1  0
 14 63  1  0
 15 64  1  0
 15 65  1  0
 17 66  1  0
 17 67  1  0
 18 68  1  1
 19 69  1  0
 22 70  1  1
 23 71  1  0
 23 72  1  0
 23 73  1  0
 24 74  1  0
 29 75  1  0
 30 76  1  1
 31 77  1  0
 31 78  1  0
 31 79  1  0
 34 80  1  0
 35 81  1  1
 36 82  1  0
 36 83  1  0
 36 84  1  0
 39 85  1  0
 40 86  1  1
 41 87  1  0
 41 88  1  0
 41 89  1  0
 44 90  1  0
 45 91  1  1
 47 92  1  0
 47 93  1  0
 49 94  1  0
 49 95  1  0
 51 96  1  0
 51 97  1  0
M  END
