
     RDKit          3D

217219  0  0  0  0  0  0  0  0999 V2000
   -6.7865    7.9654   -0.8805 C   0  0  0  0  0  0  0  0  0  0  0  0
   -6.2649    7.0391    0.1708 C   0  0  0  0  0  0  0  0  0  0  0  0
   -5.2874    7.3879    0.8877 O   0  0  0  0  0  0  0  0  0  0  0  0
   -6.8524    5.7455    0.3219 N   0  0  0  0  0  0  0  0  0  0  0  0
   -6.6355    4.9222    1.5166 C   0  0  2  0  0  0  0  0  0  0  0  0
   -5.4552    3.9644    1.2734 C   0  0  0  0  0  0  0  0  0  0  0  0
   -5.8134    2.7395   -0.0478 S   0  0  0  0  0  0  0  0  0  0  0  0
   -4.8548    3.5388   -1.3877 C   0  0  0  0  0  0  0  0  0  0  0  0
   -3.3852    3.2339   -1.2661 C   0  0  0  0  0  0  0  0  0  0  0  0
   -2.4440    4.2661   -1.2401 C   0  0  0  0  0  0  0  0  0  0  0  0
   -1.0734    3.9716   -1.1852 C   0  0  0  0  0  0  0  0  0  0  0  0
   -0.6602    2.6303   -1.0496 C   0  0  0  0  0  0  0  0  0  0  0  0
   -1.5974    1.5872   -1.0846 C   0  0  0  0  0  0  0  0  0  0  0  0
   -2.9476    1.8966   -1.2134 C   0  0  0  0  0  0  0  0  0  0  0  0
   -1.1549    0.1433   -1.0644 C   0  0  0  0  0  0  0  0  0  0  0  0
   -2.0356   -0.7841    0.2461 S   0  0  0  0  0  0  0  0  0  0  0  0
   -2.3851   -2.3223   -0.7107 C   0  0  0  0  0  0  0  0  0  0  0  0
   -2.3589   -3.5741    0.2110 C   0  0  1  0  0  0  0  0  0  0  0  0
   -3.2705   -3.3927    1.3519 N   0  0  0  0  0  0  0  0  0  0  0  0
   -4.3511   -4.2682    1.6912 C   0  0  0  0  0  0  0  0  0  0  0  0
   -4.1034   -5.3456    2.3054 O   0  0  0  0  0  0  0  0  0  0  0  0
   -5.7934   -3.8680    1.4491 C   0  0  1  0  0  0  0  0  0  0  0  0
   -5.9366   -2.3920    0.9953 C   0  0  0  0  0  0  0  0  0  0  0  0
   -6.4411   -4.8321    0.5477 N   0  0  0  0  0  0  0  0  0  0  0  0
   -6.8146   -4.5672   -0.8195 C   0  0  0  0  0  0  0  0  0  0  0  0
   -6.1254   -3.7588   -1.4985 O   0  0  0  0  0  0  0  0  0  0  0  0
   -8.1060   -5.0953   -1.4226 C   0  0  1  0  0  0  0  0  0  0  0  0
   -7.7906   -5.8606   -2.7339 C   0  0  0  0  0  0  0  0  0  0  0  0
   -8.8866   -5.9834   -0.5297 N   0  0  0  0  0  0  0  0  0  0  0  0
   -9.4278   -5.6609    0.7666 C   0  0  0  0  0  0  0  0  0  0  0  0
   -9.2404   -6.4770    1.7117 O   0  0  0  0  0  0  0  0  0  0  0  0
  -10.3333   -4.4619    1.0284 C   0  0  1  0  0  0  0  0  0  0  0  0
   -9.5345   -3.3390    1.6895 C   0  0  0  0  0  0  0  0  0  0  0  0
  -10.9991   -3.9962   -0.2006 N   0  0  0  0  0  0  0  0  0  0  0  0
  -11.8467   -2.8334   -0.1973 C   0  0  0  0  0  0  0  0  0  0  0  0
  -13.1003   -2.9726   -0.1123 O   0  0  0  0  0  0  0  0  0  0  0  0
  -11.2642   -1.4621   -0.4327 C   0  0  1  0  0  0  0  0  0  0  0  0
  -11.6063   -1.0078   -1.8552 C   0  0  0  0  0  0  0  0  0  0  0  0
  -11.7279   -0.5188    0.5989 N   0  0  0  0  0  0  0  0  0  0  0  0
  -12.7773    0.4280    0.4095 C   0  0  0  0  0  0  0  0  0  0  0  0
  -13.9575    0.1259    0.7557 O   0  0  0  0  0  0  0  0  0  0  0  0
  -12.4523    1.8361   -0.0122 C   0  0  1  0  0  0  0  0  0  0  0  0
  -13.4871    2.3593   -1.0122 C   0  0  0  0  0  0  0  0  0  0  0  0
  -12.4380    2.7007    1.1706 N   0  0  0  0  0  0  0  0  0  0  0  0
  -11.3670    3.5808    1.5624 C   0  0  0  0  0  0  0  0  0  0  0  0
  -11.4799    4.2085    2.6497 O   0  0  0  0  0  0  0  0  0  0  0  0
  -10.1266    3.8195    0.7116 C   0  0  1  0  0  0  0  0  0  0  0  0
  -10.5088    4.5038   -0.6178 C   0  0  0  0  0  0  0  0  0  0  0  0
   -9.1743    4.6736    1.4353 N   0  0  0  0  0  0  0  0  0  0  0  0
   -7.9102    4.1934    1.8924 C   0  0  0  0  0  0  0  0  0  0  0  0
   -7.8788    3.3279    2.8178 O   0  0  0  0  0  0  0  0  0  0  0  0
   -2.6582   -4.8425   -0.5523 C   0  0  0  0  0  0  0  0  0  0  0  0
   -3.4225   -4.7939   -1.5629 O   0  0  0  0  0  0  0  0  0  0  0  0
   -2.2089   -6.1303   -0.0995 N   0  0  0  0  0  0  0  0  0  0  0  0
   -0.8110   -6.4937    0.2365 C   0  0  2  0  0  0  0  0  0  0  0  0
   -0.4265   -6.0056    1.6449 C   0  0  0  0  0  0  0  0  0  0  0  0
    0.1816   -6.0180   -0.8122 C   0  0  0  0  0  0  0  0  0  0  0  0
   -0.2116   -5.5325   -1.9064 O   0  0  0  0  0  0  0  0  0  0  0  0
    1.5836   -6.1665   -0.5909 N   0  0  0  0  0  0  0  0  0  0  0  0
    2.3511   -7.3907   -0.8627 C   0  0  2  0  0  0  0  0  0  0  0  0
    1.5684   -8.4087   -1.7109 C   0  0  0  0  0  0  0  0  0  0  0  0
    2.7871   -8.0010    0.4485 C   0  0  0  0  0  0  0  0  0  0  0  0
    1.9583   -8.6681    1.1211 O   0  0  0  0  0  0  0  0  0  0  0  0
    4.0858   -7.7596    1.0060 N   0  0  0  0  0  0  0  0  0  0  0  0
    5.2992   -7.4752    0.2261 C   0  0  2  0  0  0  0  0  0  0  0  0
    5.6735   -8.6992   -0.6204 C   0  0  0  0  0  0  0  0  0  0  0  0
    6.4307   -7.1270    1.1701 C   0  0  0  0  0  0  0  0  0  0  0  0
    6.8162   -7.9839    2.0128 O   0  0  0  0  0  0  0  0  0  0  0  0
    7.0040   -5.8188    1.2029 N   0  0  0  0  0  0  0  0  0  0  0  0
    7.3469   -5.0099    0.0171 C   0  0  2  0  0  0  0  0  0  0  0  0
    8.0794   -5.8292   -1.0484 C   0  0  0  0  0  0  0  0  0  0  0  0
    8.1407   -3.7814    0.4378 C   0  0  0  0  0  0  0  0  0  0  0  0
    7.6796   -2.6456    0.1362 O   0  0  0  0  0  0  0  0  0  0  0  0
    9.3351   -3.8572    1.2410 N   0  0  0  0  0  0  0  0  0  0  0  0
   10.4553   -4.7781    1.0092 C   0  0  2  0  0  0  0  0  0  0  0  0
   10.3388   -5.9928    1.9645 C   0  0  0  0  0  0  0  0  0  0  0  0
   11.7954   -4.0778    1.1758 C   0  0  0  0  0  0  0  0  0  0  0  0
   12.8123   -4.7418    1.5342 O   0  0  0  0  0  0  0  0  0  0  0  0
   11.9642   -2.6604    0.9623 N   0  0  0  0  0  0  0  0  0  0  0  0
   11.3223   -1.8838   -0.1158 C   0  0  2  0  0  0  0  0  0  0  0  0
   11.5147   -2.5606   -1.4852 C   0  0  0  0  0  0  0  0  0  0  0  0
   11.8970   -0.4925   -0.1514 C   0  0  0  0  0  0  0  0  0  0  0  0
   13.1337   -0.3222   -0.3723 O   0  0  0  0  0  0  0  0  0  0  0  0
   11.0793    0.6265    0.1882 N   0  0  0  0  0  0  0  0  0  0  0  0
   10.7975    1.7431   -0.7204 C   0  0  2  0  0  0  0  0  0  0  0  0
   10.6212    1.2607   -2.1650 C   0  0  0  0  0  0  0  0  0  0  0  0
   11.8638    2.8049   -0.6513 C   0  0  0  0  0  0  0  0  0  0  0  0
   13.0337    2.5289   -0.2589 O   0  0  0  0  0  0  0  0  0  0  0  0
   11.5713    4.1218   -1.1252 N   0  0  0  0  0  0  0  0  0  0  0  0
   11.0585    5.2098   -0.2775 C   0  0  2  0  0  0  0  0  0  0  0  0
   12.2143    6.0604    0.2458 C   0  0  0  0  0  0  0  0  0  0  0  0
   10.2062    4.7139    0.8739 C   0  0  0  0  0  0  0  0  0  0  0  0
   10.7090    3.9317    1.7257 O   0  0  0  0  0  0  0  0  0  0  0  0
    8.8495    5.1348    1.0314 N   0  0  0  0  0  0  0  0  0  0  0  0
    8.4945    6.5606    1.0665 C   0  0  2  0  0  0  0  0  0  0  0  0
    8.6207    7.0641    2.5104 C   0  0  0  0  0  0  0  0  0  0  0  0
    7.0862    6.7886    0.5355 C   0  0  0  0  0  0  0  0  0  0  0  0
    6.4487    5.8417    0.0132 O   0  0  0  0  0  0  0  0  0  0  0  0
    6.4955    8.1015    0.6555 N   0  0  0  0  0  0  0  0  0  0  0  0
    5.0490    8.4032    0.5704 C   0  0  2  0  0  0  0  0  0  0  0  0
    4.7428    9.6459    1.4268 C   0  0  0  0  0  0  0  0  0  0  0  0
    4.1921    7.2446    1.0263 C   0  0  0  0  0  0  0  0  0  0  0  0
    4.4749    6.6612    2.1085 O   0  0  0  0  0  0  0  0  0  0  0  0
    3.1080    6.7472    0.2230 N   0  0  0  0  0  0  0  0  0  0  0  0
    2.1383    7.6257   -0.4457 C   0  0  1  0  0  0  0  0  0  0  0  0
    2.2394    7.5330   -1.9544 C   0  0  0  0  0  0  0  0  0  0  0  0
    3.1021    6.5862   -2.5843 N   0  0  0  0  0  0  0  0  0  0  0  0
    1.5908    8.3405   -2.6754 O   0  0  0  0  0  0  0  0  0  0  0  0
    0.7000    7.3888    0.0791 C   0  0  0  0  0  0  0  0  0  0  0  0
    0.2886    5.6338    0.4831 S   0  0  0  0  0  0  0  0  0  0  0  0
   -0.0688    5.0827   -1.2208 C   0  0  0  0  0  0  0  0  0  0  0  0
   -6.1970    8.8956   -0.9126 H   0  0  0  0  0  0  0  0  0  0  0  0
   -6.7541    7.4683   -1.8738 H   0  0  0  0  0  0  0  0  0  0  0  0
   -7.8471    8.1985   -0.6439 H   0  0  0  0  0  0  0  0  0  0  0  0
   -7.3585    5.3363   -0.4946 H   0  0  0  0  0  0  0  0  0  0  0  0
   -6.3869    5.5721    2.3776 H   0  0  0  0  0  0  0  0  0  0  0  0
   -5.2362    3.3994    2.2053 H   0  0  0  0  0  0  0  0  0  0  0  0
   -4.5450    4.5534    1.0338 H   0  0  0  0  0  0  0  0  0  0  0  0
   -5.0426    4.6381   -1.4070 H   0  0  0  0  0  0  0  0  0  0  0  0
   -5.2123    3.1375   -2.3678 H   0  0  0  0  0  0  0  0  0  0  0  0
   -2.7648    5.2948   -1.2776 H   0  0  0  0  0  0  0  0  0  0  0  0
    0.3968    2.4051   -0.9254 H   0  0  0  0  0  0  0  0  0  0  0  0
   -3.6887    1.1042   -1.2183 H   0  0  0  0  0  0  0  0  0  0  0  0
   -0.0752    0.0844   -0.8202 H   0  0  0  0  0  0  0  0  0  0  0  0
   -1.3261   -0.2826   -2.0665 H   0  0  0  0  0  0  0  0  0  0  0  0
   -1.6286   -2.4783   -1.5127 H   0  0  0  0  0  0  0  0  0  0  0  0
   -3.3735   -2.2302   -1.2020 H   0  0  0  0  0  0  0  0  0  0  0  0
   -1.3329   -3.6413    0.6152 H   0  0  0  0  0  0  0  0  0  0  0  0
   -3.0772   -2.6281    2.0279 H   0  0  0  0  0  0  0  0  0  0  0  0
   -6.3176   -3.9513    2.4326 H   0  0  0  0  0  0  0  0  0  0  0  0
   -5.8421   -1.6816    1.8834 H   0  0  0  0  0  0  0  0  0  0  0  0
   -6.9091   -2.2286    0.4735 H   0  0  0  0  0  0  0  0  0  0  0  0
   -5.1473   -2.0260    0.2808 H   0  0  0  0  0  0  0  0  0  0  0  0
   -6.4430   -5.8366    0.8569 H   0  0  0  0  0  0  0  0  0  0  0  0
   -8.7200   -4.1996   -1.6868 H   0  0  0  0  0  0  0  0  0  0  0  0
   -6.8715   -5.4612   -3.2319 H   0  0  0  0  0  0  0  0  0  0  0  0
   -7.6040   -6.9333   -2.4944 H   0  0  0  0  0  0  0  0  0  0  0  0
   -8.6391   -5.7290   -3.4432 H   0  0  0  0  0  0  0  0  0  0  0  0
   -9.4424   -6.7290   -1.0024 H   0  0  0  0  0  0  0  0  0  0  0  0
  -11.1375   -4.8017    1.7107 H   0  0  0  0  0  0  0  0  0  0  0  0
   -8.8976   -2.8664    0.9237 H   0  0  0  0  0  0  0  0  0  0  0  0
   -8.9436   -3.7112    2.5549 H   0  0  0  0  0  0  0  0  0  0  0  0
  -10.2261   -2.5791    2.0887 H   0  0  0  0  0  0  0  0  0  0  0  0
  -11.3344   -4.7610   -0.8407 H   0  0  0  0  0  0  0  0  0  0  0  0
  -10.1541   -1.5085   -0.3730 H   0  0  0  0  0  0  0  0  0  0  0  0
  -11.1293   -0.0341   -2.0759 H   0  0  0  0  0  0  0  0  0  0  0  0
  -12.7087   -0.9207   -1.9816 H   0  0  0  0  0  0  0  0  0  0  0  0
  -11.2308   -1.7553   -2.5853 H   0  0  0  0  0  0  0  0  0  0  0  0
  -11.3872   -0.6517    1.5781 H   0  0  0  0  0  0  0  0  0  0  0  0
  -11.4627    1.8150   -0.5092 H   0  0  0  0  0  0  0  0  0  0  0  0
  -13.4610    1.7566   -1.9547 H   0  0  0  0  0  0  0  0  0  0  0  0
  -14.5092    2.3239   -0.5823 H   0  0  0  0  0  0  0  0  0  0  0  0
  -13.2729    3.4172   -1.2724 H   0  0  0  0  0  0  0  0  0  0  0  0
  -13.2916    2.7124    1.7738 H   0  0  0  0  0  0  0  0  0  0  0  0
   -9.6443    2.8404    0.4937 H   0  0  0  0  0  0  0  0  0  0  0  0
  -10.8221    3.7632   -1.3770 H   0  0  0  0  0  0  0  0  0  0  0  0
   -9.6411    5.0582   -1.0319 H   0  0  0  0  0  0  0  0  0  0  0  0
  -11.3397    5.2323   -0.4625 H   0  0  0  0  0  0  0  0  0  0  0  0
   -9.3712    5.7004    1.4953 H   0  0  0  0  0  0  0  0  0  0  0  0
   -2.8505   -6.9342   -0.2470 H   0  0  0  0  0  0  0  0  0  0  0  0
   -0.7482   -7.6048    0.2641 H   0  0  0  0  0  0  0  0  0  0  0  0
    0.0162   -4.9880    1.6466 H   0  0  0  0  0  0  0  0  0  0  0  0
    0.3405   -6.6884    2.0732 H   0  0  0  0  0  0  0  0  0  0  0  0
   -1.3042   -6.0256    2.3186 H   0  0  0  0  0  0  0  0  0  0  0  0
    2.1307   -5.3059   -0.3432 H   0  0  0  0  0  0  0  0  0  0  0  0
    3.2305   -7.1097   -1.4722 H   0  0  0  0  0  0  0  0  0  0  0  0
    2.2225   -9.2708   -1.9641 H   0  0  0  0  0  0  0  0  0  0  0  0
    1.2366   -7.9370   -2.6576 H   0  0  0  0  0  0  0  0  0  0  0  0
    0.6744   -8.7948   -1.1724 H   0  0  0  0  0  0  0  0  0  0  0  0
    4.1887   -7.8866    2.0415 H   0  0  0  0  0  0  0  0  0  0  0  0
    5.1101   -6.6120   -0.4393 H   0  0  0  0  0  0  0  0  0  0  0  0
    6.6363   -8.5436   -1.1472 H   0  0  0  0  0  0  0  0  0  0  0  0
    5.7729   -9.5989    0.0155 H   0  0  0  0  0  0  0  0  0  0  0  0
    4.8979   -8.8968   -1.3870 H   0  0  0  0  0  0  0  0  0  0  0  0
    7.2611   -5.4477    2.1428 H   0  0  0  0  0  0  0  0  0  0  0  0
    6.3996   -4.6440   -0.4342 H   0  0  0  0  0  0  0  0  0  0  0  0
    8.7382   -6.5965   -0.5838 H   0  0  0  0  0  0  0  0  0  0  0  0
    7.3426   -6.3534   -1.6947 H   0  0  0  0  0  0  0  0  0  0  0  0
    8.6858   -5.1766   -1.7165 H   0  0  0  0  0  0  0  0  0  0  0  0
    9.4711   -3.0890    1.9414 H   0  0  0  0  0  0  0  0  0  0  0  0
   10.4384   -5.1415   -0.0394 H   0  0  0  0  0  0  0  0  0  0  0  0
   10.4123   -6.9430    1.3887 H   0  0  0  0  0  0  0  0  0  0  0  0
   11.1324   -6.0050    2.7410 H   0  0  0  0  0  0  0  0  0  0  0  0
    9.3786   -5.9962    2.5117 H   0  0  0  0  0  0  0  0  0  0  0  0
   12.7764   -2.2260    1.4458 H   0  0  0  0  0  0  0  0  0  0  0  0
   10.2363   -1.7875    0.0820 H   0  0  0  0  0  0  0  0  0  0  0  0
   12.5107   -3.0438   -1.5588 H   0  0  0  0  0  0  0  0  0  0  0  0
   11.4388   -1.8202   -2.3126 H   0  0  0  0  0  0  0  0  0  0  0  0
   10.7238   -3.3243   -1.6537 H   0  0  0  0  0  0  0  0  0  0  0  0
   10.6061    0.6299    1.1304 H   0  0  0  0  0  0  0  0  0  0  0  0
    9.8315    2.2081   -0.4084 H   0  0  0  0  0  0  0  0  0  0  0  0
   10.3383    2.1196   -2.8221 H   0  0  0  0  0  0  0  0  0  0  0  0
    9.8184    0.4972   -2.2177 H   0  0  0  0  0  0  0  0  0  0  0  0
   11.5697    0.8252   -2.5526 H   0  0  0  0  0  0  0  0  0  0  0  0
   12.0547    4.4116   -2.0055 H   0  0  0  0  0  0  0  0  0  0  0  0
   10.4247    5.8518   -0.9290 H   0  0  0  0  0  0  0  0  0  0  0  0
   12.6835    6.6123   -0.6003 H   0  0  0  0  0  0  0  0  0  0  0  0
   12.9874    5.4118    0.7209 H   0  0  0  0  0  0  0  0  0  0  0  0
   11.8547    6.7959    0.9931 H   0  0  0  0  0  0  0  0  0  0  0  0
    8.2184    4.4822    1.5564 H   0  0  0  0  0  0  0  0  0  0  0  0
    9.1912    7.1530    0.4320 H   0  0  0  0  0  0  0  0  0  0  0  0
    8.5864    8.1755    2.5403 H   0  0  0  0  0  0  0  0  0  0  0  0
    7.7947    6.6557    3.1347 H   0  0  0  0  0  0  0  0  0  0  0  0
    9.5942    6.7420    2.9471 H   0  0  0  0  0  0  0  0  0  0  0  0
    7.1464    8.8953    0.8436 H   0  0  0  0  0  0  0  0  0  0  0  0
    4.8022    8.6433   -0.4848 H   0  0  0  0  0  0  0  0  0  0  0  0
    3.6616    9.9092    1.3652 H   0  0  0  0  0  0  0  0  0  0  0  0
    5.3443   10.5063    1.0540 H   0  0  0  0  0  0  0  0  0  0  0  0
    5.0094    9.4583    2.4874 H   0  0  0  0  0  0  0  0  0  0  0  0
    3.0374    5.7112    0.1132 H   0  0  0  0  0  0  0  0  0  0  0  0
    2.3892    8.6866   -0.2189 H   0  0  0  0  0  0  0  0  0  0  0  0
    3.6271    6.8452   -3.4490 H   0  0  0  0  0  0  0  0  0  0  0  0
    3.0414    5.5834   -2.3206 H   0  0  0  0  0  0  0  0  0  0  0  0
   -0.0491    7.8246   -0.6199 H   0  0  0  0  0  0  0  0  0  0  0  0
    0.6177    7.9527    1.0344 H   0  0  0  0  0  0  0  0  0  0  0  0
   -0.4734    5.9199   -1.8266 H   0  0  0  0  0  0  0  0  0  0  0  0
    0.8689    4.7504   -1.7056 H   0  0  0  0  0  0  0  0  0  0  0  0
  1  2  1  0
  2  3  2  0
  2  4  1  0
  4  5  1  0
  5  6  1  0
  6  7  1  0
  7  8  1  0
  8  9  1  0
  9 10  2  0
 10 11  1  0
 11 12  2  0
 12 13  1  0
 13 14  2  0
 13 15  1  0
 15 16  1  0
 16 17  1  0
 17 18  1  0
 18 19  1  0
 19 20  1  0
 20 21  2  0
 20 22  1  0
 22 23  1  0
 22 24  1  0
 24 25  1  0
 25 26  2  0
 25 27  1  0
 27 28  1  0
 27 29  1  0
 29 30  1  0
 30 31  2  0
 30 32  1  0
 32 33  1  0
 32 34  1  0
 34 35  1  0
 35 36  2  0
 35 37  1  0
 37 38  1  0
 37 39  1  0
 39 40  1  0
 40 41  2  0
 40 42  1  0
 42 43  1  0
 42 44  1  0
 44 45  1  0
 45 46  2  0
 45 47  1  0
 47 48  1  0
 47 49  1  0
 49 50  1  0
 50 51  2  0
 18 52  1  0
 52 53  2  0
 52 54  1  0
 54 55  1  0
 55 56  1  0
 55 57  1  0
 57 58  2  0
 57 59  1  0
 59 60  1  0
 60 61  1  0
 60 62  1  0
 62 63  2  0
 62 64  1  0
 64 65  1  0
 65 66  1  0
 65 67  1  0
 67 68  2  0
 67 69  1  0
 69 70  1  0
 70 71  1  0
 70 72  1  0
 72 73  2  0
 72 74  1  0
 74 75  1  0
 75 76  1  0
 75 77  1  0
 77 78  2  0
 77 79  1  0
 79 80  1  0
 80 81  1  0
 80 82  1  0
 82 83  2  0
 82 84  1  0
 84 85  1  0
 85 86  1  0
 85 87  1  0
 87 88  2  0
 87 89  1  0
 89 90  1  0
 90 91  1  0
 90 92  1  0
 92 93  2  0
 92 94  1  0
 94 95  1  0
 95 96  1  0
 95 97  1  0
 97 98  2  0
 97 99  1  0
 99100  1  0
100101  1  0
100102  1  0
102103  2  0
102104  1  0
104105  1  0
105106  1  0
106107  1  0
106108  2  0
105109  1  0
109110  1  0
110111  1  0
 50  5  1  0
 14  9  1  0
111 11  1  0
  1112  1  0
  1113  1  0
  1114  1  0
  4115  1  0
  5116  1  1
  6117  1  0
  6118  1  0
  8119  1  0
  8120  1  0
 10121  1  0
 12122  1  0
 14123  1  0
 15124  1  0
 15125  1  0
 17126  1  0
 17127  1  0
 18128  1  1
 19129  1  0
 22130  1  1
 23131  1  0
 23132  1  0
 23133  1  0
 24134  1  0
 27135  1  6
 28136  1  0
 28137  1  0
 28138  1  0
 29139  1  0
 32140  1  1
 33141  1  0
 33142  1  0
 33143  1  0
 34144  1  0
 37145  1  6
 38146  1  0
 38147  1  0
 38148  1  0
 39149  1  0
 42150  1  6
 43151  1  0
 43152  1  0
 43153  1  0
 44154  1  0
 47155  1  6
 48156  1  0
 48157  1  0
 48158  1  0
 49159  1  0
 54160  1  0
 55161  1  1
 56162  1  0
 56163  1  0
 56164  1  0
 59165  1  0
 60166  1  6
 61167  1  0
 61168  1  0
 61169  1  0
 64170  1  0
 65171  1  6
 66172  1  0
 66173  1  0
 66174  1  0
 69175  1  0
 70176  1  6
 71177  1  0
 71178  1  0
 71179  1  0
 74180  1  0
 75181  1  6
 76182  1  0
 76183  1  0
 76184  1  0
 79185  1  0
 80186  1  1
 81187  1  0
 81188  1  0
 81189  1  0
 84190  1  0
 85191  1  1
 86192  1  0
 86193  1  0
 86194  1  0
 89195  1  0
 90196  1  6
 91197  1  0
 91198  1  0
 91199  1  0
 94200  1  0
 95201  1  6
 96202  1  0
 96203  1  0
 96204  1  0
 99205  1  0
100206  1  6
101207  1  0
101208  1  0
101209  1  0
104210  1  0
105211  1  6
107212  1  0
107213  1  0
109214  1  0
109215  1  0
111216  1  0
111217  1  0
M  END
