
     RDKit          3D

197199  0  0  0  0  0  0  0  0999 V2000
   -5.2624    8.1805   -1.3277 C   0  0  0  0  0  0  0  0  0  0  0  0
   -6.5851    8.1101   -0.6277 C   0  0  0  0  0  0  0  0  0  0  0  0
   -7.0551    9.1728   -0.1424 O   0  0  0  0  0  0  0  0  0  0  0  0
   -7.3396    6.8830   -0.4949 N   0  0  0  0  0  0  0  0  0  0  0  0
   -6.7628    5.5277   -0.5727 C   0  0  1  0  0  0  0  0  0  0  0  0
   -5.7861    5.3280    0.6024 C   0  0  0  0  0  0  0  0  0  0  0  0
   -4.6843    3.8872    0.3766 S   0  0  0  0  0  0  0  0  0  0  0  0
   -3.4505    4.7166   -0.6888 C   0  0  0  0  0  0  0  0  0  0  0  0
   -2.1720    3.9252   -0.6457 C   0  0  0  0  0  0  0  0  0  0  0  0
   -1.1694    4.2695    0.2711 C   0  0  0  0  0  0  0  0  0  0  0  0
    0.0134    3.5132    0.3646 C   0  0  0  0  0  0  0  0  0  0  0  0
    0.1721    2.3844   -0.4621 C   0  0  0  0  0  0  0  0  0  0  0  0
   -0.8291    2.0221   -1.3765 C   0  0  0  0  0  0  0  0  0  0  0  0
   -2.0112    2.7841   -1.4506 C   0  0  0  0  0  0  0  0  0  0  0  0
   -0.6927    0.7639   -2.1853 C   0  0  0  0  0  0  0  0  0  0  0  0
   -1.4215   -0.6394   -1.2758 S   0  0  0  0  0  0  0  0  0  0  0  0
    0.1212   -1.2945   -0.5278 C   0  0  0  0  0  0  0  0  0  0  0  0
   -0.0314   -2.7818   -0.1402 C   0  0  1  0  0  0  0  0  0  0  0  0
   -0.4841   -3.5563   -1.3030 N   0  0  0  0  0  0  0  0  0  0  0  0
   -1.7134   -4.3020   -1.3679 C   0  0  0  0  0  0  0  0  0  0  0  0
   -1.7377   -5.3516   -2.0667 O   0  0  0  0  0  0  0  0  0  0  0  0
   -3.0032   -3.7782   -0.7744 C   0  0  1  0  0  0  0  0  0  0  0  0
   -3.9292   -3.2820   -1.8909 C   0  0  0  0  0  0  0  0  0  0  0  0
   -3.6722   -4.7900    0.0588 N   0  0  0  0  0  0  0  0  0  0  0  0
   -4.4519   -5.8662   -0.4722 C   0  0  0  0  0  0  0  0  0  0  0  0
   -3.8989   -6.7263   -1.2079 O   0  0  0  0  0  0  0  0  0  0  0  0
   -5.9471   -5.9204   -0.2543 C   0  0  1  0  0  0  0  0  0  0  0  0
   -6.4010   -7.3488    0.0701 C   0  0  0  0  0  0  0  0  0  0  0  0
   -6.3540   -5.0212    0.8279 N   0  0  0  0  0  0  0  0  0  0  0  0
   -7.3205   -3.9965    0.5826 C   0  0  0  0  0  0  0  0  0  0  0  0
   -6.9415   -2.8908    0.1101 O   0  0  0  0  0  0  0  0  0  0  0  0
   -8.7644   -4.2258    0.9000 C   0  0  1  0  0  0  0  0  0  0  0  0
   -9.1944   -3.3925    2.1145 C   0  0  0  0  0  0  0  0  0  0  0  0
   -9.5765   -3.9948   -0.3097 N   0  0  0  0  0  0  0  0  0  0  0  0
  -10.6609   -3.0616   -0.4192 C   0  0  0  0  0  0  0  0  0  0  0  0
  -11.8220   -3.5069   -0.6375 O   0  0  0  0  0  0  0  0  0  0  0  0
  -10.4090   -1.5752   -0.4367 C   0  0  1  0  0  0  0  0  0  0  0  0
  -10.3700   -1.0719   -1.8838 C   0  0  0  0  0  0  0  0  0  0  0  0
  -11.4611   -0.8755    0.3002 N   0  0  0  0  0  0  0  0  0  0  0  0
  -11.1513   -0.0217    1.3927 C   0  0  0  0  0  0  0  0  0  0  0  0
  -10.8203   -0.5215    2.4995 O   0  0  0  0  0  0  0  0  0  0  0  0
  -11.2605    1.4708    1.2198 C   0  0  1  0  0  0  0  0  0  0  0  0
  -12.5308    1.9966    1.9007 C   0  0  0  0  0  0  0  0  0  0  0  0
  -10.0674    2.1413    1.7660 N   0  0  0  0  0  0  0  0  0  0  0  0
   -9.6592    3.4888    1.4786 C   0  0  0  0  0  0  0  0  0  0  0  0
   -8.7661    4.0093    2.1945 O   0  0  0  0  0  0  0  0  0  0  0  0
  -10.2574    4.3251    0.3541 C   0  0  1  0  0  0  0  0  0  0  0  0
  -10.9811    5.5342    0.9481 C   0  0  0  0  0  0  0  0  0  0  0  0
   -9.2416    4.8017   -0.6041 N   0  0  0  0  0  0  0  0  0  0  0  0
   -7.8457    4.4600   -0.5660 C   0  0  0  0  0  0  0  0  0  0  0  0
   -7.5145    3.2416   -0.5811 O   0  0  0  0  0  0  0  0  0  0  0  0
    1.2794   -3.3561    0.3615 C   0  0  0  0  0  0  0  0  0  0  0  0
    2.2073   -2.5965    0.7559 O   0  0  0  0  0  0  0  0  0  0  0  0
    1.4454   -4.7771    0.4420 N   0  0  0  0  0  0  0  0  0  0  0  0
    2.5305   -5.5360   -0.2075 C   0  0  2  0  0  0  0  0  0  0  0  0
    3.2564   -4.7137   -1.2910 C   0  0  0  0  0  0  0  0  0  0  0  0
    1.9481   -6.7916   -0.8246 C   0  0  0  0  0  0  0  0  0  0  0  0
    0.7476   -6.7682   -1.2112 O   0  0  0  0  0  0  0  0  0  0  0  0
    2.7027   -8.0061   -1.0261 N   0  0  0  0  0  0  0  0  0  0  0  0
    4.1389   -8.1889   -0.7678 C   0  0  2  0  0  0  0  0  0  0  0  0
    4.5978   -9.5300   -1.3695 C   0  0  0  0  0  0  0  0  0  0  0  0
    4.4100   -8.2020    0.7183 C   0  0  0  0  0  0  0  0  0  0  0  0
    3.6546   -8.8864    1.4603 O   0  0  0  0  0  0  0  0  0  0  0  0
    5.5311   -7.5185    1.3177 N   0  0  0  0  0  0  0  0  0  0  0  0
    6.5132   -6.6723    0.6138 C   0  0  2  0  0  0  0  0  0  0  0  0
    7.4249   -7.5341   -0.2731 C   0  0  0  0  0  0  0  0  0  0  0  0
    7.3839   -5.9061    1.5919 C   0  0  0  0  0  0  0  0  0  0  0  0
    7.5903   -6.3756    2.7451 O   0  0  0  0  0  0  0  0  0  0  0  0
    8.1133   -4.7345    1.1943 N   0  0  0  0  0  0  0  0  0  0  0  0
    7.6078   -3.7135    0.2643 C   0  0  2  0  0  0  0  0  0  0  0  0
    7.9837   -4.0627   -1.1843 C   0  0  0  0  0  0  0  0  0  0  0  0
    8.1464   -2.3657    0.6935 C   0  0  0  0  0  0  0  0  0  0  0  0
    7.6452   -1.8266    1.7211 O   0  0  0  0  0  0  0  0  0  0  0  0
    9.2952   -1.7600    0.0640 N   0  0  0  0  0  0  0  0  0  0  0  0
   10.4134   -1.1990    0.8390 C   0  0  2  0  0  0  0  0  0  0  0  0
   11.0382   -2.2823    1.7298 C   0  0  0  0  0  0  0  0  0  0  0  0
    9.9498    0.0110    1.6216 C   0  0  0  0  0  0  0  0  0  0  0  0
    9.8222   -0.0638    2.8765 O   0  0  0  0  0  0  0  0  0  0  0  0
    9.5866    1.2355    0.9609 N   0  0  0  0  0  0  0  0  0  0  0  0
   10.2842    1.7311   -0.2361 C   0  0  2  0  0  0  0  0  0  0  0  0
   11.7232    2.1330    0.1132 C   0  0  0  0  0  0  0  0  0  0  0  0
    9.5645    2.9086   -0.8484 C   0  0  0  0  0  0  0  0  0  0  0  0
    9.2414    2.8682   -2.0635 O   0  0  0  0  0  0  0  0  0  0  0  0
    9.3366    4.1035   -0.0875 N   0  0  0  0  0  0  0  0  0  0  0  0
    9.6595    5.4257   -0.6248 C   0  0  2  0  0  0  0  0  0  0  0  0
    9.5312    6.5180    0.4471 C   0  0  0  0  0  0  0  0  0  0  0  0
    8.8515    5.7567   -1.8637 C   0  0  0  0  0  0  0  0  0  0  0  0
    9.4783    6.1668   -2.8805 O   0  0  0  0  0  0  0  0  0  0  0  0
    7.4225    5.6242   -1.9610 N   0  0  0  0  0  0  0  0  0  0  0  0
    6.4903    5.3654   -0.8533 C   0  0  2  0  0  0  0  0  0  0  0  0
    5.5661    4.2025   -1.2478 C   0  0  0  0  0  0  0  0  0  0  0  0
    5.7277    6.6325   -0.5500 C   0  0  0  0  0  0  0  0  0  0  0  0
    6.3713    7.6940   -0.3268 O   0  0  0  0  0  0  0  0  0  0  0  0
    4.3003    6.6654   -0.5310 N   0  0  0  0  0  0  0  0  0  0  0  0
    3.5608    6.3640    0.7000 C   0  0  1  0  0  0  0  0  0  0  0  0
    3.6652    7.5319    1.6575 C   0  0  0  0  0  0  0  0  0  0  0  0
    3.3550    8.8574    1.2325 N   0  0  0  0  0  0  0  0  0  0  0  0
    4.0556    7.3325    2.8363 O   0  0  0  0  0  0  0  0  0  0  0  0
    2.0970    6.0498    0.3687 C   0  0  0  0  0  0  0  0  0  0  0  0
    1.1887    5.5444    1.8799 S   0  0  0  0  0  0  0  0  0  0  0  0
    1.0187    3.7671    1.4608 C   0  0  0  0  0  0  0  0  0  0  0  0
   -4.4784    8.5098   -0.6120 H   0  0  0  0  0  0  0  0  0  0  0  0
   -5.3216    8.9232   -2.1538 H   0  0  0  0  0  0  0  0  0  0  0  0
   -4.9498    7.2146   -1.7715 H   0  0  0  0  0  0  0  0  0  0  0  0
   -8.3282    7.0160   -0.1739 H   0  0  0  0  0  0  0  0  0  0  0  0
   -6.2173    5.4207   -1.5375 H   0  0  0  0  0  0  0  0  0  0  0  0
   -5.1828    6.2343    0.7762 H   0  0  0  0  0  0  0  0  0  0  0  0
   -6.3687    5.1702    1.5346 H   0  0  0  0  0  0  0  0  0  0  0  0
   -3.2622    5.7466   -0.3167 H   0  0  0  0  0  0  0  0  0  0  0  0
   -3.8372    4.7751   -1.7290 H   0  0  0  0  0  0  0  0  0  0  0  0
   -1.3471    5.0806    0.9613 H   0  0  0  0  0  0  0  0  0  0  0  0
    1.0517    1.7538   -0.3513 H   0  0  0  0  0  0  0  0  0  0  0  0
   -2.8173    2.4745   -2.1001 H   0  0  0  0  0  0  0  0  0  0  0  0
    0.3622    0.5782   -2.4653 H   0  0  0  0  0  0  0  0  0  0  0  0
   -1.2587    0.8766   -3.1364 H   0  0  0  0  0  0  0  0  0  0  0  0
    0.3392   -0.6960    0.3838 H   0  0  0  0  0  0  0  0  0  0  0  0
    0.9738   -1.1937   -1.2312 H   0  0  0  0  0  0  0  0  0  0  0  0
   -0.7659   -2.8653    0.6902 H   0  0  0  0  0  0  0  0  0  0  0  0
    0.1992   -3.6878   -2.0925 H   0  0  0  0  0  0  0  0  0  0  0  0
   -2.8039   -2.8973   -0.1284 H   0  0  0  0  0  0  0  0  0  0  0  0
   -4.1947   -4.1079   -2.5845 H   0  0  0  0  0  0  0  0  0  0  0  0
   -3.4366   -2.4820   -2.4775 H   0  0  0  0  0  0  0  0  0  0  0  0
   -4.8664   -2.8687   -1.4656 H   0  0  0  0  0  0  0  0  0  0  0  0
   -3.4943   -4.7827    1.0920 H   0  0  0  0  0  0  0  0  0  0  0  0
   -6.4328   -5.6133   -1.2056 H   0  0  0  0  0  0  0  0  0  0  0  0
   -5.8911   -7.7147    0.9827 H   0  0  0  0  0  0  0  0  0  0  0  0
   -6.1682   -8.0286   -0.7763 H   0  0  0  0  0  0  0  0  0  0  0  0
   -7.4962   -7.3668    0.2345 H   0  0  0  0  0  0  0  0  0  0  0  0
   -6.1930   -5.3223    1.8151 H   0  0  0  0  0  0  0  0  0  0  0  0
   -8.9031   -5.2928    1.1862 H   0  0  0  0  0  0  0  0  0  0  0  0
   -8.9132   -2.3259    1.9980 H   0  0  0  0  0  0  0  0  0  0  0  0
  -10.2913   -3.4652    2.2739 H   0  0  0  0  0  0  0  0  0  0  0  0
   -8.6874   -3.7740    3.0233 H   0  0  0  0  0  0  0  0  0  0  0  0
   -9.4903   -4.7086   -1.0674 H   0  0  0  0  0  0  0  0  0  0  0  0
   -9.4124   -1.3618    0.0134 H   0  0  0  0  0  0  0  0  0  0  0  0
   -9.4991   -1.5050   -2.4212 H   0  0  0  0  0  0  0  0  0  0  0  0
  -10.2697    0.0296   -1.8826 H   0  0  0  0  0  0  0  0  0  0  0  0
  -11.2969   -1.3522   -2.4247 H   0  0  0  0  0  0  0  0  0  0  0  0
  -12.4141   -0.8036   -0.1305 H   0  0  0  0  0  0  0  0  0  0  0  0
  -11.3295    1.6551    0.1253 H   0  0  0  0  0  0  0  0  0  0  0  0
  -12.4489    1.8854    3.0057 H   0  0  0  0  0  0  0  0  0  0  0  0
  -13.4256    1.4401    1.5447 H   0  0  0  0  0  0  0  0  0  0  0  0
  -12.6711    3.0675    1.6652 H   0  0  0  0  0  0  0  0  0  0  0  0
   -9.5128    1.6440    2.4984 H   0  0  0  0  0  0  0  0  0  0  0  0
  -10.9981    3.7495   -0.2164 H   0  0  0  0  0  0  0  0  0  0  0  0
  -11.6915    5.2225    1.7418 H   0  0  0  0  0  0  0  0  0  0  0  0
  -10.2522    6.2461    1.3939 H   0  0  0  0  0  0  0  0  0  0  0  0
  -11.5565    6.0611    0.1607 H   0  0  0  0  0  0  0  0  0  0  0  0
   -9.5531    5.4712   -1.3479 H   0  0  0  0  0  0  0  0  0  0  0  0
    0.7727   -5.2996    1.0491 H   0  0  0  0  0  0  0  0  0  0  0  0
    3.2617   -5.8151    0.5740 H   0  0  0  0  0  0  0  0  0  0  0  0
    3.7518   -3.8285   -0.8399 H   0  0  0  0  0  0  0  0  0  0  0  0
    2.5419   -4.3748   -2.0689 H   0  0  0  0  0  0  0  0  0  0  0  0
    4.0448   -5.3155   -1.7865 H   0  0  0  0  0  0  0  0  0  0  0  0
    2.1678   -8.8083   -1.4280 H   0  0  0  0  0  0  0  0  0  0  0  0
    4.6976   -7.3859   -1.2751 H   0  0  0  0  0  0  0  0  0  0  0  0
    4.4429   -9.5240   -2.4690 H   0  0  0  0  0  0  0  0  0  0  0  0
    5.6728   -9.7153   -1.1670 H   0  0  0  0  0  0  0  0  0  0  0  0
    4.0145  -10.3703   -0.9328 H   0  0  0  0  0  0  0  0  0  0  0  0
    5.6024   -7.6255    2.3521 H   0  0  0  0  0  0  0  0  0  0  0  0
    5.9587   -5.9416   -0.0132 H   0  0  0  0  0  0  0  0  0  0  0  0
    8.3554   -6.9918   -0.5421 H   0  0  0  0  0  0  0  0  0  0  0  0
    7.7134   -8.4683    0.2600 H   0  0  0  0  0  0  0  0  0  0  0  0
    6.9243   -7.7962   -1.2207 H   0  0  0  0  0  0  0  0  0  0  0  0
    8.9309   -4.4832    1.7957 H   0  0  0  0  0  0  0  0  0  0  0  0
    6.5012   -3.6586    0.3335 H   0  0  0  0  0  0  0  0  0  0  0  0
    9.0713   -4.2747   -1.2605 H   0  0  0  0  0  0  0  0  0  0  0  0
    7.7186   -3.2190   -1.8613 H   0  0  0  0  0  0  0  0  0  0  0  0
    7.4218   -4.9497   -1.5239 H   0  0  0  0  0  0  0  0  0  0  0  0
    9.4528   -1.8948   -0.9528 H   0  0  0  0  0  0  0  0  0  0  0  0
   11.2110   -0.8845    0.1430 H   0  0  0  0  0  0  0  0  0  0  0  0
   11.9570   -1.8880    2.2092 H   0  0  0  0  0  0  0  0  0  0  0  0
   11.3103   -3.1673    1.1114 H   0  0  0  0  0  0  0  0  0  0  0  0
   10.3319   -2.6019    2.5270 H   0  0  0  0  0  0  0  0  0  0  0  0
    8.8907    1.8451    1.4470 H   0  0  0  0  0  0  0  0  0  0  0  0
   10.3191    0.9169   -1.0016 H   0  0  0  0  0  0  0  0  0  0  0  0
   11.7219    2.9466    0.8715 H   0  0  0  0  0  0  0  0  0  0  0  0
   12.2772    1.2659    0.5147 H   0  0  0  0  0  0  0  0  0  0  0  0
   12.2451    2.4922   -0.7993 H   0  0  0  0  0  0  0  0  0  0  0  0
    9.1609    4.0150    0.9407 H   0  0  0  0  0  0  0  0  0  0  0  0
   10.7356    5.4132   -0.9168 H   0  0  0  0  0  0  0  0  0  0  0  0
   10.1622    6.2612    1.3220 H   0  0  0  0  0  0  0  0  0  0  0  0
    9.8793    7.4950    0.0506 H   0  0  0  0  0  0  0  0  0  0  0  0
    8.4843    6.6147    0.8062 H   0  0  0  0  0  0  0  0  0  0  0  0
    6.9936    5.8272   -2.8945 H   0  0  0  0  0  0  0  0  0  0  0  0
    7.0260    5.0559    0.0638 H   0  0  0  0  0  0  0  0  0  0  0  0
    4.9966    4.4439   -2.1692 H   0  0  0  0  0  0  0  0  0  0  0  0
    4.8541    3.9758   -0.4288 H   0  0  0  0  0  0  0  0  0  0  0  0
    6.1716    3.2905   -1.4317 H   0  0  0  0  0  0  0  0  0  0  0  0
    3.8163    7.1606   -1.3107 H   0  0  0  0  0  0  0  0  0  0  0  0
    4.0099    5.4632    1.1749 H   0  0  0  0  0  0  0  0  0  0  0  0
    3.0415    9.0423    0.2524 H   0  0  0  0  0  0  0  0  0  0  0  0
    3.5361    9.6677    1.8617 H   0  0  0  0  0  0  0  0  0  0  0  0
    2.0626    5.2568   -0.4118 H   0  0  0  0  0  0  0  0  0  0  0  0
    1.5983    6.9478   -0.0550 H   0  0  0  0  0  0  0  0  0  0  0  0
    2.0191    3.3559    1.2005 H   0  0  0  0  0  0  0  0  0  0  0  0
    0.6740    3.2326    2.3758 H   0  0  0  0  0  0  0  0  0  0  0  0
  1  2  1  0
  2  3  2  0
  2  4  1  0
  4  5  1  0
  5  6  1  0
  6  7  1  0
  7  8  1  0
  8  9  1  0
  9 10  2  0
 10 11  1  0
 11 12  2  0
 12 13  1  0
 13 14  2  0
 13 15  1  0
 15 16  1  0
 16 17  1  0
 17 18  1  0
 18 19  1  0
 19 20  1  0
 20 21  2  0
 20 22  1  0
 22 23  1  0
 22 24  1  0
 24 25  1  0
 25 26  2  0
 25 27  1  0
 27 28  1  0
 27 29  1  0
 29 30  1  0
 30 31  2  0
 30 32  1  0
 32 33  1  0
 32 34  1  0
 34 35  1  0
 35 36  2  0
 35 37  1  0
 37 38  1  0
 37 39  1  0
 39 40  1  0
 40 41  2  0
 40 42  1  0
 42 43  1  0
 42 44  1  0
 44 45  1  0
 45 46  2  0
 45 47  1  0
 47 48  1  0
 47 49  1  0
 49 50  1  0
 50 51  2  0
 18 52  1  0
 52 53  2  0
 52 54  1  0
 54 55  1  0
 55 56  1  0
 55 57  1  0
 57 58  2  0
 57 59  1  0
 59 60  1  0
 60 61  1  0
 60 62  1  0
 62 63  2  0
 62 64  1  0
 64 65  1  0
 65 66  1  0
 65 67  1  0
 67 68  2  0
 67 69  1  0
 69 70  1  0
 70 71  1  0
 70 72  1  0
 72 73  2  0
 72 74  1  0
 74 75  1  0
 75 76  1  0
 75 77  1  0
 77 78  2  0
 77 79  1  0
 79 80  1  0
 80 81  1  0
 80 82  1  0
 82 83  2  0
 82 84  1  0
 84 85  1  0
 85 86  1  0
 85 87  1  0
 87 88  2  0
 87 89  1  0
 89 90  1  0
 90 91  1  0
 90 92  1  0
 92 93  2  0
 92 94  1  0
 94 95  1  0
 95 96  1  0
 96 97  1  0
 96 98  2  0
 95 99  1  0
 99100  1  0
100101  1  0
 50  5  1  0
 14  9  1  0
101 11  1  0
  1102  1  0
  1103  1  0
  1104  1  0
  4105  1  0
  5106  1  6
  6107  1  0
  6108  1  0
  8109  1  0
  8110  1  0
 10111  1  0
 12112  1  0
 14113  1  0
 15114  1  0
 15115  1  0
 17116  1  0
 17117  1  0
 18118  1  1
 19119  1  0
 22120  1  1
 23121  1  0
 23122  1  0
 23123  1  0
 24124  1  0
 27125  1  6
 28126  1  0
 28127  1  0
 28128  1  0
 29129  1  0
 32130  1  1
 33131  1  0
 33132  1  0
 33133  1  0
 34134  1  0
 37135  1  1
 38136  1  0
 38137  1  0
 38138  1  0
 39139  1  0
 42140  1  6
 43141  1  0
 43142  1  0
 43143  1  0
 44144  1  0
 47145  1  6
 48146  1  0
 48147  1  0
 48148  1  0
 49149  1  0
 54150  1  0
 55151  1  1
 56152  1  0
 56153  1  0
 56154  1  0
 59155  1  0
 60156  1  6
 61157  1  0
 61158  1  0
 61159  1  0
 64160  1  0
 65161  1  6
 66162  1  0
 66163  1  0
 66164  1  0
 69165  1  0
 70166  1  6
 71167  1  0
 71168  1  0
 71169  1  0
 74170  1  0
 75171  1  6
 76172  1  0
 76173  1  0
 76174  1  0
 79175  1  0
 80176  1  6
 81177  1  0
 81178  1  0
 81179  1  0
 84180  1  0
 85181  1  6
 86182  1  0
 86183  1  0
 86184  1  0
 89185  1  0
 90186  1  1
 91187  1  0
 91188  1  0
 91189  1  0
 94190  1  0
 95191  1  1
 97192  1  0
 97193  1  0
 99194  1  0
 99195  1  0
101196  1  0
101197  1  0
M  END
