
     RDKit          3D

207209  0  0  0  0  0  0  0  0999 V2000
    6.8261   -8.1561    0.8890 C   0  0  0  0  0  0  0  0  0  0  0  0
    5.6754   -7.2021    0.8952 C   0  0  0  0  0  0  0  0  0  0  0  0
    4.6580   -7.4724    1.5876 O   0  0  0  0  0  0  0  0  0  0  0  0
    5.7041   -5.9774    0.1410 N   0  0  0  0  0  0  0  0  0  0  0  0
    6.8879   -5.4964   -0.5926 C   0  0  1  0  0  0  0  0  0  0  0  0
    6.4639   -4.5000   -1.6905 C   0  0  0  0  0  0  0  0  0  0  0  0
    5.8447   -2.9311   -0.9630 S   0  0  0  0  0  0  0  0  0  0  0  0
    4.1503   -2.9123   -1.6632 C   0  0  0  0  0  0  0  0  0  0  0  0
    3.1777   -2.3377   -0.6646 C   0  0  0  0  0  0  0  0  0  0  0  0
    3.4742   -1.1439    0.0134 C   0  0  0  0  0  0  0  0  0  0  0  0
    2.6154   -0.6493    1.0070 C   0  0  0  0  0  0  0  0  0  0  0  0
    1.4082   -1.3226    1.2676 C   0  0  0  0  0  0  0  0  0  0  0  0
    1.0728   -2.4947    0.5683 C   0  0  0  0  0  0  0  0  0  0  0  0
    1.9678   -2.9928   -0.3970 C   0  0  0  0  0  0  0  0  0  0  0  0
   -0.2485   -3.1745    0.8153 C   0  0  0  0  0  0  0  0  0  0  0  0
   -0.0324   -4.9645    1.1601 S   0  0  0  0  0  0  0  0  0  0  0  0
   -0.6943   -5.5830   -0.4333 C   0  0  0  0  0  0  0  0  0  0  0  0
   -2.2132   -5.8257   -0.3644 C   0  0  1  0  0  0  0  0  0  0  0  0
   -2.7209   -6.1812   -1.7369 C   0  0  0  0  0  0  0  0  0  0  0  0
   -2.3764   -7.4274   -2.3446 N   0  0  0  0  0  0  0  0  0  0  0  0
   -3.4347   -5.3606   -2.3699 O   0  0  0  0  0  0  0  0  0  0  0  0
   -2.5281   -6.9070    0.5815 N   0  0  0  0  0  0  0  0  0  0  0  0
   -3.8557   -7.3755    0.8930 C   0  0  0  0  0  0  0  0  0  0  0  0
   -3.9871   -8.4883    1.4762 O   0  0  0  0  0  0  0  0  0  0  0  0
   -5.1090   -6.5999    0.5323 C   0  0  1  0  0  0  0  0  0  0  0  0
   -5.8670   -7.3382   -0.5727 C   0  0  0  0  0  0  0  0  0  0  0  0
   -5.9676   -6.4437    1.7134 N   0  0  0  0  0  0  0  0  0  0  0  0
   -6.8760   -5.3482    1.8421 C   0  0  0  0  0  0  0  0  0  0  0  0
   -6.4803   -4.2854    2.3981 O   0  0  0  0  0  0  0  0  0  0  0  0
   -8.3032   -5.4635    1.3556 C   0  0  1  0  0  0  0  0  0  0  0  0
   -8.8395   -6.8841    1.5689 C   0  0  0  0  0  0  0  0  0  0  0  0
   -9.1665   -4.5220    2.0835 N   0  0  0  0  0  0  0  0  0  0  0  0
   -9.7711   -3.3534    1.5036 C   0  0  0  0  0  0  0  0  0  0  0  0
   -9.6651   -2.2575    2.1158 O   0  0  0  0  0  0  0  0  0  0  0  0
  -10.5428   -3.3671    0.1937 C   0  0  1  0  0  0  0  0  0  0  0  0
  -11.1054   -4.7441   -0.1776 C   0  0  0  0  0  0  0  0  0  0  0  0
  -11.6749   -2.4363    0.2929 N   0  0  0  0  0  0  0  0  0  0  0  0
  -12.0601   -1.5083   -0.7313 C   0  0  0  0  0  0  0  0  0  0  0  0
  -13.2853   -1.2432   -0.8824 O   0  0  0  0  0  0  0  0  0  0  0  0
  -11.0508   -0.8259   -1.6244 C   0  0  1  0  0  0  0  0  0  0  0  0
  -10.8906   -1.6241   -2.9210 C   0  0  0  0  0  0  0  0  0  0  0  0
  -11.4906    0.5442   -1.9396 N   0  0  0  0  0  0  0  0  0  0  0  0
  -11.5839    1.6159   -0.9834 C   0  0  0  0  0  0  0  0  0  0  0  0
  -12.3189    2.5987   -1.2661 O   0  0  0  0  0  0  0  0  0  0  0  0
  -10.8219    1.6043    0.3280 C   0  0  1  0  0  0  0  0  0  0  0  0
   -9.3117    1.8160    0.1430 C   0  0  0  0  0  0  0  0  0  0  0  0
  -11.3996    2.5497    1.2983 N   0  0  0  0  0  0  0  0  0  0  0  0
  -11.2623    3.9875    1.3254 C   0  0  0  0  0  0  0  0  0  0  0  0
  -11.6614    4.6028    2.3523 O   0  0  0  0  0  0  0  0  0  0  0  0
  -10.6516    4.7962    0.2023 C   0  0  1  0  0  0  0  0  0  0  0  0
  -11.6234    5.8890   -0.2654 C   0  0  0  0  0  0  0  0  0  0  0  0
   -9.4007    5.4154    0.6417 N   0  0  0  0  0  0  0  0  0  0  0  0
   -8.3871    5.8285   -0.2898 C   0  0  0  0  0  0  0  0  0  0  0  0
   -8.3871    5.3689   -1.4649 O   0  0  0  0  0  0  0  0  0  0  0  0
   -7.3246    6.8224    0.1103 C   0  0  1  0  0  0  0  0  0  0  0  0
   -7.9623    8.1284    0.5890 C   0  0  0  0  0  0  0  0  0  0  0  0
   -6.4784    6.2625    1.1652 N   0  0  0  0  0  0  0  0  0  0  0  0
   -5.0425    6.1949    1.1207 C   0  0  0  0  0  0  0  0  0  0  0  0
   -4.4131    6.0490    2.2071 O   0  0  0  0  0  0  0  0  0  0  0  0
   -4.2560    6.3207   -0.1633 C   0  0  1  0  0  0  0  0  0  0  0  0
   -3.9500    7.8027   -0.4349 C   0  0  0  0  0  0  0  0  0  0  0  0
   -3.0266    5.5146   -0.0740 N   0  0  0  0  0  0  0  0  0  0  0  0
   -1.8351    5.8142   -0.8132 C   0  0  0  0  0  0  0  0  0  0  0  0
   -1.7980    5.5584   -2.0505 O   0  0  0  0  0  0  0  0  0  0  0  0
   -0.6659    6.5087   -0.1576 C   0  0  1  0  0  0  0  0  0  0  0  0
   -0.7238    6.4578    1.3771 C   0  0  0  0  0  0  0  0  0  0  0  0
    0.6102    6.0092   -0.6811 N   0  0  0  0  0  0  0  0  0  0  0  0
    1.0219    4.6361   -0.6272 C   0  0  0  0  0  0  0  0  0  0  0  0
    1.0721    3.9770   -1.6996 O   0  0  0  0  0  0  0  0  0  0  0  0
    1.5628    4.0417    0.6579 C   0  0  1  0  0  0  0  0  0  0  0  0
    1.8119    2.5145    0.5502 C   0  0  0  0  0  0  0  0  0  0  0  0
    1.8345    1.7570    2.2225 S   0  0  0  0  0  0  0  0  0  0  0  0
    3.0948    0.4608    1.9047 C   0  0  0  0  0  0  0  0  0  0  0  0
    2.7503    4.8065    1.0773 N   0  0  0  0  0  0  0  0  0  0  0  0
    4.1056    4.4063    0.8334 C   0  0  0  0  0  0  0  0  0  0  0  0
    4.5516    3.3678    1.3914 O   0  0  0  0  0  0  0  0  0  0  0  0
    5.0556    5.2686    0.0426 C   0  0  1  0  0  0  0  0  0  0  0  0
    4.3515    5.9756   -1.1203 C   0  0  0  0  0  0  0  0  0  0  0  0
    5.6792    6.2639    0.9250 N   0  0  0  0  0  0  0  0  0  0  0  0
    7.0741    6.3443    1.2763 C   0  0  0  0  0  0  0  0  0  0  0  0
    7.4645    7.3398    1.9405 O   0  0  0  0  0  0  0  0  0  0  0  0
    8.0981    5.2758    0.9421 C   0  0  1  0  0  0  0  0  0  0  0  0
    7.7576    3.9491    1.6404 C   0  0  0  0  0  0  0  0  0  0  0  0
    8.2553    5.1279   -0.5068 N   0  0  0  0  0  0  0  0  0  0  0  0
    8.8461    3.9711   -1.1189 C   0  0  0  0  0  0  0  0  0  0  0  0
    8.0947    3.0287   -1.4918 O   0  0  0  0  0  0  0  0  0  0  0  0
   10.3106    3.9577   -1.4918 C   0  0  1  0  0  0  0  0  0  0  0  0
   11.2370    4.4254   -0.3612 C   0  0  0  0  0  0  0  0  0  0  0  0
   10.7397    2.6669   -2.0583 N   0  0  0  0  0  0  0  0  0  0  0  0
   10.5894    1.3510   -1.4847 C   0  0  0  0  0  0  0  0  0  0  0  0
   10.7737    0.3521   -2.2354 O   0  0  0  0  0  0  0  0  0  0  0  0
   10.3065    1.1010   -0.0274 C   0  0  1  0  0  0  0  0  0  0  0  0
    9.0677    0.2082    0.1530 C   0  0  0  0  0  0  0  0  0  0  0  0
   11.5155    0.5424    0.5980 N   0  0  0  0  0  0  0  0  0  0  0  0
   11.5883   -0.7299    1.2576 C   0  0  0  0  0  0  0  0  0  0  0  0
   11.5081   -0.7674    2.5137 O   0  0  0  0  0  0  0  0  0  0  0  0
   11.8214   -1.9986    0.4602 C   0  0  1  0  0  0  0  0  0  0  0  0
   13.1349   -1.9066   -0.3146 C   0  0  0  0  0  0  0  0  0  0  0  0
   11.8653   -3.1668    1.3599 N   0  0  0  0  0  0  0  0  0  0  0  0
   11.0418   -4.3364    1.2299 C   0  0  0  0  0  0  0  0  0  0  0  0
   10.8747   -5.0669    2.2457 O   0  0  0  0  0  0  0  0  0  0  0  0
   10.4065   -4.7316   -0.0815 C   0  0  1  0  0  0  0  0  0  0  0  0
   10.4385   -6.2518   -0.2948 C   0  0  0  0  0  0  0  0  0  0  0  0
    9.0439   -4.2059   -0.1759 N   0  0  0  0  0  0  0  0  0  0  0  0
    7.9007   -4.8825    0.3501 C   0  0  0  0  0  0  0  0  0  0  0  0
    7.7221   -4.9186    1.6004 O   0  0  0  0  0  0  0  0  0  0  0  0
    6.9964   -8.5329   -0.1417 H   0  0  0  0  0  0  0  0  0  0  0  0
    7.7427   -7.6527    1.2587 H   0  0  0  0  0  0  0  0  0  0  0  0
    6.6163   -9.0275    1.5502 H   0  0  0  0  0  0  0  0  0  0  0  0
    4.8364   -5.3964    0.1476 H   0  0  0  0  0  0  0  0  0  0  0  0
    7.3699   -6.3547   -1.1035 H   0  0  0  0  0  0  0  0  0  0  0  0
    7.3498   -4.2641   -2.3264 H   0  0  0  0  0  0  0  0  0  0  0  0
    5.7276   -4.9811   -2.3682 H   0  0  0  0  0  0  0  0  0  0  0  0
    3.8250   -3.9317   -1.9591 H   0  0  0  0  0  0  0  0  0  0  0  0
    4.1624   -2.2750   -2.5760 H   0  0  0  0  0  0  0  0  0  0  0  0
    4.4131   -0.6304   -0.1794 H   0  0  0  0  0  0  0  0  0  0  0  0
    0.7458   -0.9484    2.0440 H   0  0  0  0  0  0  0  0  0  0  0  0
    1.7205   -3.8956   -0.9459 H   0  0  0  0  0  0  0  0  0  0  0  0
   -0.7490   -2.7338    1.7042 H   0  0  0  0  0  0  0  0  0  0  0  0
   -0.9171   -2.9936   -0.0530 H   0  0  0  0  0  0  0  0  0  0  0  0
   -0.4543   -4.8798   -1.2582 H   0  0  0  0  0  0  0  0  0  0  0  0
   -0.1730   -6.5373   -0.6670 H   0  0  0  0  0  0  0  0  0  0  0  0
   -2.6936   -4.8825   -0.0209 H   0  0  0  0  0  0  0  0  0  0  0  0
   -1.7651   -8.1178   -1.8469 H   0  0  0  0  0  0  0  0  0  0  0  0
   -2.7422   -7.6768   -3.2917 H   0  0  0  0  0  0  0  0  0  0  0  0
   -1.7391   -7.4578    0.9950 H   0  0  0  0  0  0  0  0  0  0  0  0
   -4.8397   -5.5925    0.1570 H   0  0  0  0  0  0  0  0  0  0  0  0
   -6.7483   -6.7438   -0.8979 H   0  0  0  0  0  0  0  0  0  0  0  0
   -6.2107   -8.3317   -0.2120 H   0  0  0  0  0  0  0  0  0  0  0  0
   -5.2173   -7.4915   -1.4616 H   0  0  0  0  0  0  0  0  0  0  0  0
   -5.7492   -6.9779    2.5870 H   0  0  0  0  0  0  0  0  0  0  0  0
   -8.2930   -5.2265    0.2731 H   0  0  0  0  0  0  0  0  0  0  0  0
   -9.9157   -6.9360    1.3121 H   0  0  0  0  0  0  0  0  0  0  0  0
   -8.2997   -7.6148    0.9325 H   0  0  0  0  0  0  0  0  0  0  0  0
   -8.7290   -7.1818    2.6314 H   0  0  0  0  0  0  0  0  0  0  0  0
   -9.1657   -4.5817    3.1270 H   0  0  0  0  0  0  0  0  0  0  0  0
   -9.8402   -3.0537   -0.6035 H   0  0  0  0  0  0  0  0  0  0  0  0
  -11.5935   -5.2311    0.6965 H   0  0  0  0  0  0  0  0  0  0  0  0
  -10.3251   -5.4090   -0.5987 H   0  0  0  0  0  0  0  0  0  0  0  0
  -11.8712   -4.6328   -0.9799 H   0  0  0  0  0  0  0  0  0  0  0  0
  -12.3807   -2.6352    1.0386 H   0  0  0  0  0  0  0  0  0  0  0  0
  -10.0643   -0.7815   -1.1189 H   0  0  0  0  0  0  0  0  0  0  0  0
  -10.1227   -1.1437   -3.5660 H   0  0  0  0  0  0  0  0  0  0  0  0
  -10.5768   -2.6685   -2.7195 H   0  0  0  0  0  0  0  0  0  0  0  0
  -11.8535   -1.6539   -3.4816 H   0  0  0  0  0  0  0  0  0  0  0  0
  -11.9581    0.7088   -2.8607 H   0  0  0  0  0  0  0  0  0  0  0  0
  -10.9579    0.5880    0.7647 H   0  0  0  0  0  0  0  0  0  0  0  0
   -8.7974    0.8324    0.0742 H   0  0  0  0  0  0  0  0  0  0  0  0
   -8.8778    2.3573    1.0109 H   0  0  0  0  0  0  0  0  0  0  0  0
   -9.0719    2.3810   -0.7843 H   0  0  0  0  0  0  0  0  0  0  0  0
  -11.9601    2.1328    2.0758 H   0  0  0  0  0  0  0  0  0  0  0  0
  -10.4565    4.1496   -0.6709 H   0  0  0  0  0  0  0  0  0  0  0  0
  -12.5825    5.4352   -0.5943 H   0  0  0  0  0  0  0  0  0  0  0  0
  -11.8262    6.6116    0.5540 H   0  0  0  0  0  0  0  0  0  0  0  0
  -11.1837    6.4417   -1.1248 H   0  0  0  0  0  0  0  0  0  0  0  0
   -9.3227    5.7298    1.6365 H   0  0  0  0  0  0  0  0  0  0  0  0
   -6.7353    7.0696   -0.7967 H   0  0  0  0  0  0  0  0  0  0  0  0
   -8.5643    7.9630    1.5062 H   0  0  0  0  0  0  0  0  0  0  0  0
   -7.1694    8.8723    0.8201 H   0  0  0  0  0  0  0  0  0  0  0  0
   -8.6208    8.5449   -0.2030 H   0  0  0  0  0  0  0  0  0  0  0  0
   -6.9363    6.0325    2.0804 H   0  0  0  0  0  0  0  0  0  0  0  0
   -4.8584    5.9126   -1.0056 H   0  0  0  0  0  0  0  0  0  0  0  0
   -3.4978    7.9224   -1.4424 H   0  0  0  0  0  0  0  0  0  0  0  0
   -4.8793    8.4080   -0.4121 H   0  0  0  0  0  0  0  0  0  0  0  0
   -3.2535    8.2055    0.3268 H   0  0  0  0  0  0  0  0  0  0  0  0
   -3.1144    4.5389    0.2835 H   0  0  0  0  0  0  0  0  0  0  0  0
   -0.7457    7.5894   -0.4335 H   0  0  0  0  0  0  0  0  0  0  0  0
   -1.5140    7.1456    1.7486 H   0  0  0  0  0  0  0  0  0  0  0  0
   -0.9780    5.4399    1.7411 H   0  0  0  0  0  0  0  0  0  0  0  0
    0.2440    6.7779    1.8157 H   0  0  0  0  0  0  0  0  0  0  0  0
    1.1026    6.6095   -1.3801 H   0  0  0  0  0  0  0  0  0  0  0  0
    0.7849    4.1760    1.4290 H   0  0  0  0  0  0  0  0  0  0  0  0
    0.9697    2.0391    0.0030 H   0  0  0  0  0  0  0  0  0  0  0  0
    2.7311    2.2996   -0.0358 H   0  0  0  0  0  0  0  0  0  0  0  0
    4.0172    0.9304    1.5002 H   0  0  0  0  0  0  0  0  0  0  0  0
    3.3587    0.0033    2.8826 H   0  0  0  0  0  0  0  0  0  0  0  0
    2.5974    5.8110    1.3181 H   0  0  0  0  0  0  0  0  0  0  0  0
    5.8158    4.6042   -0.4062 H   0  0  0  0  0  0  0  0  0  0  0  0
    5.0975    6.5149   -1.7388 H   0  0  0  0  0  0  0  0  0  0  0  0
    3.8335    5.2318   -1.7633 H   0  0  0  0  0  0  0  0  0  0  0  0
    3.6114    6.7147   -0.7445 H   0  0  0  0  0  0  0  0  0  0  0  0
    5.0429    6.9871    1.3427 H   0  0  0  0  0  0  0  0  0  0  0  0
    9.0789    5.6072    1.3502 H   0  0  0  0  0  0  0  0  0  0  0  0
    7.2831    4.1283    2.6284 H   0  0  0  0  0  0  0  0  0  0  0  0
    8.6862    3.3698    1.8157 H   0  0  0  0  0  0  0  0  0  0  0  0
    7.0840    3.3249    1.0246 H   0  0  0  0  0  0  0  0  0  0  0  0
    7.8204    5.8309   -1.1539 H   0  0  0  0  0  0  0  0  0  0  0  0
   10.4119    4.7236   -2.2993 H   0  0  0  0  0  0  0  0  0  0  0  0
   11.0228    3.9388    0.6059 H   0  0  0  0  0  0  0  0  0  0  0  0
   11.1224    5.5231   -0.2132 H   0  0  0  0  0  0  0  0  0  0  0  0
   12.2993    4.2333   -0.6319 H   0  0  0  0  0  0  0  0  0  0  0  0
   11.1087    2.7042   -3.0378 H   0  0  0  0  0  0  0  0  0  0  0  0
   10.0646    2.0412    0.4833 H   0  0  0  0  0  0  0  0  0  0  0  0
    8.1587    0.7359   -0.2093 H   0  0  0  0  0  0  0  0  0  0  0  0
    9.1566   -0.7393   -0.4185 H   0  0  0  0  0  0  0  0  0  0  0  0
    8.9116   -0.0234    1.2295 H   0  0  0  0  0  0  0  0  0  0  0  0
   12.3484    1.1679    0.6827 H   0  0  0  0  0  0  0  0  0  0  0  0
   10.9968   -2.0959   -0.2678 H   0  0  0  0  0  0  0  0  0  0  0  0
   13.9815   -1.6864    0.3704 H   0  0  0  0  0  0  0  0  0  0  0  0
   13.3340   -2.8688   -0.8351 H   0  0  0  0  0  0  0  0  0  0  0  0
   13.0742   -1.1096   -1.0867 H   0  0  0  0  0  0  0  0  0  0  0  0
   12.5628   -3.1562    2.1343 H   0  0  0  0  0  0  0  0  0  0  0  0
   11.0033   -4.3005   -0.9116 H   0  0  0  0  0  0  0  0  0  0  0  0
   11.4938   -6.6118   -0.3063 H   0  0  0  0  0  0  0  0  0  0  0  0
    9.8937   -6.7881    0.5115 H   0  0  0  0  0  0  0  0  0  0  0  0
    9.9720   -6.5112   -1.2700 H   0  0  0  0  0  0  0  0  0  0  0  0
    8.9267   -3.1863   -0.3915 H   0  0  0  0  0  0  0  0  0  0  0  0
  1  2  1  0
  2  3  2  0
  2  4  1  0
  4  5  1  0
  5  6  1  0
  6  7  1  0
  7  8  1  0
  8  9  1  0
  9 10  2  0
 10 11  1  0
 11 12  2  0
 12 13  1  0
 13 14  2  0
 13 15  1  0
 15 16  1  0
 16 17  1  0
 17 18  1  0
 18 19  1  0
 19 20  1  0
 19 21  2  0
 18 22  1  0
 22 23  1  0
 23 24  2  0
 23 25  1  0
 25 26  1  0
 25 27  1  0
 27 28  1  0
 28 29  2  0
 28 30  1  0
 30 31  1  0
 30 32  1  0
 32 33  1  0
 33 34  2  0
 33 35  1  0
 35 36  1  0
 35 37  1  0
 37 38  1  0
 38 39  2  0
 38 40  1  0
 40 41  1  0
 40 42  1  0
 42 43  1  0
 43 44  2  0
 43 45  1  0
 45 46  1  0
 45 47  1  0
 47 48  1  0
 48 49  2  0
 48 50  1  0
 50 51  1  0
 50 52  1  0
 52 53  1  0
 53 54  2  0
 53 55  1  0
 55 56  1  0
 55 57  1  0
 57 58  1  0
 58 59  2  0
 58 60  1  0
 60 61  1  0
 60 62  1  0
 62 63  1  0
 63 64  2  0
 63 65  1  0
 65 66  1  0
 65 67  1  0
 67 68  1  0
 68 69  2  0
 68 70  1  0
 70 71  1  0
 71 72  1  0
 72 73  1  0
 70 74  1  0
 74 75  1  0
 75 76  2  0
 75 77  1  0
 77 78  1  0
 77 79  1  0
 79 80  1  0
 80 81  2  0
 80 82  1  0
 82 83  1  0
 82 84  1  0
 84 85  1  0
 85 86  2  0
 85 87  1  0
 87 88  1  0
 87 89  1  0
 89 90  1  0
 90 91  2  0
 90 92  1  0
 92 93  1  0
 92 94  1  0
 94 95  1  0
 95 96  2  0
 95 97  1  0
 97 98  1  0
 97 99  1  0
 99100  1  0
100101  2  0
100102  1  0
102103  1  0
102104  1  0
104105  1  0
105106  2  0
105  5  1  0
 14  9  1  0
 73 11  1  0
  1107  1  0
  1108  1  0
  1109  1  0
  4110  1  0
  5111  1  6
  6112  1  0
  6113  1  0
  8114  1  0
  8115  1  0
 10116  1  0
 12117  1  0
 14118  1  0
 15119  1  0
 15120  1  0
 17121  1  0
 17122  1  0
 18123  1  1
 20124  1  0
 20125  1  0
 22126  1  0
 25127  1  6
 26128  1  0
 26129  1  0
 26130  1  0
 27131  1  0
 30132  1  6
 31133  1  0
 31134  1  0
 31135  1  0
 32136  1  0
 35137  1  6
 36138  1  0
 36139  1  0
 36140  1  0
 37141  1  0
 40142  1  1
 41143  1  0
 41144  1  0
 41145  1  0
 42146  1  0
 45147  1  1
 46148  1  0
 46149  1  0
 46150  1  0
 47151  1  0
 50152  1  6
 51153  1  0
 51154  1  0
 51155  1  0
 52156  1  0
 55157  1  6
 56158  1  0
 56159  1  0
 56160  1  0
 57161  1  0
 60162  1  6
 61163  1  0
 61164  1  0
 61165  1  0
 62166  1  0
 65167  1  1
 66168  1  0
 66169  1  0
 66170  1  0
 67171  1  0
 70172  1  1
 71173  1  0
 71174  1  0
 73175  1  0
 73176  1  0
 74177  1  0
 77178  1  6
 78179  1  0
 78180  1  0
 78181  1  0
 79182  1  0
 82183  1  1
 83184  1  0
 83185  1  0
 83186  1  0
 84187  1  0
 87188  1  6
 88189  1  0
 88190  1  0
 88191  1  0
 89192  1  0
 92193  1  1
 93194  1  0
 93195  1  0
 93196  1  0
 94197  1  0
 97198  1  6
 98199  1  0
 98200  1  0
 98201  1  0
 99202  1  0
102203  1  6
103204  1  0
103205  1  0
103206  1  0
104207  1  0
M  END
