
     RDKit          3D

217219  0  0  0  0  0  0  0  0999 V2000
   -5.7147    7.6669    0.9899 C   0  0  0  0  0  0  0  0  0  0  0  0
   -5.8666    6.9116   -0.2682 C   0  0  0  0  0  0  0  0  0  0  0  0
   -5.9032    7.5170   -1.3744 O   0  0  0  0  0  0  0  0  0  0  0  0
   -6.0564    5.5006   -0.1749 N   0  0  0  0  0  0  0  0  0  0  0  0
   -7.0887    4.7823   -0.9518 C   0  0  1  0  0  0  0  0  0  0  0  0
   -7.2108    3.3479   -0.4395 C   0  0  0  0  0  0  0  0  0  0  0  0
   -5.7821    2.3155   -0.9397 S   0  0  0  0  0  0  0  0  0  0  0  0
   -5.0789    2.1127    0.7481 C   0  0  0  0  0  0  0  0  0  0  0  0
   -3.5894    2.0021    0.6568 C   0  0  0  0  0  0  0  0  0  0  0  0
   -2.8139    3.1012    0.2827 C   0  0  0  0  0  0  0  0  0  0  0  0
   -1.4314    2.9824    0.1309 C   0  0  0  0  0  0  0  0  0  0  0  0
   -0.8501    1.7027    0.3057 C   0  0  0  0  0  0  0  0  0  0  0  0
   -1.6605    0.5602    0.3818 C   0  0  0  0  0  0  0  0  0  0  0  0
   -2.9628    0.7415    0.8185 C   0  0  0  0  0  0  0  0  0  0  0  0
   -1.5260   -0.3872   -0.8107 C   0  0  0  0  0  0  0  0  0  0  0  0
   -1.1751   -2.0775   -0.3581 S   0  0  0  0  0  0  0  0  0  0  0  0
   -2.8764   -2.8060   -0.0596 C   0  0  0  0  0  0  0  0  0  0  0  0
   -2.8921   -3.4591    1.3662 C   0  0  1  0  0  0  0  0  0  0  0  0
   -4.2637   -3.9502    1.6934 N   0  0  0  0  0  0  0  0  0  0  0  0
   -4.8417   -5.2803    1.6335 C   0  0  0  0  0  0  0  0  0  0  0  0
   -5.6403   -5.6217    2.5455 O   0  0  0  0  0  0  0  0  0  0  0  0
   -4.5002   -6.3058    0.5767 C   0  0  1  0  0  0  0  0  0  0  0  0
   -3.7915   -7.4806    1.3371 C   0  0  0  0  0  0  0  0  0  0  0  0
   -5.6427   -6.9131   -0.1326 N   0  0  0  0  0  0  0  0  0  0  0  0
   -7.0098   -6.4729   -0.3217 C   0  0  0  0  0  0  0  0  0  0  0  0
   -7.9050   -7.3546   -0.5043 O   0  0  0  0  0  0  0  0  0  0  0  0
   -7.4532   -5.0253   -0.1889 C   0  0  1  0  0  0  0  0  0  0  0  0
   -8.1911   -4.5872   -1.4882 C   0  0  0  0  0  0  0  0  0  0  0  0
   -8.3393   -4.8593    1.0004 N   0  0  0  0  0  0  0  0  0  0  0  0
   -9.7792   -4.7785    0.9458 C   0  0  0  0  0  0  0  0  0  0  0  0
  -10.4582   -5.8325    1.0891 O   0  0  0  0  0  0  0  0  0  0  0  0
  -10.4724   -3.4390    0.8725 C   0  0  1  0  0  0  0  0  0  0  0  0
  -11.3805   -3.2450    2.0850 C   0  0  0  0  0  0  0  0  0  0  0  0
   -9.5131   -2.3293    0.8057 N   0  0  0  0  0  0  0  0  0  0  0  0
   -9.5295   -1.2646   -0.1802 C   0  0  0  0  0  0  0  0  0  0  0  0
   -8.4693   -0.9840   -0.8115 O   0  0  0  0  0  0  0  0  0  0  0  0
  -10.7554   -0.3913   -0.3992 C   0  0  1  0  0  0  0  0  0  0  0  0
  -11.8883   -1.1512   -1.1029 C   0  0  0  0  0  0  0  0  0  0  0  0
  -11.1956    0.1932    0.8723 N   0  0  0  0  0  0  0  0  0  0  0  0
  -12.0731    1.3365    1.0375 C   0  0  0  0  0  0  0  0  0  0  0  0
  -12.2917    1.7537    2.2007 O   0  0  0  0  0  0  0  0  0  0  0  0
  -12.7953    2.0006   -0.1175 C   0  0  1  0  0  0  0  0  0  0  0  0
  -14.1839    1.4254   -0.3239 C   0  0  0  0  0  0  0  0  0  0  0  0
  -12.9047    3.4498    0.1186 N   0  0  0  0  0  0  0  0  0  0  0  0
  -11.8718    4.4269   -0.1186 C   0  0  0  0  0  0  0  0  0  0  0  0
  -12.1817    5.6433   -0.0330 O   0  0  0  0  0  0  0  0  0  0  0  0
  -10.4758    4.0375   -0.5452 C   0  0  1  0  0  0  0  0  0  0  0  0
  -10.4297    3.7136   -2.0562 C   0  0  0  0  0  0  0  0  0  0  0  0
   -9.5287    5.0759   -0.1377 N   0  0  0  0  0  0  0  0  0  0  0  0
   -8.4130    5.5300   -0.9061 C   0  0  0  0  0  0  0  0  0  0  0  0
   -8.5154    6.6278   -1.5199 O   0  0  0  0  0  0  0  0  0  0  0  0
   -1.7666   -4.4255    1.7565 C   0  0  0  0  0  0  0  0  0  0  0  0
   -1.9454   -5.1545    2.7808 O   0  0  0  0  0  0  0  0  0  0  0  0
   -0.3863   -4.3250    1.2577 N   0  0  0  0  0  0  0  0  0  0  0  0
    0.1530   -4.9986    0.0684 C   0  0  2  0  0  0  0  0  0  0  0  0
   -0.9471   -5.9111   -0.6411 C   0  0  0  0  0  0  0  0  0  0  0  0
    1.2972   -5.9219    0.4697 C   0  0  0  0  0  0  0  0  0  0  0  0
    1.6913   -5.9349    1.6580 O   0  0  0  0  0  0  0  0  0  0  0  0
    1.9312   -6.7680   -0.5110 N   0  0  0  0  0  0  0  0  0  0  0  0
    2.2934   -6.2356   -1.8130 C   0  0  2  0  0  0  0  0  0  0  0  0
    2.5844   -7.3951   -2.7749 C   0  0  0  0  0  0  0  0  0  0  0  0
    3.4656   -5.2884   -1.6929 C   0  0  0  0  0  0  0  0  0  0  0  0
    3.5489   -4.3295   -2.4779 O   0  0  0  0  0  0  0  0  0  0  0  0
    4.4473   -5.4379   -0.6582 N   0  0  0  0  0  0  0  0  0  0  0  0
    5.4182   -6.5417   -0.6615 C   0  0  2  0  0  0  0  0  0  0  0  0
    5.4397   -7.2409    0.7127 C   0  0  0  0  0  0  0  0  0  0  0  0
    6.7725   -6.0375   -1.1039 C   0  0  0  0  0  0  0  0  0  0  0  0
    6.8406   -5.3059   -2.1296 O   0  0  0  0  0  0  0  0  0  0  0  0
    7.9834   -6.5310   -0.5149 N   0  0  0  0  0  0  0  0  0  0  0  0
    8.8908   -5.7800    0.3832 C   0  0  2  0  0  0  0  0  0  0  0  0
    8.9900   -6.5049    1.7425 C   0  0  0  0  0  0  0  0  0  0  0  0
    8.4671   -4.3411    0.6224 C   0  0  0  0  0  0  0  0  0  0  0  0
    7.3218   -4.1277    1.1198 O   0  0  0  0  0  0  0  0  0  0  0  0
    9.2809   -3.2114    0.2760 N   0  0  0  0  0  0  0  0  0  0  0  0
   10.5223   -3.1352   -0.5292 C   0  0  2  0  0  0  0  0  0  0  0  0
   10.3553   -3.8645   -1.8798 C   0  0  0  0  0  0  0  0  0  0  0  0
   11.7515   -3.5919    0.2442 C   0  0  0  0  0  0  0  0  0  0  0  0
   11.7622   -4.7434    0.7730 O   0  0  0  0  0  0  0  0  0  0  0  0
   12.9129   -2.7549    0.4225 N   0  0  0  0  0  0  0  0  0  0  0  0
   13.0099   -1.3422    0.0441 C   0  0  2  0  0  0  0  0  0  0  0  0
   14.4696   -0.8482    0.2842 C   0  0  0  0  0  0  0  0  0  0  0  0
   12.0576   -0.5240    0.8616 C   0  0  0  0  0  0  0  0  0  0  0  0
   11.8200   -0.8285    2.0582 O   0  0  0  0  0  0  0  0  0  0  0  0
   11.3525    0.5609    0.2757 N   0  0  0  0  0  0  0  0  0  0  0  0
   12.0320    1.6072   -0.4861 C   0  0  2  0  0  0  0  0  0  0  0  0
   12.6605    2.6285    0.4728 C   0  0  0  0  0  0  0  0  0  0  0  0
   11.0981    2.2548   -1.4803 C   0  0  0  0  0  0  0  0  0  0  0  0
   11.4101    2.2906   -2.7038 O   0  0  0  0  0  0  0  0  0  0  0  0
    9.8056    2.7254   -1.0919 N   0  0  0  0  0  0  0  0  0  0  0  0
    9.4443    4.0945   -0.6641 C   0  0  2  0  0  0  0  0  0  0  0  0
   10.5936    5.0931   -0.8330 C   0  0  0  0  0  0  0  0  0  0  0  0
    8.9304    4.0505    0.7689 C   0  0  0  0  0  0  0  0  0  0  0  0
    9.2187    3.0653    1.4825 O   0  0  0  0  0  0  0  0  0  0  0  0
    8.1424    5.1035    1.3505 N   0  0  0  0  0  0  0  0  0  0  0  0
    7.5639    6.2235    0.6309 C   0  0  2  0  0  0  0  0  0  0  0  0
    7.5122    7.4441    1.5548 C   0  0  0  0  0  0  0  0  0  0  0  0
    6.1717    5.8071    0.1532 C   0  0  0  0  0  0  0  0  0  0  0  0
    6.0238    4.7491   -0.5067 O   0  0  0  0  0  0  0  0  0  0  0  0
    5.0035    6.4972    0.5718 N   0  0  0  0  0  0  0  0  0  0  0  0
    4.3442    7.5236   -0.2610 C   0  0  2  0  0  0  0  0  0  0  0  0
    5.3261    8.4104   -1.0826 C   0  0  0  0  0  0  0  0  0  0  0  0
    3.5143    8.3870    0.6898 C   0  0  0  0  0  0  0  0  0  0  0  0
    4.0424    9.4136    1.2127 O   0  0  0  0  0  0  0  0  0  0  0  0
    2.2055    7.9665    1.1496 N   0  0  0  0  0  0  0  0  0  0  0  0
    1.0438    7.5978    0.2908 C   0  0  1  0  0  0  0  0  0  0  0  0
    0.8303    8.5507   -0.8786 C   0  0  0  0  0  0  0  0  0  0  0  0
   -0.3723    8.4643   -1.6444 N   0  0  0  0  0  0  0  0  0  0  0  0
    1.7174    9.3653   -1.2545 O   0  0  0  0  0  0  0  0  0  0  0  0
    1.1209    6.1300   -0.2303 C   0  0  0  0  0  0  0  0  0  0  0  0
    0.4394    4.8631    0.9307 S   0  0  0  0  0  0  0  0  0  0  0  0
   -0.6420    4.1330   -0.3835 C   0  0  0  0  0  0  0  0  0  0  0  0
   -5.7074    8.7770    0.8031 H   0  0  0  0  0  0  0  0  0  0  0  0
   -4.7724    7.3343    1.4935 H   0  0  0  0  0  0  0  0  0  0  0  0
   -6.5719    7.4035    1.6645 H   0  0  0  0  0  0  0  0  0  0  0  0
   -5.3990    4.9811    0.4646 H   0  0  0  0  0  0  0  0  0  0  0  0
   -6.7824    4.7456   -2.0078 H   0  0  0  0  0  0  0  0  0  0  0  0
   -7.3731    3.3457    0.6609 H   0  0  0  0  0  0  0  0  0  0  0  0
   -8.0664    2.8767   -0.9559 H   0  0  0  0  0  0  0  0  0  0  0  0
   -5.5028    1.1482    1.1245 H   0  0  0  0  0  0  0  0  0  0  0  0
   -5.3837    2.9414    1.4596 H   0  0  0  0  0  0  0  0  0  0  0  0
   -3.2813    4.0305    0.0643 H   0  0  0  0  0  0  0  0  0  0  0  0
    0.2140    1.5916    0.1016 H   0  0  0  0  0  0  0  0  0  0  0  0
   -3.5232   -0.1544    1.0522 H   0  0  0  0  0  0  0  0  0  0  0  0
   -0.6465   -0.1129   -1.4860 H   0  0  0  0  0  0  0  0  0  0  0  0
   -2.4037   -0.3445   -1.4591 H   0  0  0  0  0  0  0  0  0  0  0  0
   -3.6570   -2.0377   -0.0602 H   0  0  0  0  0  0  0  0  0  0  0  0
   -3.0904   -3.5239   -0.8852 H   0  0  0  0  0  0  0  0  0  0  0  0
   -2.6945   -2.6040    2.0477 H   0  0  0  0  0  0  0  0  0  0  0  0
   -4.8664   -3.2199    2.1541 H   0  0  0  0  0  0  0  0  0  0  0  0
   -3.7844   -5.8541   -0.1616 H   0  0  0  0  0  0  0  0  0  0  0  0
   -2.9482   -7.1031    1.9829 H   0  0  0  0  0  0  0  0  0  0  0  0
   -4.4656   -8.0932    2.0196 H   0  0  0  0  0  0  0  0  0  0  0  0
   -3.3473   -8.2046    0.6402 H   0  0  0  0  0  0  0  0  0  0  0  0
   -5.5534   -7.9466   -0.3755 H   0  0  0  0  0  0  0  0  0  0  0  0
   -6.5929   -4.3458   -0.0630 H   0  0  0  0  0  0  0  0  0  0  0  0
   -7.5106   -4.6231   -2.3744 H   0  0  0  0  0  0  0  0  0  0  0  0
   -9.0933   -5.1981   -1.6933 H   0  0  0  0  0  0  0  0  0  0  0  0
   -8.4816   -3.5012   -1.4045 H   0  0  0  0  0  0  0  0  0  0  0  0
   -7.9683   -5.2866    1.9027 H   0  0  0  0  0  0  0  0  0  0  0  0
  -11.0967   -3.4371   -0.0308 H   0  0  0  0  0  0  0  0  0  0  0  0
  -12.1148   -4.0651    2.1797 H   0  0  0  0  0  0  0  0  0  0  0  0
  -10.7648   -3.1588    3.0298 H   0  0  0  0  0  0  0  0  0  0  0  0
  -11.9495   -2.2824    1.9983 H   0  0  0  0  0  0  0  0  0  0  0  0
   -8.6044   -2.4072    1.3429 H   0  0  0  0  0  0  0  0  0  0  0  0
  -10.4350    0.4412   -1.0734 H   0  0  0  0  0  0  0  0  0  0  0  0
  -12.4391   -0.4773   -1.7827 H   0  0  0  0  0  0  0  0  0  0  0  0
  -11.4852   -1.9867   -1.7377 H   0  0  0  0  0  0  0  0  0  0  0  0
  -12.5966   -1.5670   -0.3575 H   0  0  0  0  0  0  0  0  0  0  0  0
  -10.7755   -0.1907    1.7482 H   0  0  0  0  0  0  0  0  0  0  0  0
  -12.2446    1.8465   -1.0721 H   0  0  0  0  0  0  0  0  0  0  0  0
  -14.2052    0.4800   -0.9160 H   0  0  0  0  0  0  0  0  0  0  0  0
  -14.7120    1.2200    0.6585 H   0  0  0  0  0  0  0  0  0  0  0  0
  -14.8268    2.1655   -0.8727 H   0  0  0  0  0  0  0  0  0  0  0  0
  -13.7926    3.8182    0.5239 H   0  0  0  0  0  0  0  0  0  0  0  0
  -10.2010    3.1043    0.0066 H   0  0  0  0  0  0  0  0  0  0  0  0
  -11.4398    3.5301   -2.4563 H   0  0  0  0  0  0  0  0  0  0  0  0
   -9.9980    4.5395   -2.6651 H   0  0  0  0  0  0  0  0  0  0  0  0
   -9.8258    2.7798   -2.2311 H   0  0  0  0  0  0  0  0  0  0  0  0
   -9.7274    5.7110    0.6810 H   0  0  0  0  0  0  0  0  0  0  0  0
    0.3256   -3.9010    1.9258 H   0  0  0  0  0  0  0  0  0  0  0  0
    0.6058   -4.1749   -0.6094 H   0  0  0  0  0  0  0  0  0  0  0  0
   -1.3653   -6.6318    0.1253 H   0  0  0  0  0  0  0  0  0  0  0  0
   -1.3440   -5.9449   -1.7449 H   0  0  0  0  0  0  0  0  0  0  0  0
   -1.7556   -5.1273   -0.5936 H   0  0  0  0  0  0  0  0  0  0  0  0
    2.4901   -7.5528   -0.1246 H   0  0  0  0  0  0  0  0  0  0  0  0
    1.4367   -5.6962   -2.2727 H   0  0  0  0  0  0  0  0  0  0  0  0
    1.6242   -7.7912   -3.2127 H   0  0  0  0  0  0  0  0  0  0  0  0
    3.0737   -8.2642   -2.2517 H   0  0  0  0  0  0  0  0  0  0  0  0
    3.2140   -7.0523   -3.6443 H   0  0  0  0  0  0  0  0  0  0  0  0
    4.6881   -4.5803   -0.1027 H   0  0  0  0  0  0  0  0  0  0  0  0
    5.1085   -7.3084   -1.3784 H   0  0  0  0  0  0  0  0  0  0  0  0
    5.7388   -6.5285    1.5161 H   0  0  0  0  0  0  0  0  0  0  0  0
    4.4372   -7.6449    0.9540 H   0  0  0  0  0  0  0  0  0  0  0  0
    6.1732   -8.0984    0.6801 H   0  0  0  0  0  0  0  0  0  0  0  0
    8.3891   -7.4179   -0.9461 H   0  0  0  0  0  0  0  0  0  0  0  0
    9.8773   -5.8275   -0.0755 H   0  0  0  0  0  0  0  0  0  0  0  0
    8.0391   -6.4410    2.2820 H   0  0  0  0  0  0  0  0  0  0  0  0
    9.8068   -6.0557    2.3396 H   0  0  0  0  0  0  0  0  0  0  0  0
    9.2020   -7.5734    1.5504 H   0  0  0  0  0  0  0  0  0  0  0  0
    8.9022   -2.2676    0.5696 H   0  0  0  0  0  0  0  0  0  0  0  0
   10.6513   -2.0667   -0.7940 H   0  0  0  0  0  0  0  0  0  0  0  0
   10.7650   -4.9115   -1.8460 H   0  0  0  0  0  0  0  0  0  0  0  0
   10.9431   -3.3235   -2.6609 H   0  0  0  0  0  0  0  0  0  0  0  0
    9.3129   -3.8443   -2.1872 H   0  0  0  0  0  0  0  0  0  0  0  0
   13.7872   -3.2732    0.7476 H   0  0  0  0  0  0  0  0  0  0  0  0
   12.8138   -1.2421   -1.0448 H   0  0  0  0  0  0  0  0  0  0  0  0
   15.1784   -1.4299   -0.3498 H   0  0  0  0  0  0  0  0  0  0  0  0
   14.5705    0.2173    0.0189 H   0  0  0  0  0  0  0  0  0  0  0  0
   14.7333   -0.9643    1.3513 H   0  0  0  0  0  0  0  0  0  0  0  0
   10.4298    0.8131    0.7096 H   0  0  0  0  0  0  0  0  0  0  0  0
   12.8754    1.1850   -1.0885 H   0  0  0  0  0  0  0  0  0  0  0  0
   13.1577    3.4571   -0.0888 H   0  0  0  0  0  0  0  0  0  0  0  0
   11.8752    3.0466    1.1494 H   0  0  0  0  0  0  0  0  0  0  0  0
   13.4190    2.1259    1.1031 H   0  0  0  0  0  0  0  0  0  0  0  0
    8.9910    2.1026   -1.3620 H   0  0  0  0  0  0  0  0  0  0  0  0
    8.6068    4.4225   -1.3294 H   0  0  0  0  0  0  0  0  0  0  0  0
   11.3575    4.9926   -0.0389 H   0  0  0  0  0  0  0  0  0  0  0  0
   11.0731    4.9727   -1.8437 H   0  0  0  0  0  0  0  0  0  0  0  0
   10.2216    6.1495   -0.8007 H   0  0  0  0  0  0  0  0  0  0  0  0
    7.8013    4.9213    2.3150 H   0  0  0  0  0  0  0  0  0  0  0  0
    8.1306    6.5023   -0.2604 H   0  0  0  0  0  0  0  0  0  0  0  0
    7.2267    8.3570    1.0096 H   0  0  0  0  0  0  0  0  0  0  0  0
    8.5314    7.6020    1.9698 H   0  0  0  0  0  0  0  0  0  0  0  0
    6.7980    7.2623    2.3973 H   0  0  0  0  0  0  0  0  0  0  0  0
    4.3740    5.9082    1.1859 H   0  0  0  0  0  0  0  0  0  0  0  0
    3.7380    7.0283   -1.0488 H   0  0  0  0  0  0  0  0  0  0  0  0
    6.0930    7.7829   -1.6073 H   0  0  0  0  0  0  0  0  0  0  0  0
    5.8024    9.1656   -0.4353 H   0  0  0  0  0  0  0  0  0  0  0  0
    4.7507    8.9580   -1.8601 H   0  0  0  0  0  0  0  0  0  0  0  0
    2.0101    8.1597    2.1712 H   0  0  0  0  0  0  0  0  0  0  0  0
    0.0993    7.6916    0.9117 H   0  0  0  0  0  0  0  0  0  0  0  0
   -1.2361    8.2568   -1.1064 H   0  0  0  0  0  0  0  0  0  0  0  0
   -0.3000    8.1080   -2.6108 H   0  0  0  0  0  0  0  0  0  0  0  0
    0.6629    6.0436   -1.2199 H   0  0  0  0  0  0  0  0  0  0  0  0
    2.1454    5.8450   -0.3959 H   0  0  0  0  0  0  0  0  0  0  0  0
   -1.3438    4.9141   -0.7698 H   0  0  0  0  0  0  0  0  0  0  0  0
   -0.0278    3.7767   -1.2596 H   0  0  0  0  0  0  0  0  0  0  0  0
  1  2  1  0
  2  3  2  0
  2  4  1  0
  4  5  1  0
  5  6  1  0
  6  7  1  0
  7  8  1  0
  8  9  1  0
  9 10  2  0
 10 11  1  0
 11 12  2  0
 12 13  1  0
 13 14  2  0
 13 15  1  0
 15 16  1  0
 16 17  1  0
 17 18  1  0
 18 19  1  0
 19 20  1  0
 20 21  2  0
 20 22  1  0
 22 23  1  0
 22 24  1  0
 24 25  1  0
 25 26  2  0
 25 27  1  0
 27 28  1  0
 27 29  1  0
 29 30  1  0
 30 31  2  0
 30 32  1  0
 32 33  1  0
 32 34  1  0
 34 35  1  0
 35 36  2  0
 35 37  1  0
 37 38  1  0
 37 39  1  0
 39 40  1  0
 40 41  2  0
 40 42  1  0
 42 43  1  0
 42 44  1  0
 44 45  1  0
 45 46  2  0
 45 47  1  0
 47 48  1  0
 47 49  1  0
 49 50  1  0
 50 51  2  0
 18 52  1  0
 52 53  2  0
 52 54  1  0
 54 55  1  0
 55 56  1  0
 55 57  1  0
 57 58  2  0
 57 59  1  0
 59 60  1  0
 60 61  1  0
 60 62  1  0
 62 63  2  0
 62 64  1  0
 64 65  1  0
 65 66  1  0
 65 67  1  0
 67 68  2  0
 67 69  1  0
 69 70  1  0
 70 71  1  0
 70 72  1  0
 72 73  2  0
 72 74  1  0
 74 75  1  0
 75 76  1  0
 75 77  1  0
 77 78  2  0
 77 79  1  0
 79 80  1  0
 80 81  1  0
 80 82  1  0
 82 83  2  0
 82 84  1  0
 84 85  1  0
 85 86  1  0
 85 87  1  0
 87 88  2  0
 87 89  1  0
 89 90  1  0
 90 91  1  0
 90 92  1  0
 92 93  2  0
 92 94  1  0
 94 95  1  0
 95 96  1  0
 95 97  1  0
 97 98  2  0
 97 99  1  0
 99100  1  0
100101  1  0
100102  1  0
102103  2  0
102104  1  0
104105  1  0
105106  1  0
106107  1  0
106108  2  0
105109  1  0
109110  1  0
110111  1  0
 50  5  1  0
 14  9  1  0
111 11  1  0
  1112  1  0
  1113  1  0
  1114  1  0
  4115  1  0
  5116  1  6
  6117  1  0
  6118  1  0
  8119  1  0
  8120  1  0
 10121  1  0
 12122  1  0
 14123  1  0
 15124  1  0
 15125  1  0
 17126  1  0
 17127  1  0
 18128  1  1
 19129  1  0
 22130  1  6
 23131  1  0
 23132  1  0
 23133  1  0
 24134  1  0
 27135  1  1
 28136  1  0
 28137  1  0
 28138  1  0
 29139  1  0
 32140  1  6
 33141  1  0
 33142  1  0
 33143  1  0
 34144  1  0
 37145  1  6
 38146  1  0
 38147  1  0
 38148  1  0
 39149  1  0
 42150  1  6
 43151  1  0
 43152  1  0
 43153  1  0
 44154  1  0
 47155  1  1
 48156  1  0
 48157  1  0
 48158  1  0
 49159  1  0
 54160  1  0
 55161  1  6
 56162  1  0
 56163  1  0
 56164  1  0
 59165  1  0
 60166  1  6
 61167  1  0
 61168  1  0
 61169  1  0
 64170  1  0
 65171  1  6
 66172  1  0
 66173  1  0
 66174  1  0
 69175  1  0
 70176  1  6
 71177  1  0
 71178  1  0
 71179  1  0
 74180  1  0
 75181  1  6
 76182  1  0
 76183  1  0
 76184  1  0
 79185  1  0
 80186  1  6
 81187  1  0
 81188  1  0
 81189  1  0
 84190  1  0
 85191  1  6
 86192  1  0
 86193  1  0
 86194  1  0
 89195  1  0
 90196  1  6
 91197  1  0
 91198  1  0
 91199  1  0
 94200  1  0
 95201  1  6
 96202  1  0
 96203  1  0
 96204  1  0
 99205  1  0
100206  1  6
101207  1  0
101208  1  0
101209  1  0
104210  1  0
105211  1  1
107212  1  0
107213  1  0
109214  1  0
109215  1  0
111216  1  0
111217  1  0
M  END
