
     RDKit          3D

157159  0  0  0  0  0  0  0  0999 V2000
   -3.8570    9.3592   -2.1607 C   0  0  0  0  0  0  0  0  0  0  0  0
   -3.8885    8.3208   -1.0856 C   0  0  0  0  0  0  0  0  0  0  0  0
   -3.8865    8.6748    0.1244 O   0  0  0  0  0  0  0  0  0  0  0  0
   -3.9104    6.9286   -1.4406 N   0  0  0  0  0  0  0  0  0  0  0  0
   -3.6040    5.8313   -0.5135 C   0  0  1  0  0  0  0  0  0  0  0  0
   -2.1577    5.9399    0.0206 C   0  0  0  0  0  0  0  0  0  0  0  0
   -0.9482    6.0300   -1.3495 S   0  0  0  0  0  0  0  0  0  0  0  0
   -0.8471    4.2299   -1.6788 C   0  0  0  0  0  0  0  0  0  0  0  0
    0.1945    3.4768   -0.8754 C   0  0  0  0  0  0  0  0  0  0  0  0
    1.1607    4.1079   -0.0666 C   0  0  0  0  0  0  0  0  0  0  0  0
    2.1133    3.3450    0.6297 C   0  0  0  0  0  0  0  0  0  0  0  0
    2.0812    1.9447    0.5366 C   0  0  0  0  0  0  0  0  0  0  0  0
    1.1375    1.3067   -0.2807 C   0  0  0  0  0  0  0  0  0  0  0  0
    0.2082    2.0805   -0.9857 C   0  0  0  0  0  0  0  0  0  0  0  0
    1.1127   -0.1875   -0.4144 C   0  0  0  0  0  0  0  0  0  0  0  0
   -0.3232   -0.8594    0.4889 S   0  0  0  0  0  0  0  0  0  0  0  0
   -0.1047   -2.5842   -0.0940 C   0  0  0  0  0  0  0  0  0  0  0  0
    0.3847   -3.5269    1.0177 C   0  0  2  0  0  0  0  0  0  0  0  0
   -0.6973   -3.7513    1.9887 N   0  0  0  0  0  0  0  0  0  0  0  0
   -1.3259   -5.0261    2.1886 C   0  0  0  0  0  0  0  0  0  0  0  0
   -1.5564   -5.4115    3.3638 O   0  0  0  0  0  0  0  0  0  0  0  0
   -1.7551   -5.8902    1.0187 C   0  0  1  0  0  0  0  0  0  0  0  0
   -0.8111   -7.0859    0.8570 C   0  0  0  0  0  0  0  0  0  0  0  0
   -3.1284   -6.3721    1.2256 N   0  0  0  0  0  0  0  0  0  0  0  0
   -3.9565   -6.9064    0.1794 C   0  0  0  0  0  0  0  0  0  0  0  0
   -4.8031   -7.7943    0.4818 O   0  0  0  0  0  0  0  0  0  0  0  0
   -3.8839   -6.3926   -1.2401 C   0  0  1  0  0  0  0  0  0  0  0  0
   -4.5516   -7.3436   -2.2462 C   0  0  0  0  0  0  0  0  0  0  0  0
   -4.4171   -5.0212   -1.3023 N   0  0  0  0  0  0  0  0  0  0  0  0
   -5.6163   -4.6278   -1.9949 C   0  0  0  0  0  0  0  0  0  0  0  0
   -5.5055   -4.0039   -3.0848 O   0  0  0  0  0  0  0  0  0  0  0  0
   -6.9978   -4.9609   -1.4704 C   0  0  1  0  0  0  0  0  0  0  0  0
   -7.0469   -5.1553    0.0521 C   0  0  0  0  0  0  0  0  0  0  0  0
   -8.0066   -3.9847   -1.9242 N   0  0  0  0  0  0  0  0  0  0  0  0
   -7.9446   -2.5480   -1.7963 C   0  0  0  0  0  0  0  0  0  0  0  0
   -8.4361   -1.8491   -2.7237 O   0  0  0  0  0  0  0  0  0  0  0  0
   -7.3690   -1.8488   -0.5860 C   0  0  1  0  0  0  0  0  0  0  0  0
   -5.9348   -1.3596   -0.8296 C   0  0  0  0  0  0  0  0  0  0  0  0
   -8.2514   -0.7612   -0.1399 N   0  0  0  0  0  0  0  0  0  0  0  0
   -8.3610    0.5378   -0.7653 C   0  0  0  0  0  0  0  0  0  0  0  0
   -7.8215    0.7413   -1.8898 O   0  0  0  0  0  0  0  0  0  0  0  0
   -9.1747    1.6638   -0.1482 C   0  0  1  0  0  0  0  0  0  0  0  0
   -9.6628    1.3849    1.2794 C   0  0  0  0  0  0  0  0  0  0  0  0
   -8.4432    2.9400   -0.1667 N   0  0  0  0  0  0  0  0  0  0  0  0
   -7.1349    3.0975    0.4154 C   0  0  0  0  0  0  0  0  0  0  0  0
   -6.2661    2.1953    0.2698 O   0  0  0  0  0  0  0  0  0  0  0  0
   -6.7722    4.3683    1.1477 C   0  0  1  0  0  0  0  0  0  0  0  0
   -6.1272    4.0285    2.4984 C   0  0  0  0  0  0  0  0  0  0  0  0
   -5.9386    5.2213    0.2728 N   0  0  0  0  0  0  0  0  0  0  0  0
   -4.6373    5.7440    0.5824 C   0  0  0  0  0  0  0  0  0  0  0  0
   -4.3656    6.1333    1.7516 O   0  0  0  0  0  0  0  0  0  0  0  0
    1.6251   -3.0010    1.7192 C   0  0  0  0  0  0  0  0  0  0  0  0
    1.4951   -2.3839    2.8166 O   0  0  0  0  0  0  0  0  0  0  0  0
    2.9591   -3.1878    1.2089 N   0  0  0  0  0  0  0  0  0  0  0  0
    3.2946   -3.9845    0.0236 C   0  0  2  0  0  0  0  0  0  0  0  0
    3.4468   -5.4542    0.4274 C   0  0  0  0  0  0  0  0  0  0  0  0
    4.5759   -3.5072   -0.6284 C   0  0  0  0  0  0  0  0  0  0  0  0
    4.9332   -4.0311   -1.7160 O   0  0  0  0  0  0  0  0  0  0  0  0
    5.4184   -2.5235   -0.0103 N   0  0  0  0  0  0  0  0  0  0  0  0
    6.8765   -2.6738    0.0048 C   0  0  2  0  0  0  0  0  0  0  0  0
    7.2531   -3.9332    0.7934 C   0  0  0  0  0  0  0  0  0  0  0  0
    7.5405   -1.4737    0.6529 C   0  0  0  0  0  0  0  0  0  0  0  0
    7.0941   -1.0622    1.7573 O   0  0  0  0  0  0  0  0  0  0  0  0
    8.7330   -0.8619    0.1250 N   0  0  0  0  0  0  0  0  0  0  0  0
    9.2201   -1.0132   -1.2547 C   0  0  2  0  0  0  0  0  0  0  0  0
   10.0826   -2.2799   -1.3510 C   0  0  0  0  0  0  0  0  0  0  0  0
   10.0246    0.1924   -1.7050 C   0  0  0  0  0  0  0  0  0  0  0  0
   10.7249    0.1023   -2.7502 O   0  0  0  0  0  0  0  0  0  0  0  0
   10.0334    1.4327   -0.9817 N   0  0  0  0  0  0  0  0  0  0  0  0
    8.7999    2.1463   -0.6345 C   0  0  2  0  0  0  0  0  0  0  0  0
    8.5551    3.2691   -1.6457 C   0  0  0  0  0  0  0  0  0  0  0  0
    8.8900    2.7066    0.7644 C   0  0  0  0  0  0  0  0  0  0  0  0
   10.0060    2.7952    1.3478 O   0  0  0  0  0  0  0  0  0  0  0  0
    7.7065    3.1007    1.4578 N   0  0  0  0  0  0  0  0  0  0  0  0
    7.2989    4.5067    1.5129 C   0  0  2  0  0  0  0  0  0  0  0  0
    8.0947    5.2230    2.5728 C   0  0  0  0  0  0  0  0  0  0  0  0
    8.9263    6.3332    2.2263 N   0  0  0  0  0  0  0  0  0  0  0  0
    7.9827    4.8792    3.7754 O   0  0  0  0  0  0  0  0  0  0  0  0
    5.8005    4.6190    1.8222 C   0  0  0  0  0  0  0  0  0  0  0  0
    4.8001    3.7947    0.5307 S   0  0  0  0  0  0  0  0  0  0  0  0
    3.2150    4.0081    1.4112 C   0  0  0  0  0  0  0  0  0  0  0  0
   -4.7568    9.2639   -2.8042 H   0  0  0  0  0  0  0  0  0  0  0  0
   -2.9454    9.2234   -2.7819 H   0  0  0  0  0  0  0  0  0  0  0  0
   -3.8375   10.3788   -1.7141 H   0  0  0  0  0  0  0  0  0  0  0  0
   -4.0664    6.6809   -2.4457 H   0  0  0  0  0  0  0  0  0  0  0  0
   -3.6769    4.8814   -1.0793 H   0  0  0  0  0  0  0  0  0  0  0  0
   -2.0347    6.8578    0.6341 H   0  0  0  0  0  0  0  0  0  0  0  0
   -1.9230    5.0722    0.6707 H   0  0  0  0  0  0  0  0  0  0  0  0
   -1.8362    3.7546   -1.5153 H   0  0  0  0  0  0  0  0  0  0  0  0
   -0.6145    4.1037   -2.7564 H   0  0  0  0  0  0  0  0  0  0  0  0
    1.1871    5.1779    0.0246 H   0  0  0  0  0  0  0  0  0  0  0  0
    2.8129    1.3515    1.0758 H   0  0  0  0  0  0  0  0  0  0  0  0
   -0.5282    1.5882   -1.6159 H   0  0  0  0  0  0  0  0  0  0  0  0
    1.0470   -0.4547   -1.4911 H   0  0  0  0  0  0  0  0  0  0  0  0
    2.0424   -0.6312   -0.0028 H   0  0  0  0  0  0  0  0  0  0  0  0
   -1.0892   -2.9368   -0.4603 H   0  0  0  0  0  0  0  0  0  0  0  0
    0.5873   -2.6415   -0.9591 H   0  0  0  0  0  0  0  0  0  0  0  0
    0.6327   -4.4938    0.5397 H   0  0  0  0  0  0  0  0  0  0  0  0
   -0.9528   -2.9820    2.6507 H   0  0  0  0  0  0  0  0  0  0  0  0
   -1.7157   -5.2696    0.1023 H   0  0  0  0  0  0  0  0  0  0  0  0
   -1.1408   -7.7091   -0.0050 H   0  0  0  0  0  0  0  0  0  0  0  0
   -0.8181   -7.7170    1.7733 H   0  0  0  0  0  0  0  0  0  0  0  0
    0.2286   -6.7523    0.6599 H   0  0  0  0  0  0  0  0  0  0  0  0
   -3.4025   -6.6493    2.1947 H   0  0  0  0  0  0  0  0  0  0  0  0
   -2.8161   -6.3554   -1.5420 H   0  0  0  0  0  0  0  0  0  0  0  0
   -4.4739   -6.9300   -3.2696 H   0  0  0  0  0  0  0  0  0  0  0  0
   -5.6184   -7.5131   -1.9987 H   0  0  0  0  0  0  0  0  0  0  0  0
   -4.0329   -8.3271   -2.2310 H   0  0  0  0  0  0  0  0  0  0  0  0
   -3.7352   -4.2541   -1.1042 H   0  0  0  0  0  0  0  0  0  0  0  0
   -7.2816   -5.9419   -1.9177 H   0  0  0  0  0  0  0  0  0  0  0  0
   -8.0660   -4.9479    0.4409 H   0  0  0  0  0  0  0  0  0  0  0  0
   -6.3085   -4.5123    0.5729 H   0  0  0  0  0  0  0  0  0  0  0  0
   -6.8111   -6.2088    0.3076 H   0  0  0  0  0  0  0  0  0  0  0  0
   -8.7336   -4.3542   -2.5790 H   0  0  0  0  0  0  0  0  0  0  0  0
   -7.3315   -2.5714    0.2510 H   0  0  0  0  0  0  0  0  0  0  0  0
   -5.2310   -2.2068   -0.7361 H   0  0  0  0  0  0  0  0  0  0  0  0
   -5.6530   -0.6056   -0.0634 H   0  0  0  0  0  0  0  0  0  0  0  0
   -5.8335   -0.9173   -1.8412 H   0  0  0  0  0  0  0  0  0  0  0  0
   -8.8778   -0.9920    0.6645 H   0  0  0  0  0  0  0  0  0  0  0  0
  -10.0782    1.7803   -0.7816 H   0  0  0  0  0  0  0  0  0  0  0  0
   -8.8092    1.1395    1.9455 H   0  0  0  0  0  0  0  0  0  0  0  0
  -10.3985    0.5546    1.2877 H   0  0  0  0  0  0  0  0  0  0  0  0
  -10.1740    2.2851    1.6819 H   0  0  0  0  0  0  0  0  0  0  0  0
   -9.0342    3.7944   -0.2139 H   0  0  0  0  0  0  0  0  0  0  0  0
   -7.7076    4.9288    1.3650 H   0  0  0  0  0  0  0  0  0  0  0  0
   -6.0509    4.9353    3.1356 H   0  0  0  0  0  0  0  0  0  0  0  0
   -6.7523    3.2870    3.0471 H   0  0  0  0  0  0  0  0  0  0  0  0
   -5.1140    3.5899    2.3515 H   0  0  0  0  0  0  0  0  0  0  0  0
   -6.2690    5.3409   -0.7117 H   0  0  0  0  0  0  0  0  0  0  0  0
    3.7319   -2.9598    1.8739 H   0  0  0  0  0  0  0  0  0  0  0  0
    2.4887   -3.8924   -0.7356 H   0  0  0  0  0  0  0  0  0  0  0  0
    4.3734   -5.5989    1.0261 H   0  0  0  0  0  0  0  0  0  0  0  0
    2.5868   -5.7778    1.0473 H   0  0  0  0  0  0  0  0  0  0  0  0
    3.4876   -6.1005   -0.4710 H   0  0  0  0  0  0  0  0  0  0  0  0
    4.9801   -1.6215    0.3036 H   0  0  0  0  0  0  0  0  0  0  0  0
    7.2219   -2.8081   -1.0370 H   0  0  0  0  0  0  0  0  0  0  0  0
    8.3523   -4.0221    0.8995 H   0  0  0  0  0  0  0  0  0  0  0  0
    6.7995   -3.9056    1.8068 H   0  0  0  0  0  0  0  0  0  0  0  0
    6.8827   -4.8395    0.2700 H   0  0  0  0  0  0  0  0  0  0  0  0
    9.3019   -0.2960    0.7953 H   0  0  0  0  0  0  0  0  0  0  0  0
    8.3578   -1.1021   -1.9493 H   0  0  0  0  0  0  0  0  0  0  0  0
   10.9997   -2.1646   -0.7324 H   0  0  0  0  0  0  0  0  0  0  0  0
   10.3757   -2.4668   -2.4057 H   0  0  0  0  0  0  0  0  0  0  0  0
    9.5316   -3.1678   -0.9943 H   0  0  0  0  0  0  0  0  0  0  0  0
   10.9179    1.9907   -1.0134 H   0  0  0  0  0  0  0  0  0  0  0  0
    7.9336    1.4544   -0.6735 H   0  0  0  0  0  0  0  0  0  0  0  0
    7.5656    3.7391   -1.4694 H   0  0  0  0  0  0  0  0  0  0  0  0
    9.3483    4.0404   -1.5687 H   0  0  0  0  0  0  0  0  0  0  0  0
    8.5593    2.8559   -2.6770 H   0  0  0  0  0  0  0  0  0  0  0  0
    7.3409    2.4396    2.1757 H   0  0  0  0  0  0  0  0  0  0  0  0
    7.4844    4.9807    0.5240 H   0  0  0  0  0  0  0  0  0  0  0  0
    9.0250    6.6399    1.2293 H   0  0  0  0  0  0  0  0  0  0  0  0
    9.3977    6.8797    2.9749 H   0  0  0  0  0  0  0  0  0  0  0  0
    5.5084    5.6907    1.8636 H   0  0  0  0  0  0  0  0  0  0  0  0
    5.5833    4.1575    2.8130 H   0  0  0  0  0  0  0  0  0  0  0  0
    3.2780    3.5524    2.4223 H   0  0  0  0  0  0  0  0  0  0  0  0
    3.0070    5.0901    1.5364 H   0  0  0  0  0  0  0  0  0  0  0  0
  1  2  1  0
  2  3  2  0
  2  4  1  0
  4  5  1  0
  5  6  1  0
  6  7  1  0
  7  8  1  0
  8  9  1  0
  9 10  2  0
 10 11  1  0
 11 12  2  0
 12 13  1  0
 13 14  2  0
 13 15  1  0
 15 16  1  0
 16 17  1  0
 17 18  1  0
 18 19  1  0
 19 20  1  0
 20 21  2  0
 20 22  1  0
 22 23  1  0
 22 24  1  0
 24 25  1  0
 25 26  2  0
 25 27  1  0
 27 28  1  0
 27 29  1  0
 29 30  1  0
 30 31  2  0
 30 32  1  0
 32 33  1  0
 32 34  1  0
 34 35  1  0
 35 36  2  0
 35 37  1  0
 37 38  1  0
 37 39  1  0
 39 40  1  0
 40 41  2  0
 40 42  1  0
 42 43  1  0
 42 44  1  0
 44 45  1  0
 45 46  2  0
 45 47  1  0
 47 48  1  0
 47 49  1  0
 49 50  1  0
 50 51  2  0
 18 52  1  0
 52 53  2  0
 52 54  1  0
 54 55  1  0
 55 56  1  0
 55 57  1  0
 57 58  2  0
 57 59  1  0
 59 60  1  0
 60 61  1  0
 60 62  1  0
 62 63  2  0
 62 64  1  0
 64 65  1  0
 65 66  1  0
 65 67  1  0
 67 68  2  0
 67 69  1  0
 69 70  1  0
 70 71  1  0
 70 72  1  0
 72 73  2  0
 72 74  1  0
 74 75  1  0
 75 76  1  0
 76 77  1  0
 76 78  2  0
 75 79  1  0
 79 80  1  0
 80 81  1  0
 50  5  1  0
 14  9  1  0
 81 11  1  0
  1 82  1  0
  1 83  1  0
  1 84  1  0
  4 85  1  0
  5 86  1  6
  6 87  1  0
  6 88  1  0
  8 89  1  0
  8 90  1  0
 10 91  1  0
 12 92  1  0
 14 93  1  0
 15 94  1  0
 15 95  1  0
 17 96  1  0
 17 97  1  0
 18 98  1  6
 19 99  1  0
 22100  1  6
 23101  1  0
 23102  1  0
 23103  1  0
 24104  1  0
 27105  1  6
 28106  1  0
 28107  1  0
 28108  1  0
 29109  1  0
 32110  1  6
 33111  1  0
 33112  1  0
 33113  1  0
 34114  1  0
 37115  1  1
 38116  1  0
 38117  1  0
 38118  1  0
 39119  1  0
 42120  1  6
 43121  1  0
 43122  1  0
 43123  1  0
 44124  1  0
 47125  1  1
 48126  1  0
 48127  1  0
 48128  1  0
 49129  1  0
 54130  1  0
 55131  1  6
 56132  1  0
 56133  1  0
 56134  1  0
 59135  1  0
 60136  1  6
 61137  1  0
 61138  1  0
 61139  1  0
 64140  1  0
 65141  1  6
 66142  1  0
 66143  1  0
 66144  1  0
 69145  1  0
 70146  1  1
 71147  1  0
 71148  1  0
 71149  1  0
 74150  1  0
 75151  1  6
 77152  1  0
 77153  1  0
 79154  1  0
 79155  1  0
 81156  1  0
 81157  1  0
M  END
