
     RDKit          3D

217219  0  0  0  0  0  0  0  0999 V2000
   -6.7652   -7.5424   -2.1776 C   0  0  0  0  0  0  0  0  0  0  0  0
   -8.1841   -7.2167   -1.8031 C   0  0  0  0  0  0  0  0  0  0  0  0
   -9.0112   -8.1604   -1.6785 O   0  0  0  0  0  0  0  0  0  0  0  0
   -8.6467   -5.8637   -1.6318 N   0  0  0  0  0  0  0  0  0  0  0  0
   -7.8239   -4.7486   -1.1396 C   0  0  2  0  0  0  0  0  0  0  0  0
   -7.1680   -5.0900    0.2206 C   0  0  0  0  0  0  0  0  0  0  0  0
   -6.0006   -3.8091    0.8090 S   0  0  0  0  0  0  0  0  0  0  0  0
   -4.6897   -4.0717   -0.4419 C   0  0  0  0  0  0  0  0  0  0  0  0
   -3.4077   -3.4134   -0.0145 C   0  0  0  0  0  0  0  0  0  0  0  0
   -3.4173   -2.0512    0.3365 C   0  0  0  0  0  0  0  0  0  0  0  0
   -2.2182   -1.3844    0.6244 C   0  0  0  0  0  0  0  0  0  0  0  0
   -1.0008   -2.0547    0.4953 C   0  0  0  0  0  0  0  0  0  0  0  0
   -0.9677   -3.4039    0.0965 C   0  0  0  0  0  0  0  0  0  0  0  0
   -2.1728   -4.0819   -0.1268 C   0  0  0  0  0  0  0  0  0  0  0  0
    0.3544   -4.0717   -0.1751 C   0  0  0  0  0  0  0  0  0  0  0  0
    0.7912   -5.2045    1.1908 S   0  0  0  0  0  0  0  0  0  0  0  0
    0.3522   -6.8044    0.3880 C   0  0  0  0  0  0  0  0  0  0  0  0
    1.5398   -7.7856    0.4200 C   0  0  1  0  0  0  0  0  0  0  0  0
    1.0427   -9.2054    0.5136 C   0  0  0  0  0  0  0  0  0  0  0  0
    1.3185   -9.9968    1.6708 N   0  0  0  0  0  0  0  0  0  0  0  0
    0.4174   -9.7119   -0.4580 O   0  0  0  0  0  0  0  0  0  0  0  0
    2.3554   -7.6400   -0.7798 N   0  0  0  0  0  0  0  0  0  0  0  0
    3.7925   -7.6117   -0.7708 C   0  0  0  0  0  0  0  0  0  0  0  0
    4.4199   -8.2243   -1.6826 O   0  0  0  0  0  0  0  0  0  0  0  0
    4.5691   -6.8678    0.2892 C   0  0  1  0  0  0  0  0  0  0  0  0
    5.1562   -7.8272    1.3235 C   0  0  0  0  0  0  0  0  0  0  0  0
    5.5909   -5.9927   -0.3144 N   0  0  0  0  0  0  0  0  0  0  0  0
    6.6919   -6.4589   -1.1081 C   0  0  0  0  0  0  0  0  0  0  0  0
    6.6989   -6.2117   -2.3430 O   0  0  0  0  0  0  0  0  0  0  0  0
    7.8933   -7.1038   -0.4723 C   0  0  1  0  0  0  0  0  0  0  0  0
    8.1904   -8.4529   -1.1338 C   0  0  0  0  0  0  0  0  0  0  0  0
    9.0594   -6.2143   -0.5790 N   0  0  0  0  0  0  0  0  0  0  0  0
   10.1039   -6.2400    0.4046 C   0  0  0  0  0  0  0  0  0  0  0  0
   10.4036   -7.3238    0.9695 O   0  0  0  0  0  0  0  0  0  0  0  0
   10.8256   -4.9620    0.7627 C   0  0  1  0  0  0  0  0  0  0  0  0
   11.2134   -4.9423    2.2468 C   0  0  0  0  0  0  0  0  0  0  0  0
   12.0191   -4.8108   -0.0727 N   0  0  0  0  0  0  0  0  0  0  0  0
   12.5911   -3.5496   -0.4601 C   0  0  0  0  0  0  0  0  0  0  0  0
   13.5228   -3.5435   -1.3144 O   0  0  0  0  0  0  0  0  0  0  0  0
   12.1596   -2.2237    0.1413 C   0  0  1  0  0  0  0  0  0  0  0  0
   13.3101   -1.6403    0.9677 C   0  0  0  0  0  0  0  0  0  0  0  0
   11.7546   -1.2895   -0.9163 N   0  0  0  0  0  0  0  0  0  0  0  0
   10.9813   -0.1274   -0.6157 C   0  0  0  0  0  0  0  0  0  0  0  0
    9.7268   -0.2048   -0.5938 O   0  0  0  0  0  0  0  0  0  0  0  0
   11.6654    1.1999   -0.4213 C   0  0  1  0  0  0  0  0  0  0  0  0
   12.0126    1.8207   -1.7851 C   0  0  0  0  0  0  0  0  0  0  0  0
   10.8451    2.0792    0.4294 N   0  0  0  0  0  0  0  0  0  0  0  0
   10.4075    3.3911    0.0461 C   0  0  0  0  0  0  0  0  0  0  0  0
    9.5557    3.5117   -0.8744 O   0  0  0  0  0  0  0  0  0  0  0  0
   10.9030    4.6259    0.7586 C   0  0  1  0  0  0  0  0  0  0  0  0
   12.0823    4.3279    1.6857 C   0  0  0  0  0  0  0  0  0  0  0  0
   11.3220    5.6099   -0.2443 N   0  0  0  0  0  0  0  0  0  0  0  0
   10.8150    6.9471   -0.4024 C   0  0  0  0  0  0  0  0  0  0  0  0
   11.2479    7.6375   -1.3686 O   0  0  0  0  0  0  0  0  0  0  0  0
    9.7633    7.5451    0.5061 C   0  0  1  0  0  0  0  0  0  0  0  0
   10.0004    9.0486    0.7101 C   0  0  0  0  0  0  0  0  0  0  0  0
    8.4391    7.3410   -0.0822 N   0  0  0  0  0  0  0  0  0  0  0  0
    7.3523    6.7907    0.6724 C   0  0  0  0  0  0  0  0  0  0  0  0
    7.5399    5.7716    1.3959 O   0  0  0  0  0  0  0  0  0  0  0  0
    5.9714    7.3761    0.5674 C   0  0  1  0  0  0  0  0  0  0  0  0
    6.0184    8.9077    0.5912 C   0  0  0  0  0  0  0  0  0  0  0  0
    5.3067    6.8896   -0.6477 N   0  0  0  0  0  0  0  0  0  0  0  0
    3.8835    6.9641   -0.8145 C   0  0  0  0  0  0  0  0  0  0  0  0
    3.2214    7.8084   -0.1502 O   0  0  0  0  0  0  0  0  0  0  0  0
    3.1815    5.9926   -1.7396 C   0  0  1  0  0  0  0  0  0  0  0  0
    3.1765    4.5737   -1.1562 C   0  0  0  0  0  0  0  0  0  0  0  0
    1.8186    6.4405   -2.0714 N   0  0  0  0  0  0  0  0  0  0  0  0
    0.7048    6.3939   -1.1553 C   0  0  0  0  0  0  0  0  0  0  0  0
    0.9135    6.3690    0.0953 O   0  0  0  0  0  0  0  0  0  0  0  0
   -0.7242    6.4871   -1.6471 C   0  0  1  0  0  0  0  0  0  0  0  0
   -0.9087    5.9353   -3.0702 C   0  0  0  0  0  0  0  0  0  0  0  0
   -1.6164    5.7875   -0.7170 N   0  0  0  0  0  0  0  0  0  0  0  0
   -1.6786    4.3620   -0.6574 C   0  0  0  0  0  0  0  0  0  0  0  0
   -0.6206    3.7094   -0.4604 O   0  0  0  0  0  0  0  0  0  0  0  0
   -2.9544    3.6342   -1.0371 C   0  0  1  0  0  0  0  0  0  0  0  0
   -3.2066    2.3903   -0.1719 C   0  0  0  0  0  0  0  0  0  0  0  0
   -2.1134    1.0062   -0.6639 S   0  0  0  0  0  0  0  0  0  0  0  0
   -2.2553    0.0864    0.9071 C   0  0  0  0  0  0  0  0  0  0  0  0
   -4.1098    4.5481   -1.0451 N   0  0  0  0  0  0  0  0  0  0  0  0
   -4.5916    5.2660    0.0998 C   0  0  0  0  0  0  0  0  0  0  0  0
   -4.5339    6.5265    0.1051 O   0  0  0  0  0  0  0  0  0  0  0  0
   -5.3028    4.5608    1.2287 C   0  0  1  0  0  0  0  0  0  0  0  0
   -4.4588    4.6784    2.5072 C   0  0  0  0  0  0  0  0  0  0  0  0
   -6.6325    5.1519    1.4453 N   0  0  0  0  0  0  0  0  0  0  0  0
   -7.6596    5.2266    0.4384 C   0  0  0  0  0  0  0  0  0  0  0  0
   -8.5675    6.0892    0.5870 O   0  0  0  0  0  0  0  0  0  0  0  0
   -7.7072    4.2823   -0.7518 C   0  0  1  0  0  0  0  0  0  0  0  0
   -8.0708    2.8404   -0.3584 C   0  0  0  0  0  0  0  0  0  0  0  0
   -8.5621    4.7919   -1.8385 N   0  0  0  0  0  0  0  0  0  0  0  0
   -9.9676    5.1039   -1.7709 C   0  0  0  0  0  0  0  0  0  0  0  0
  -10.4640    5.8173   -2.6807 O   0  0  0  0  0  0  0  0  0  0  0  0
  -10.8951    4.5579   -0.7039 C   0  0  1  0  0  0  0  0  0  0  0  0
  -11.7688    5.6710   -0.1251 C   0  0  0  0  0  0  0  0  0  0  0  0
  -11.7566    3.5332   -1.3069 N   0  0  0  0  0  0  0  0  0  0  0  0
  -11.9762    2.1953   -0.8274 C   0  0  0  0  0  0  0  0  0  0  0  0
  -12.6034    1.3939   -1.5724 O   0  0  0  0  0  0  0  0  0  0  0  0
  -11.6025    1.7386    0.5661 C   0  0  1  0  0  0  0  0  0  0  0  0
  -12.7581    2.0554    1.5288 C   0  0  0  0  0  0  0  0  0  0  0  0
  -11.2893    0.2964    0.5346 N   0  0  0  0  0  0  0  0  0  0  0  0
  -11.5160   -0.5826    1.6419 C   0  0  0  0  0  0  0  0  0  0  0  0
  -10.7972   -0.4701    2.6714 O   0  0  0  0  0  0  0  0  0  0  0  0
  -12.6594   -1.5732    1.6311 C   0  0  1  0  0  0  0  0  0  0  0  0
  -13.4707   -1.5364    0.3336 C   0  0  0  0  0  0  0  0  0  0  0  0
  -12.2220   -2.9476    1.9057 N   0  0  0  0  0  0  0  0  0  0  0  0
  -10.9216   -3.4770    1.5914 C   0  0  0  0  0  0  0  0  0  0  0  0
   -9.9789   -3.3392    2.4222 O   0  0  0  0  0  0  0  0  0  0  0  0
  -10.6686   -4.2457    0.3150 C   0  0  1  0  0  0  0  0  0  0  0  0
  -11.9665   -4.8208   -0.2792 C   0  0  0  0  0  0  0  0  0  0  0  0
   -9.9979   -3.3688   -0.6491 N   0  0  0  0  0  0  0  0  0  0  0  0
   -8.6266   -3.4537   -1.0842 C   0  0  0  0  0  0  0  0  0  0  0  0
   -8.0944   -2.4257   -1.5729 O   0  0  0  0  0  0  0  0  0  0  0  0
   -6.7590   -8.0380   -3.1676 H   0  0  0  0  0  0  0  0  0  0  0  0
   -6.1265   -6.6378   -2.2423 H   0  0  0  0  0  0  0  0  0  0  0  0
   -6.3363   -8.2342   -1.4196 H   0  0  0  0  0  0  0  0  0  0  0  0
   -9.6401   -5.6861   -1.9004 H   0  0  0  0  0  0  0  0  0  0  0  0
   -7.0099   -4.6004   -1.8689 H   0  0  0  0  0  0  0  0  0  0  0  0
   -6.6157   -6.0511    0.1662 H   0  0  0  0  0  0  0  0  0  0  0  0
   -7.9315   -5.2245    1.0100 H   0  0  0  0  0  0  0  0  0  0  0  0
   -5.0002   -3.5970   -1.3939 H   0  0  0  0  0  0  0  0  0  0  0  0
   -4.5346   -5.1618   -0.6110 H   0  0  0  0  0  0  0  0  0  0  0  0
   -4.3530   -1.5128    0.3747 H   0  0  0  0  0  0  0  0  0  0  0  0
   -0.0769   -1.5099    0.6525 H   0  0  0  0  0  0  0  0  0  0  0  0
   -2.1494   -5.1223   -0.4290 H   0  0  0  0  0  0  0  0  0  0  0  0
    1.1692   -3.3180   -0.2430 H   0  0  0  0  0  0  0  0  0  0  0  0
    0.3316   -4.5804   -1.1625 H   0  0  0  0  0  0  0  0  0  0  0  0
   -0.0148   -6.6770   -0.6548 H   0  0  0  0  0  0  0  0  0  0  0  0
   -0.5028   -7.2182    0.9690 H   0  0  0  0  0  0  0  0  0  0  0  0
    2.1373   -7.5752    1.3364 H   0  0  0  0  0  0  0  0  0  0  0  0
    0.9136  -10.9687    1.7498 H   0  0  0  0  0  0  0  0  0  0  0  0
    1.9116   -9.6273    2.4519 H   0  0  0  0  0  0  0  0  0  0  0  0
    1.8982   -7.8139   -1.7056 H   0  0  0  0  0  0  0  0  0  0  0  0
    3.8622   -6.1990    0.8291 H   0  0  0  0  0  0  0  0  0  0  0  0
    5.7336   -7.2620    2.0837 H   0  0  0  0  0  0  0  0  0  0  0  0
    5.8161   -8.5773    0.8426 H   0  0  0  0  0  0  0  0  0  0  0  0
    4.3485   -8.3826    1.8376 H   0  0  0  0  0  0  0  0  0  0  0  0
    5.2869   -5.0087   -0.5075 H   0  0  0  0  0  0  0  0  0  0  0  0
    7.6853   -7.2798    0.6017 H   0  0  0  0  0  0  0  0  0  0  0  0
    7.2854   -9.0931   -1.1198 H   0  0  0  0  0  0  0  0  0  0  0  0
    8.9899   -8.9818   -0.5698 H   0  0  0  0  0  0  0  0  0  0  0  0
    8.5307   -8.3233   -2.1854 H   0  0  0  0  0  0  0  0  0  0  0  0
    8.9993   -5.3664   -1.1861 H   0  0  0  0  0  0  0  0  0  0  0  0
   10.1114   -4.1366    0.5680 H   0  0  0  0  0  0  0  0  0  0  0  0
   11.6662   -3.9664    2.5214 H   0  0  0  0  0  0  0  0  0  0  0  0
   10.3098   -5.0959    2.8759 H   0  0  0  0  0  0  0  0  0  0  0  0
   11.9526   -5.7455    2.4679 H   0  0  0  0  0  0  0  0  0  0  0  0
   12.5068   -5.6780   -0.4038 H   0  0  0  0  0  0  0  0  0  0  0  0
   11.3038   -2.3593    0.8314 H   0  0  0  0  0  0  0  0  0  0  0  0
   13.7240   -2.4139    1.6532 H   0  0  0  0  0  0  0  0  0  0  0  0
   12.9423   -0.8004    1.5916 H   0  0  0  0  0  0  0  0  0  0  0  0
   14.1209   -1.2764    0.3014 H   0  0  0  0  0  0  0  0  0  0  0  0
   11.7756   -1.6025   -1.9155 H   0  0  0  0  0  0  0  0  0  0  0  0
   12.6259    1.0299    0.1065 H   0  0  0  0  0  0  0  0  0  0  0  0
   12.5721    2.7670   -1.6337 H   0  0  0  0  0  0  0  0  0  0  0  0
   12.6629    1.1332   -2.3690 H   0  0  0  0  0  0  0  0  0  0  0  0
   11.0947    2.0297   -2.3729 H   0  0  0  0  0  0  0  0  0  0  0  0
   10.7083    1.7871    1.4232 H   0  0  0  0  0  0  0  0  0  0  0  0
   10.0686    4.9985    1.3781 H   0  0  0  0  0  0  0  0  0  0  0  0
   12.3854    5.2523    2.2247 H   0  0  0  0  0  0  0  0  0  0  0  0
   12.9556    3.9471    1.1033 H   0  0  0  0  0  0  0  0  0  0  0  0
   11.8059    3.5693    2.4511 H   0  0  0  0  0  0  0  0  0  0  0  0
   12.0824    5.3164   -0.8954 H   0  0  0  0  0  0  0  0  0  0  0  0
    9.8173    7.0978    1.5199 H   0  0  0  0  0  0  0  0  0  0  0  0
   11.0121    9.2168    1.1421 H   0  0  0  0  0  0  0  0  0  0  0  0
    9.2441    9.4595    1.4128 H   0  0  0  0  0  0  0  0  0  0  0  0
    9.9337    9.5973   -0.2568 H   0  0  0  0  0  0  0  0  0  0  0  0
    8.2155    7.8540   -0.9632 H   0  0  0  0  0  0  0  0  0  0  0  0
    5.3844    7.0375    1.4523 H   0  0  0  0  0  0  0  0  0  0  0  0
    6.6449    9.2526    1.4450 H   0  0  0  0  0  0  0  0  0  0  0  0
    6.4421    9.3194   -0.3519 H   0  0  0  0  0  0  0  0  0  0  0  0
    5.0026    9.3275    0.7356 H   0  0  0  0  0  0  0  0  0  0  0  0
    5.8583    6.3903   -1.3812 H   0  0  0  0  0  0  0  0  0  0  0  0
    3.7634    5.9425   -2.6957 H   0  0  0  0  0  0  0  0  0  0  0  0
    2.7325    4.5567   -0.1353 H   0  0  0  0  0  0  0  0  0  0  0  0
    2.6052    3.8935   -1.8214 H   0  0  0  0  0  0  0  0  0  0  0  0
    4.2154    4.1994   -1.0867 H   0  0  0  0  0  0  0  0  0  0  0  0
    1.6727    6.8044   -3.0392 H   0  0  0  0  0  0  0  0  0  0  0  0
   -1.0135    7.5597   -1.6677 H   0  0  0  0  0  0  0  0  0  0  0  0
   -1.9920    5.8948   -3.3267 H   0  0  0  0  0  0  0  0  0  0  0  0
   -0.4806    4.9086   -3.1566 H   0  0  0  0  0  0  0  0  0  0  0  0
   -0.4256    6.6007   -3.8163 H   0  0  0  0  0  0  0  0  0  0  0  0
   -1.9702    6.3168    0.1160 H   0  0  0  0  0  0  0  0  0  0  0  0
   -2.8164    3.2787   -2.0835 H   0  0  0  0  0  0  0  0  0  0  0  0
   -4.2528    2.0419   -0.3055 H   0  0  0  0  0  0  0  0  0  0  0  0
   -3.0344    2.6422    0.8924 H   0  0  0  0  0  0  0  0  0  0  0  0
   -3.1915    0.3398    1.4486 H   0  0  0  0  0  0  0  0  0  0  0  0
   -1.4026    0.3727    1.5606 H   0  0  0  0  0  0  0  0  0  0  0  0
   -4.4029    4.9185   -1.9766 H   0  0  0  0  0  0  0  0  0  0  0  0
   -5.4322    3.4912    0.9898 H   0  0  0  0  0  0  0  0  0  0  0  0
   -4.4731    5.7207    2.8865 H   0  0  0  0  0  0  0  0  0  0  0  0
   -3.4033    4.3923    2.3154 H   0  0  0  0  0  0  0  0  0  0  0  0
   -4.8761    4.0040    3.2861 H   0  0  0  0  0  0  0  0  0  0  0  0
   -6.8270    5.6407    2.3484 H   0  0  0  0  0  0  0  0  0  0  0  0
   -6.6824    4.2419   -1.1679 H   0  0  0  0  0  0  0  0  0  0  0  0
   -8.8568    2.4283   -1.0279 H   0  0  0  0  0  0  0  0  0  0  0  0
   -8.4188    2.7764    0.6918 H   0  0  0  0  0  0  0  0  0  0  0  0
   -7.1769    2.1823   -0.4489 H   0  0  0  0  0  0  0  0  0  0  0  0
   -8.0741    5.0647   -2.7229 H   0  0  0  0  0  0  0  0  0  0  0  0
  -10.3035    4.1551    0.1281 H   0  0  0  0  0  0  0  0  0  0  0  0
  -12.3635    5.2852    0.7316 H   0  0  0  0  0  0  0  0  0  0  0  0
  -11.1404    6.5108    0.2425 H   0  0  0  0  0  0  0  0  0  0  0  0
  -12.4727    6.0610   -0.8920 H   0  0  0  0  0  0  0  0  0  0  0  0
  -12.2603    3.7959   -2.1848 H   0  0  0  0  0  0  0  0  0  0  0  0
  -10.7028    2.2431    0.9347 H   0  0  0  0  0  0  0  0  0  0  0  0
  -12.9782    3.1400    1.5148 H   0  0  0  0  0  0  0  0  0  0  0  0
  -13.6804    1.5108    1.2325 H   0  0  0  0  0  0  0  0  0  0  0  0
  -12.4936    1.7784    2.5699 H   0  0  0  0  0  0  0  0  0  0  0  0
  -10.6687   -0.0604   -0.2275 H   0  0  0  0  0  0  0  0  0  0  0  0
  -13.3495   -1.2703    2.4515 H   0  0  0  0  0  0  0  0  0  0  0  0
  -14.2504   -2.3260    0.3505 H   0  0  0  0  0  0  0  0  0  0  0  0
  -13.9752   -0.5570    0.2152 H   0  0  0  0  0  0  0  0  0  0  0  0
  -12.8116   -1.7066   -0.5456 H   0  0  0  0  0  0  0  0  0  0  0  0
  -12.9270   -3.6025    2.3210 H   0  0  0  0  0  0  0  0  0  0  0  0
  -10.0359   -5.1168    0.5686 H   0  0  0  0  0  0  0  0  0  0  0  0
  -12.5873   -4.0235   -0.7312 H   0  0  0  0  0  0  0  0  0  0  0  0
  -12.5538   -5.3476    0.5069 H   0  0  0  0  0  0  0  0  0  0  0  0
  -11.7319   -5.5639   -1.0738 H   0  0  0  0  0  0  0  0  0  0  0  0
  -10.5212   -2.5087   -0.9384 H   0  0  0  0  0  0  0  0  0  0  0  0
  1  2  1  0
  2  3  2  0
  2  4  1  0
  4  5  1  0
  5  6  1  0
  6  7  1  0
  7  8  1  0
  8  9  1  0
  9 10  2  0
 10 11  1  0
 11 12  2  0
 12 13  1  0
 13 14  2  0
 13 15  1  0
 15 16  1  0
 16 17  1  0
 17 18  1  0
 18 19  1  0
 19 20  1  0
 19 21  2  0
 18 22  1  0
 22 23  1  0
 23 24  2  0
 23 25  1  0
 25 26  1  0
 25 27  1  0
 27 28  1  0
 28 29  2  0
 28 30  1  0
 30 31  1  0
 30 32  1  0
 32 33  1  0
 33 34  2  0
 33 35  1  0
 35 36  1  0
 35 37  1  0
 37 38  1  0
 38 39  2  0
 38 40  1  0
 40 41  1  0
 40 42  1  0
 42 43  1  0
 43 44  2  0
 43 45  1  0
 45 46  1  0
 45 47  1  0
 47 48  1  0
 48 49  2  0
 48 50  1  0
 50 51  1  0
 50 52  1  0
 52 53  1  0
 53 54  2  0
 53 55  1  0
 55 56  1  0
 55 57  1  0
 57 58  1  0
 58 59  2  0
 58 60  1  0
 60 61  1  0
 60 62  1  0
 62 63  1  0
 63 64  2  0
 63 65  1  0
 65 66  1  0
 65 67  1  0
 67 68  1  0
 68 69  2  0
 68 70  1  0
 70 71  1  0
 70 72  1  0
 72 73  1  0
 73 74  2  0
 73 75  1  0
 75 76  1  0
 76 77  1  0
 77 78  1  0
 75 79  1  0
 79 80  1  0
 80 81  2  0
 80 82  1  0
 82 83  1  0
 82 84  1  0
 84 85  1  0
 85 86  2  0
 85 87  1  0
 87 88  1  0
 87 89  1  0
 89 90  1  0
 90 91  2  0
 90 92  1  0
 92 93  1  0
 92 94  1  0
 94 95  1  0
 95 96  2  0
 95 97  1  0
 97 98  1  0
 97 99  1  0
 99100  1  0
100101  2  0
100102  1  0
102103  1  0
102104  1  0
104105  1  0
105106  2  0
105107  1  0
107108  1  0
107109  1  0
109110  1  0
110111  2  0
110  5  1  0
 14  9  1  0
 78 11  1  0
  1112  1  0
  1113  1  0
  1114  1  0
  4115  1  0
  5116  1  6
  6117  1  0
  6118  1  0
  8119  1  0
  8120  1  0
 10121  1  0
 12122  1  0
 14123  1  0
 15124  1  0
 15125  1  0
 17126  1  0
 17127  1  0
 18128  1  1
 20129  1  0
 20130  1  0
 22131  1  0
 25132  1  1
 26133  1  0
 26134  1  0
 26135  1  0
 27136  1  0
 30137  1  1
 31138  1  0
 31139  1  0
 31140  1  0
 32141  1  0
 35142  1  1
 36143  1  0
 36144  1  0
 36145  1  0
 37146  1  0
 40147  1  1
 41148  1  0
 41149  1  0
 41150  1  0
 42151  1  0
 45152  1  1
 46153  1  0
 46154  1  0
 46155  1  0
 47156  1  0
 50157  1  1
 51158  1  0
 51159  1  0
 51160  1  0
 52161  1  0
 55162  1  1
 56163  1  0
 56164  1  0
 56165  1  0
 57166  1  0
 60167  1  1
 61168  1  0
 61169  1  0
 61170  1  0
 62171  1  0
 65172  1  6
 66173  1  0
 66174  1  0
 66175  1  0
 67176  1  0
 70177  1  6
 71178  1  0
 71179  1  0
 71180  1  0
 72181  1  0
 75182  1  6
 76183  1  0
 76184  1  0
 78185  1  0
 78186  1  0
 79187  1  0
 82188  1  6
 83189  1  0
 83190  1  0
 83191  1  0
 84192  1  0
 87193  1  6
 88194  1  0
 88195  1  0
 88196  1  0
 89197  1  0
 92198  1  1
 93199  1  0
 93200  1  0
 93201  1  0
 94202  1  0
 97203  1  1
 98204  1  0
 98205  1  0
 98206  1  0
 99207  1  0
102208  1  1
103209  1  0
103210  1  0
103211  1  0
104212  1  0
107213  1  1
108214  1  0
108215  1  0
108216  1  0
109217  1  0
M  END
