
     RDKit          3D

147149  0  0  0  0  0  0  0  0999 V2000
    4.0324    6.6797    2.1759 C   0  0  0  0  0  0  0  0  0  0  0  0
    4.4042    7.6978    1.1430 C   0  0  0  0  0  0  0  0  0  0  0  0
    4.5875    8.8944    1.5037 O   0  0  0  0  0  0  0  0  0  0  0  0
    4.5205    7.3585   -0.2469 N   0  0  0  0  0  0  0  0  0  0  0  0
    3.8986    6.1655   -0.8361 C   0  0  1  0  0  0  0  0  0  0  0  0
    2.4612    6.5137   -1.2617 C   0  0  0  0  0  0  0  0  0  0  0  0
    1.5033    5.0280   -1.7301 S   0  0  0  0  0  0  0  0  0  0  0  0
    1.1722    4.4489   -0.0275 C   0  0  0  0  0  0  0  0  0  0  0  0
   -0.1213    3.6937   -0.0010 C   0  0  0  0  0  0  0  0  0  0  0  0
   -1.3333    4.3806   -0.1890 C   0  0  0  0  0  0  0  0  0  0  0  0
   -2.5488    3.6906   -0.1587 C   0  0  0  0  0  0  0  0  0  0  0  0
   -2.5534    2.3159    0.0964 C   0  0  0  0  0  0  0  0  0  0  0  0
   -1.3539    1.6148    0.2823 C   0  0  0  0  0  0  0  0  0  0  0  0
   -0.1385    2.3089    0.2382 C   0  0  0  0  0  0  0  0  0  0  0  0
   -1.3963    0.1225    0.4614 C   0  0  0  0  0  0  0  0  0  0  0  0
   -2.0962   -0.6296   -1.0476 S   0  0  0  0  0  0  0  0  0  0  0  0
   -1.7178   -2.3760   -0.6379 C   0  0  0  0  0  0  0  0  0  0  0  0
   -2.4594   -2.9217    0.6091 C   0  0  2  0  0  0  0  0  0  0  0  0
   -2.3592   -4.3872    0.7131 N   0  0  0  0  0  0  0  0  0  0  0  0
   -1.2456   -5.1729    0.2647 C   0  0  0  0  0  0  0  0  0  0  0  0
   -1.4583   -6.0977   -0.5671 O   0  0  0  0  0  0  0  0  0  0  0  0
    0.1545   -4.9466    0.7957 C   0  0  1  0  0  0  0  0  0  0  0  0
    0.1536   -4.6936    2.3048 C   0  0  0  0  0  0  0  0  0  0  0  0
    0.9965   -6.1109    0.5080 N   0  0  0  0  0  0  0  0  0  0  0  0
    2.0058   -6.0663   -0.4959 C   0  0  0  0  0  0  0  0  0  0  0  0
    1.6655   -6.0063   -1.7145 O   0  0  0  0  0  0  0  0  0  0  0  0
    3.4509   -6.2451   -0.1101 C   0  0  1  0  0  0  0  0  0  0  0  0
    3.7285   -7.7131    0.2338 C   0  0  0  0  0  0  0  0  0  0  0  0
    4.3571   -5.8177   -1.1811 N   0  0  0  0  0  0  0  0  0  0  0  0
    5.7348   -5.4802   -0.9432 C   0  0  0  0  0  0  0  0  0  0  0  0
    6.6114   -5.9396   -1.7263 O   0  0  0  0  0  0  0  0  0  0  0  0
    6.1565   -4.5891    0.2022 C   0  0  1  0  0  0  0  0  0  0  0  0
    6.4546   -5.4162    1.4627 C   0  0  0  0  0  0  0  0  0  0  0  0
    7.3722   -3.8550   -0.1706 N   0  0  0  0  0  0  0  0  0  0  0  0
    7.5134   -2.4352   -0.0466 C   0  0  0  0  0  0  0  0  0  0  0  0
    8.4306   -1.9858    0.6906 O   0  0  0  0  0  0  0  0  0  0  0  0
    6.6877   -1.4565   -0.8516 C   0  0  1  0  0  0  0  0  0  0  0  0
    6.0741   -2.0909   -2.1076 C   0  0  0  0  0  0  0  0  0  0  0  0
    5.6424   -0.8410   -0.0299 N   0  0  0  0  0  0  0  0  0  0  0  0
    5.9055   -0.0346    1.1353 C   0  0  0  0  0  0  0  0  0  0  0  0
    5.3532   -0.3619    2.2214 O   0  0  0  0  0  0  0  0  0  0  0  0
    6.7185    1.2480    1.1174 C   0  0  1  0  0  0  0  0  0  0  0  0
    7.8926    1.1608    2.1016 C   0  0  0  0  0  0  0  0  0  0  0  0
    7.2120    1.6001   -0.2165 N   0  0  0  0  0  0  0  0  0  0  0  0
    6.4461    2.3597   -1.1606 C   0  0  0  0  0  0  0  0  0  0  0  0
    6.2373    1.8660   -2.3013 O   0  0  0  0  0  0  0  0  0  0  0  0
    5.8731    3.7207   -0.7997 C   0  0  1  0  0  0  0  0  0  0  0  0
    6.9033    4.5528   -0.0249 C   0  0  0  0  0  0  0  0  0  0  0  0
    5.4656    4.4597   -2.0083 N   0  0  0  0  0  0  0  0  0  0  0  0
    4.7229    5.6965   -2.0135 C   0  0  0  0  0  0  0  0  0  0  0  0
    4.7692    6.4145   -3.0497 O   0  0  0  0  0  0  0  0  0  0  0  0
   -3.9224   -2.5397    0.5991 C   0  0  0  0  0  0  0  0  0  0  0  0
   -4.4497   -2.0547    1.6339 O   0  0  0  0  0  0  0  0  0  0  0  0
   -4.7313   -2.7680   -0.5616 N   0  0  0  0  0  0  0  0  0  0  0  0
   -5.5985   -3.9417   -0.6608 C   0  0  2  0  0  0  0  0  0  0  0  0
   -6.2093   -4.0579   -2.0605 C   0  0  0  0  0  0  0  0  0  0  0  0
   -6.6726   -3.9328    0.4038 C   0  0  0  0  0  0  0  0  0  0  0  0
   -6.6101   -4.7806    1.3354 O   0  0  0  0  0  0  0  0  0  0  0  0
   -7.8159   -3.0688    0.3374 N   0  0  0  0  0  0  0  0  0  0  0  0
   -7.7448   -1.6191    0.1214 C   0  0  2  0  0  0  0  0  0  0  0  0
   -8.2613   -0.8974    1.3652 C   0  0  0  0  0  0  0  0  0  0  0  0
   -8.5489   -1.2354   -1.0953 C   0  0  0  0  0  0  0  0  0  0  0  0
   -9.6413   -1.8173   -1.3288 O   0  0  0  0  0  0  0  0  0  0  0  0
   -8.0698   -0.2515   -2.0270 N   0  0  0  0  0  0  0  0  0  0  0  0
   -7.8250    1.1430   -1.6285 C   0  0  2  0  0  0  0  0  0  0  0  0
   -7.7712    2.0507   -2.8600 C   0  0  0  0  0  0  0  0  0  0  0  0
   -6.5284    1.2682   -0.8656 C   0  0  0  0  0  0  0  0  0  0  0  0
   -5.5222    0.6453   -1.2809 O   0  0  0  0  0  0  0  0  0  0  0  0
   -6.4223    2.0292    0.3515 N   0  0  0  0  0  0  0  0  0  0  0  0
   -7.2258    3.2143    0.6829 C   0  0  1  0  0  0  0  0  0  0  0  0
   -7.6333    3.1848    2.1341 C   0  0  0  0  0  0  0  0  0  0  0  0
   -8.9515    3.5849    2.5234 N   0  0  0  0  0  0  0  0  0  0  0  0
   -6.8077    2.8312    3.0190 O   0  0  0  0  0  0  0  0  0  0  0  0
   -6.4636    4.5117    0.3583 C   0  0  0  0  0  0  0  0  0  0  0  0
   -4.7946    4.5577    1.1198 S   0  0  0  0  0  0  0  0  0  0  0  0
   -3.8487    4.3927   -0.4365 C   0  0  0  0  0  0  0  0  0  0  0  0
    4.0514    7.1291    3.1921 H   0  0  0  0  0  0  0  0  0  0  0  0
    3.0088    6.2924    1.9845 H   0  0  0  0  0  0  0  0  0  0  0  0
    4.7582    5.8403    2.1515 H   0  0  0  0  0  0  0  0  0  0  0  0
    4.8355    8.1181   -0.8971 H   0  0  0  0  0  0  0  0  0  0  0  0
    3.8458    5.3677   -0.0770 H   0  0  0  0  0  0  0  0  0  0  0  0
    2.4783    7.2078   -2.1285 H   0  0  0  0  0  0  0  0  0  0  0  0
    1.9402    7.0521   -0.4442 H   0  0  0  0  0  0  0  0  0  0  0  0
    2.0174    3.8135    0.3000 H   0  0  0  0  0  0  0  0  0  0  0  0
    1.0885    5.2963    0.6856 H   0  0  0  0  0  0  0  0  0  0  0  0
   -1.3195    5.4484   -0.3746 H   0  0  0  0  0  0  0  0  0  0  0  0
   -3.4909    1.7792    0.1143 H   0  0  0  0  0  0  0  0  0  0  0  0
    0.7936    1.7708    0.3709 H   0  0  0  0  0  0  0  0  0  0  0  0
   -0.3881   -0.2841    0.6653 H   0  0  0  0  0  0  0  0  0  0  0  0
   -2.0492   -0.1040    1.3273 H   0  0  0  0  0  0  0  0  0  0  0  0
   -0.6256   -2.4452   -0.4867 H   0  0  0  0  0  0  0  0  0  0  0  0
   -1.9822   -2.9989   -1.5201 H   0  0  0  0  0  0  0  0  0  0  0  0
   -1.9940   -2.4823    1.5148 H   0  0  0  0  0  0  0  0  0  0  0  0
   -3.1693   -4.9214    1.1233 H   0  0  0  0  0  0  0  0  0  0  0  0
    0.5951   -4.0603    0.2956 H   0  0  0  0  0  0  0  0  0  0  0  0
   -0.3408   -3.7303    2.5404 H   0  0  0  0  0  0  0  0  0  0  0  0
   -0.3754   -5.5124    2.8384 H   0  0  0  0  0  0  0  0  0  0  0  0
    1.1996   -4.6387    2.6765 H   0  0  0  0  0  0  0  0  0  0  0  0
    0.9025   -6.9688    1.0986 H   0  0  0  0  0  0  0  0  0  0  0  0
    3.6120   -5.6212    0.7899 H   0  0  0  0  0  0  0  0  0  0  0  0
    3.0744   -8.0514    1.0669 H   0  0  0  0  0  0  0  0  0  0  0  0
    4.7853   -7.8404    0.5425 H   0  0  0  0  0  0  0  0  0  0  0  0
    3.5486   -8.3602   -0.6514 H   0  0  0  0  0  0  0  0  0  0  0  0
    4.1362   -6.1468   -2.1499 H   0  0  0  0  0  0  0  0  0  0  0  0
    5.3375   -3.8700    0.4319 H   0  0  0  0  0  0  0  0  0  0  0  0
    6.8320   -4.7502    2.2646 H   0  0  0  0  0  0  0  0  0  0  0  0
    5.5506   -5.9224    1.8463 H   0  0  0  0  0  0  0  0  0  0  0  0
    7.2271   -6.1853    1.2441 H   0  0  0  0  0  0  0  0  0  0  0  0
    8.2551   -4.4075   -0.2702 H   0  0  0  0  0  0  0  0  0  0  0  0
    7.3753   -0.6809   -1.2309 H   0  0  0  0  0  0  0  0  0  0  0  0
    5.5974   -1.3033   -2.7278 H   0  0  0  0  0  0  0  0  0  0  0  0
    6.8658   -2.5838   -2.7129 H   0  0  0  0  0  0  0  0  0  0  0  0
    5.2989   -2.8398   -1.8426 H   0  0  0  0  0  0  0  0  0  0  0  0
    4.6946   -1.2829   -0.0605 H   0  0  0  0  0  0  0  0  0  0  0  0
    6.0482    2.0613    1.4779 H   0  0  0  0  0  0  0  0  0  0  0  0
    8.5604    0.3168    1.8381 H   0  0  0  0  0  0  0  0  0  0  0  0
    8.4847    2.1010    2.0634 H   0  0  0  0  0  0  0  0  0  0  0  0
    7.5197    1.0237    3.1383 H   0  0  0  0  0  0  0  0  0  0  0  0
    8.1388    1.2324   -0.5323 H   0  0  0  0  0  0  0  0  0  0  0  0
    4.9859    3.5305   -0.1667 H   0  0  0  0  0  0  0  0  0  0  0  0
    6.4917    5.5516    0.2218 H   0  0  0  0  0  0  0  0  0  0  0  0
    7.1738    4.0643    0.9337 H   0  0  0  0  0  0  0  0  0  0  0  0
    7.8241    4.6942   -0.6300 H   0  0  0  0  0  0  0  0  0  0  0  0
    5.9235    4.2104   -2.9191 H   0  0  0  0  0  0  0  0  0  0  0  0
   -4.5558   -2.1849   -1.4081 H   0  0  0  0  0  0  0  0  0  0  0  0
   -4.9667   -4.8531   -0.5102 H   0  0  0  0  0  0  0  0  0  0  0  0
   -5.4016   -4.1956   -2.8102 H   0  0  0  0  0  0  0  0  0  0  0  0
   -6.7806   -3.1405   -2.3189 H   0  0  0  0  0  0  0  0  0  0  0  0
   -6.8838   -4.9360   -2.1117 H   0  0  0  0  0  0  0  0  0  0  0  0
   -8.7280   -3.4635    0.6631 H   0  0  0  0  0  0  0  0  0  0  0  0
   -6.6949   -1.3168   -0.0312 H   0  0  0  0  0  0  0  0  0  0  0  0
   -9.2961   -1.2118    1.6019 H   0  0  0  0  0  0  0  0  0  0  0  0
   -8.2517    0.2010    1.2173 H   0  0  0  0  0  0  0  0  0  0  0  0
   -7.6115   -1.1385    2.2307 H   0  0  0  0  0  0  0  0  0  0  0  0
   -8.2268   -0.4560   -3.0394 H   0  0  0  0  0  0  0  0  0  0  0  0
   -8.6806    1.4631   -0.9981 H   0  0  0  0  0  0  0  0  0  0  0  0
   -6.9774    1.7059   -3.5543 H   0  0  0  0  0  0  0  0  0  0  0  0
   -7.5533    3.0972   -2.5590 H   0  0  0  0  0  0  0  0  0  0  0  0
   -8.7441    2.0389   -3.3895 H   0  0  0  0  0  0  0  0  0  0  0  0
   -5.6107    1.8048    0.9680 H   0  0  0  0  0  0  0  0  0  0  0  0
   -8.1539    3.2432    0.0789 H   0  0  0  0  0  0  0  0  0  0  0  0
   -9.6425    3.9076    1.8098 H   0  0  0  0  0  0  0  0  0  0  0  0
   -9.2387    3.5455    3.5258 H   0  0  0  0  0  0  0  0  0  0  0  0
   -6.4114    4.6283   -0.7472 H   0  0  0  0  0  0  0  0  0  0  0  0
   -7.0408    5.3847    0.7278 H   0  0  0  0  0  0  0  0  0  0  0  0
   -4.4057    3.7888   -1.1894 H   0  0  0  0  0  0  0  0  0  0  0  0
   -3.6823    5.4080   -0.8580 H   0  0  0  0  0  0  0  0  0  0  0  0
  1  2  1  0
  2  3  2  0
  2  4  1  0
  4  5  1  0
  5  6  1  0
  6  7  1  0
  7  8  1  0
  8  9  1  0
  9 10  2  0
 10 11  1  0
 11 12  2  0
 12 13  1  0
 13 14  2  0
 13 15  1  0
 15 16  1  0
 16 17  1  0
 17 18  1  0
 18 19  1  0
 19 20  1  0
 20 21  2  0
 20 22  1  0
 22 23  1  0
 22 24  1  0
 24 25  1  0
 25 26  2  0
 25 27  1  0
 27 28  1  0
 27 29  1  0
 29 30  1  0
 30 31  2  0
 30 32  1  0
 32 33  1  0
 32 34  1  0
 34 35  1  0
 35 36  2  0
 35 37  1  0
 37 38  1  0
 37 39  1  0
 39 40  1  0
 40 41  2  0
 40 42  1  0
 42 43  1  0
 42 44  1  0
 44 45  1  0
 45 46  2  0
 45 47  1  0
 47 48  1  0
 47 49  1  0
 49 50  1  0
 50 51  2  0
 18 52  1  0
 52 53  2  0
 52 54  1  0
 54 55  1  0
 55 56  1  0
 55 57  1  0
 57 58  2  0
 57 59  1  0
 59 60  1  0
 60 61  1  0
 60 62  1  0
 62 63  2  0
 62 64  1  0
 64 65  1  0
 65 66  1  0
 65 67  1  0
 67 68  2  0
 67 69  1  0
 69 70  1  0
 70 71  1  0
 71 72  1  0
 71 73  2  0
 70 74  1  0
 74 75  1  0
 75 76  1  0
 50  5  1  0
 14  9  1  0
 76 11  1  0
  1 77  1  0
  1 78  1  0
  1 79  1  0
  4 80  1  0
  5 81  1  1
  6 82  1  0
  6 83  1  0
  8 84  1  0
  8 85  1  0
 10 86  1  0
 12 87  1  0
 14 88  1  0
 15 89  1  0
 15 90  1  0
 17 91  1  0
 17 92  1  0
 18 93  1  1
 19 94  1  0
 22 95  1  6
 23 96  1  0
 23 97  1  0
 23 98  1  0
 24 99  1  0
 27100  1  1
 28101  1  0
 28102  1  0
 28103  1  0
 29104  1  0
 32105  1  1
 33106  1  0
 33107  1  0
 33108  1  0
 34109  1  0
 37110  1  6
 38111  1  0
 38112  1  0
 38113  1  0
 39114  1  0
 42115  1  1
 43116  1  0
 43117  1  0
 43118  1  0
 44119  1  0
 47120  1  1
 48121  1  0
 48122  1  0
 48123  1  0
 49124  1  0
 54125  1  0
 55126  1  1
 56127  1  0
 56128  1  0
 56129  1  0
 59130  1  0
 60131  1  6
 61132  1  0
 61133  1  0
 61134  1  0
 64135  1  0
 65136  1  1
 66137  1  0
 66138  1  0
 66139  1  0
 69140  1  0
 70141  1  6
 72142  1  0
 72143  1  0
 74144  1  0
 74145  1  0
 76146  1  0
 76147  1  0
M  END
