
     RDKit          3D

217219  0  0  0  0  0  0  0  0999 V2000
    8.1631    8.8183    0.2186 C   0  0  0  0  0  0  0  0  0  0  0  0
    7.6247    7.6434    0.9723 C   0  0  0  0  0  0  0  0  0  0  0  0
    7.3283    7.7614    2.1913 O   0  0  0  0  0  0  0  0  0  0  0  0
    7.4458    6.3877    0.2944 N   0  0  0  0  0  0  0  0  0  0  0  0
    6.8365    5.2180    0.9377 C   0  0  1  0  0  0  0  0  0  0  0  0
    5.2937    5.2993    0.8499 C   0  0  0  0  0  0  0  0  0  0  0  0
    4.6642    5.9437   -0.7503 S   0  0  0  0  0  0  0  0  0  0  0  0
    4.7230    4.3902   -1.7213 C   0  0  0  0  0  0  0  0  0  0  0  0
    3.5024    3.5436   -1.4830 C   0  0  0  0  0  0  0  0  0  0  0  0
    3.6066    2.2535   -0.9389 C   0  0  0  0  0  0  0  0  0  0  0  0
    2.4693    1.4242   -0.8241 C   0  0  0  0  0  0  0  0  0  0  0  0
    1.2317    1.9068   -1.2814 C   0  0  0  0  0  0  0  0  0  0  0  0
    1.1181    3.1958   -1.8239 C   0  0  0  0  0  0  0  0  0  0  0  0
    2.2565    4.0075   -1.9140 C   0  0  0  0  0  0  0  0  0  0  0  0
   -0.2140    3.7053   -2.2835 C   0  0  0  0  0  0  0  0  0  0  0  0
   -1.2300    4.2255   -0.8599 S   0  0  0  0  0  0  0  0  0  0  0  0
   -0.2389    5.7014   -0.4138 C   0  0  0  0  0  0  0  0  0  0  0  0
   -1.1477    6.7840    0.1728 C   0  0  1  0  0  0  0  0  0  0  0  0
   -0.3733    8.0258    0.5183 C   0  0  0  0  0  0  0  0  0  0  0  0
    0.2569    8.8139   -0.5000 N   0  0  0  0  0  0  0  0  0  0  0  0
   -0.3062    8.4053    1.7205 O   0  0  0  0  0  0  0  0  0  0  0  0
   -2.2022    7.1239   -0.7945 N   0  0  0  0  0  0  0  0  0  0  0  0
   -3.6200    7.0680   -0.5505 C   0  0  0  0  0  0  0  0  0  0  0  0
   -4.3975    7.4184   -1.4768 O   0  0  0  0  0  0  0  0  0  0  0  0
   -4.2090    6.6725    0.7878 C   0  0  1  0  0  0  0  0  0  0  0  0
   -4.0957    7.8676    1.7483 C   0  0  0  0  0  0  0  0  0  0  0  0
   -5.6032    6.2426    0.6065 N   0  0  0  0  0  0  0  0  0  0  0  0
   -6.6340    6.4004    1.5889 C   0  0  0  0  0  0  0  0  0  0  0  0
   -6.3928    6.1830    2.8115 O   0  0  0  0  0  0  0  0  0  0  0  0
   -8.0002    6.8701    1.1841 C   0  0  1  0  0  0  0  0  0  0  0  0
   -7.9464    8.3241    0.7196 C   0  0  0  0  0  0  0  0  0  0  0  0
   -8.5396    6.0239    0.1184 N   0  0  0  0  0  0  0  0  0  0  0  0
   -9.6431    5.1513    0.3725 C   0  0  0  0  0  0  0  0  0  0  0  0
   -9.5840    4.3319    1.3311 O   0  0  0  0  0  0  0  0  0  0  0  0
  -10.8695    5.1790   -0.4958 C   0  0  1  0  0  0  0  0  0  0  0  0
  -11.1734    6.5872   -1.0225 C   0  0  0  0  0  0  0  0  0  0  0  0
  -10.7187    4.2406   -1.6135 N   0  0  0  0  0  0  0  0  0  0  0  0
  -11.4087    2.9887   -1.7348 C   0  0  0  0  0  0  0  0  0  0  0  0
  -11.4487    2.4258   -2.8657 O   0  0  0  0  0  0  0  0  0  0  0  0
  -12.0965    2.3255   -0.5619 C   0  0  1  0  0  0  0  0  0  0  0  0
  -13.5658    2.7504   -0.4813 C   0  0  0  0  0  0  0  0  0  0  0  0
  -12.0270    0.8650   -0.6910 N   0  0  0  0  0  0  0  0  0  0  0  0
  -11.1126    0.0818    0.0914 C   0  0  0  0  0  0  0  0  0  0  0  0
   -9.9570    0.5301    0.3354 O   0  0  0  0  0  0  0  0  0  0  0  0
  -11.5322   -1.2388    0.6897 C   0  0  1  0  0  0  0  0  0  0  0  0
  -12.3253   -1.0005    1.9734 C   0  0  0  0  0  0  0  0  0  0  0  0
  -12.3467   -2.0168   -0.2577 N   0  0  0  0  0  0  0  0  0  0  0  0
  -12.0100   -3.3146   -0.7807 C   0  0  0  0  0  0  0  0  0  0  0  0
  -12.9451   -4.0533   -1.1958 O   0  0  0  0  0  0  0  0  0  0  0  0
  -10.5949   -3.8509   -0.8527 C   0  0  1  0  0  0  0  0  0  0  0  0
   -9.6325   -2.8302   -1.4905 C   0  0  0  0  0  0  0  0  0  0  0  0
  -10.1432   -4.2658    0.4817 N   0  0  0  0  0  0  0  0  0  0  0  0
   -8.8966   -4.9187    0.7823 C   0  0  0  0  0  0  0  0  0  0  0  0
   -8.5102   -4.9540    1.9815 O   0  0  0  0  0  0  0  0  0  0  0  0
   -8.0419   -5.5837   -0.2700 C   0  0  1  0  0  0  0  0  0  0  0  0
   -6.6917   -4.8563   -0.3654 C   0  0  0  0  0  0  0  0  0  0  0  0
   -7.8701   -7.0016    0.0706 N   0  0  0  0  0  0  0  0  0  0  0  0
   -6.9813   -7.8442   -0.6669 C   0  0  0  0  0  0  0  0  0  0  0  0
   -7.4399   -8.5499   -1.6045 O   0  0  0  0  0  0  0  0  0  0  0  0
   -5.5354   -7.9758   -0.2583 C   0  0  1  0  0  0  0  0  0  0  0  0
   -5.2872   -9.3906    0.2744 C   0  0  0  0  0  0  0  0  0  0  0  0
   -4.6616   -7.6862   -1.4040 N   0  0  0  0  0  0  0  0  0  0  0  0
   -3.2514   -7.3909   -1.3374 C   0  0  0  0  0  0  0  0  0  0  0  0
   -2.6362   -7.1853   -2.4153 O   0  0  0  0  0  0  0  0  0  0  0  0
   -2.4626   -7.3800   -0.0460 C   0  0  1  0  0  0  0  0  0  0  0  0
   -1.5999   -8.6438    0.0425 C   0  0  0  0  0  0  0  0  0  0  0  0
   -1.6092   -6.1909    0.0378 N   0  0  0  0  0  0  0  0  0  0  0  0
   -0.9982   -5.7955    1.2738 C   0  0  0  0  0  0  0  0  0  0  0  0
   -1.6943   -5.7771    2.3244 O   0  0  0  0  0  0  0  0  0  0  0  0
    0.4816   -5.5050    1.3728 C   0  0  1  0  0  0  0  0  0  0  0  0
    1.1917   -6.7355    1.9448 C   0  0  0  0  0  0  0  0  0  0  0  0
    1.0504   -5.1727    0.0592 N   0  0  0  0  0  0  0  0  0  0  0  0
    1.7654   -3.9674   -0.2750 C   0  0  0  0  0  0  0  0  0  0  0  0
    1.7206   -3.5683   -1.4686 O   0  0  0  0  0  0  0  0  0  0  0  0
    2.6161   -3.1826    0.7066 C   0  0  1  0  0  0  0  0  0  0  0  0
    1.8227   -2.0336    1.3645 C   0  0  0  0  0  0  0  0  0  0  0  0
    1.1101   -0.8380    0.1664 S   0  0  0  0  0  0  0  0  0  0  0  0
    2.6666    0.0007   -0.3290 C   0  0  0  0  0  0  0  0  0  0  0  0
    3.1943   -4.0597    1.7332 N   0  0  0  0  0  0  0  0  0  0  0  0
    4.5126   -4.6402    1.6962 C   0  0  0  0  0  0  0  0  0  0  0  0
    5.1440   -4.7399    2.7830 O   0  0  0  0  0  0  0  0  0  0  0  0
    5.1299   -5.2796    0.4650 C   0  0  1  0  0  0  0  0  0  0  0  0
    4.3838   -6.5442    0.0482 C   0  0  0  0  0  0  0  0  0  0  0  0
    5.2154   -4.3383   -0.6560 N   0  0  0  0  0  0  0  0  0  0  0  0
    6.4093   -3.6559   -1.0960 C   0  0  0  0  0  0  0  0  0  0  0  0
    6.3570   -2.9941   -2.1701 O   0  0  0  0  0  0  0  0  0  0  0  0
    7.7434   -3.7273   -0.3799 C   0  0  1  0  0  0  0  0  0  0  0  0
    7.6275   -3.3293    1.1032 C   0  0  0  0  0  0  0  0  0  0  0  0
    8.3529   -5.0554   -0.5632 N   0  0  0  0  0  0  0  0  0  0  0  0
    9.7601   -5.3457   -0.4608 C   0  0  0  0  0  0  0  0  0  0  0  0
   10.1870   -6.4193   -0.9639 O   0  0  0  0  0  0  0  0  0  0  0  0
   10.7184   -4.4913    0.3313 C   0  0  1  0  0  0  0  0  0  0  0  0
   10.7890   -4.9959    1.7741 C   0  0  0  0  0  0  0  0  0  0  0  0
   12.0617   -4.5170   -0.2623 N   0  0  0  0  0  0  0  0  0  0  0  0
   12.8606   -3.3504   -0.5611 C   0  0  0  0  0  0  0  0  0  0  0  0
   14.0880   -3.5069   -0.8019 O   0  0  0  0  0  0  0  0  0  0  0  0
   12.2802   -1.9530   -0.6268 C   0  0  1  0  0  0  0  0  0  0  0  0
   11.1795   -1.9037   -1.7076 C   0  0  0  0  0  0  0  0  0  0  0  0
   11.8184   -1.5459    0.7170 N   0  0  0  0  0  0  0  0  0  0  0  0
   11.3575   -0.2436    1.1171 C   0  0  0  0  0  0  0  0  0  0  0  0
   11.3974    0.0560    2.3416 O   0  0  0  0  0  0  0  0  0  0  0  0
   10.7122    0.7340    0.1721 C   0  0  1  0  0  0  0  0  0  0  0  0
    9.1840    0.5755    0.2504 C   0  0  0  0  0  0  0  0  0  0  0  0
   11.1659    2.0964    0.4887 N   0  0  0  0  0  0  0  0  0  0  0  0
   10.3198    3.1530    0.9561 C   0  0  0  0  0  0  0  0  0  0  0  0
    9.9224    3.1396    2.1516 O   0  0  0  0  0  0  0  0  0  0  0  0
    9.8523    4.2550    0.0373 C   0  0  1  0  0  0  0  0  0  0  0  0
   10.8275    4.4875   -1.1232 C   0  0  0  0  0  0  0  0  0  0  0  0
    8.5288    3.9106   -0.4916 N   0  0  0  0  0  0  0  0  0  0  0  0
    7.3726    3.9285    0.3504 C   0  0  0  0  0  0  0  0  0  0  0  0
    6.7860    2.8459    0.5881 O   0  0  0  0  0  0  0  0  0  0  0  0
    7.4799    9.0550   -0.6230 H   0  0  0  0  0  0  0  0  0  0  0  0
    8.2439    9.7072    0.8852 H   0  0  0  0  0  0  0  0  0  0  0  0
    9.1676    8.5672   -0.1814 H   0  0  0  0  0  0  0  0  0  0  0  0
    7.6688    6.3485   -0.7259 H   0  0  0  0  0  0  0  0  0  0  0  0
    7.1231    5.2013    2.0118 H   0  0  0  0  0  0  0  0  0  0  0  0
    4.9455    6.0184    1.6222 H   0  0  0  0  0  0  0  0  0  0  0  0
    4.8187    4.3281    1.0965 H   0  0  0  0  0  0  0  0  0  0  0  0
    5.6494    3.8273   -1.5169 H   0  0  0  0  0  0  0  0  0  0  0  0
    4.7585    4.6602   -2.7972 H   0  0  0  0  0  0  0  0  0  0  0  0
    4.5764    1.8792   -0.6331 H   0  0  0  0  0  0  0  0  0  0  0  0
    0.3494    1.2856   -1.2497 H   0  0  0  0  0  0  0  0  0  0  0  0
    2.1758    4.9944   -2.3501 H   0  0  0  0  0  0  0  0  0  0  0  0
   -0.7463    2.8996   -2.8293 H   0  0  0  0  0  0  0  0  0  0  0  0
   -0.1016    4.5462   -2.9959 H   0  0  0  0  0  0  0  0  0  0  0  0
    0.5167    5.3937    0.3395 H   0  0  0  0  0  0  0  0  0  0  0  0
    0.2890    6.1032   -1.2985 H   0  0  0  0  0  0  0  0  0  0  0  0
   -1.5702    6.3742    1.1094 H   0  0  0  0  0  0  0  0  0  0  0  0
    0.3220    8.4773   -1.4847 H   0  0  0  0  0  0  0  0  0  0  0  0
    0.5741    9.7835   -0.2651 H   0  0  0  0  0  0  0  0  0  0  0  0
   -1.8973    7.4529   -1.7343 H   0  0  0  0  0  0  0  0  0  0  0  0
   -3.6544    5.8100    1.2013 H   0  0  0  0  0  0  0  0  0  0  0  0
   -3.0711    8.2916    1.7357 H   0  0  0  0  0  0  0  0  0  0  0  0
   -4.3055    7.5511    2.7905 H   0  0  0  0  0  0  0  0  0  0  0  0
   -4.8079    8.6721    1.4507 H   0  0  0  0  0  0  0  0  0  0  0  0
   -5.8161    5.5990   -0.1923 H   0  0  0  0  0  0  0  0  0  0  0  0
   -8.6690    6.8264    2.0733 H   0  0  0  0  0  0  0  0  0  0  0  0
   -8.9645    8.6633    0.4332 H   0  0  0  0  0  0  0  0  0  0  0  0
   -7.5829    8.9759    1.5475 H   0  0  0  0  0  0  0  0  0  0  0  0
   -7.2685    8.4332   -0.1530 H   0  0  0  0  0  0  0  0  0  0  0  0
   -8.2223    6.1736   -0.8656 H   0  0  0  0  0  0  0  0  0  0  0  0
  -11.7327    4.8978    0.1362 H   0  0  0  0  0  0  0  0  0  0  0  0
  -12.1276    6.5784   -1.5909 H   0  0  0  0  0  0  0  0  0  0  0  0
  -11.2759    7.2977   -0.1758 H   0  0  0  0  0  0  0  0  0  0  0  0
  -10.3667    6.9432   -1.6964 H   0  0  0  0  0  0  0  0  0  0  0  0
  -10.0967    4.5235   -2.4064 H   0  0  0  0  0  0  0  0  0  0  0  0
  -11.5909    2.6290    0.3801 H   0  0  0  0  0  0  0  0  0  0  0  0
  -14.1132    2.4546   -1.4018 H   0  0  0  0  0  0  0  0  0  0  0  0
  -13.6623    3.8483   -0.3547 H   0  0  0  0  0  0  0  0  0  0  0  0
  -14.0474    2.2583    0.3915 H   0  0  0  0  0  0  0  0  0  0  0  0
  -12.7492    0.3782   -1.2612 H   0  0  0  0  0  0  0  0  0  0  0  0
  -10.6234   -1.7959    0.9764 H   0  0  0  0  0  0  0  0  0  0  0  0
  -13.2360   -0.3964    1.7646 H   0  0  0  0  0  0  0  0  0  0  0  0
  -11.6969   -0.4616    2.7158 H   0  0  0  0  0  0  0  0  0  0  0  0
  -12.6292   -1.9732    2.4159 H   0  0  0  0  0  0  0  0  0  0  0  0
  -13.3184   -1.6795   -0.4392 H   0  0  0  0  0  0  0  0  0  0  0  0
  -10.6196   -4.7462   -1.5124 H   0  0  0  0  0  0  0  0  0  0  0  0
  -10.1558   -2.2121   -2.2523 H   0  0  0  0  0  0  0  0  0  0  0  0
   -8.8045   -3.3557   -2.0106 H   0  0  0  0  0  0  0  0  0  0  0  0
   -9.1813   -2.1613   -0.7298 H   0  0  0  0  0  0  0  0  0  0  0  0
  -10.7681   -4.0795    1.2982 H   0  0  0  0  0  0  0  0  0  0  0  0
   -8.5273   -5.5406   -1.2652 H   0  0  0  0  0  0  0  0  0  0  0  0
   -6.0979   -5.2579   -1.2129 H   0  0  0  0  0  0  0  0  0  0  0  0
   -6.8484   -3.7714   -0.5466 H   0  0  0  0  0  0  0  0  0  0  0  0
   -6.1164   -4.9781    0.5781 H   0  0  0  0  0  0  0  0  0  0  0  0
   -8.6942   -7.4876    0.4919 H   0  0  0  0  0  0  0  0  0  0  0  0
   -5.3465   -7.2481    0.5570 H   0  0  0  0  0  0  0  0  0  0  0  0
   -6.1012   -9.6925    0.9724 H   0  0  0  0  0  0  0  0  0  0  0  0
   -4.3363   -9.4316    0.8464 H   0  0  0  0  0  0  0  0  0  0  0  0
   -5.2421  -10.1214   -0.5600 H   0  0  0  0  0  0  0  0  0  0  0  0
   -5.0841   -7.6841   -2.3609 H   0  0  0  0  0  0  0  0  0  0  0  0
   -3.1546   -7.3714    0.8194 H   0  0  0  0  0  0  0  0  0  0  0  0
   -1.1526   -8.7352    1.0537 H   0  0  0  0  0  0  0  0  0  0  0  0
   -0.7822   -8.6036   -0.7086 H   0  0  0  0  0  0  0  0  0  0  0  0
   -2.2101   -9.5490   -0.1528 H   0  0  0  0  0  0  0  0  0  0  0  0
   -1.3676   -5.6614   -0.8309 H   0  0  0  0  0  0  0  0  0  0  0  0
    0.6079   -4.6687    2.0803 H   0  0  0  0  0  0  0  0  0  0  0  0
    2.2647   -6.5287    2.1013 H   0  0  0  0  0  0  0  0  0  0  0  0
    0.7509   -7.0188    2.9253 H   0  0  0  0  0  0  0  0  0  0  0  0
    1.1076   -7.5960    1.2463 H   0  0  0  0  0  0  0  0  0  0  0  0
    0.9238   -5.8665   -0.7124 H   0  0  0  0  0  0  0  0  0  0  0  0
    3.4443   -2.6960    0.1522 H   0  0  0  0  0  0  0  0  0  0  0  0
    0.9792   -2.4416    1.9541 H   0  0  0  0  0  0  0  0  0  0  0  0
    2.4780   -1.4893    2.0791 H   0  0  0  0  0  0  0  0  0  0  0  0
    3.3738    0.0152    0.5286 H   0  0  0  0  0  0  0  0  0  0  0  0
    3.1342   -0.5908   -1.1473 H   0  0  0  0  0  0  0  0  0  0  0  0
    2.7508   -4.0357    2.6805 H   0  0  0  0  0  0  0  0  0  0  0  0
    6.1473   -5.6293    0.7358 H   0  0  0  0  0  0  0  0  0  0  0  0
    3.3562   -6.3075   -0.2862 H   0  0  0  0  0  0  0  0  0  0  0  0
    4.3448   -7.2627    0.8941 H   0  0  0  0  0  0  0  0  0  0  0  0
    4.9213   -7.0305   -0.7961 H   0  0  0  0  0  0  0  0  0  0  0  0
    4.3826   -4.2499   -1.2783 H   0  0  0  0  0  0  0  0  0  0  0  0
    8.4029   -2.9774   -0.8695 H   0  0  0  0  0  0  0  0  0  0  0  0
    6.7527   -2.6685    1.2716 H   0  0  0  0  0  0  0  0  0  0  0  0
    8.5194   -2.7648    1.4333 H   0  0  0  0  0  0  0  0  0  0  0  0
    7.5475   -4.2195    1.7515 H   0  0  0  0  0  0  0  0  0  0  0  0
    7.7589   -5.8193   -0.9618 H   0  0  0  0  0  0  0  0  0  0  0  0
   10.3285   -3.4656    0.3500 H   0  0  0  0  0  0  0  0  0  0  0  0
    9.7828   -4.9544    2.2517 H   0  0  0  0  0  0  0  0  0  0  0  0
   11.1529   -6.0492    1.8018 H   0  0  0  0  0  0  0  0  0  0  0  0
   11.4821   -4.3653    2.3694 H   0  0  0  0  0  0  0  0  0  0  0  0
   12.5335   -5.4492   -0.3488 H   0  0  0  0  0  0  0  0  0  0  0  0
   13.0886   -1.2499   -0.9320 H   0  0  0  0  0  0  0  0  0  0  0  0
   10.1991   -1.6444   -1.2835 H   0  0  0  0  0  0  0  0  0  0  0  0
   11.4363   -1.1415   -2.4727 H   0  0  0  0  0  0  0  0  0  0  0  0
   11.0664   -2.8696   -2.2436 H   0  0  0  0  0  0  0  0  0  0  0  0
   12.0403   -2.1872    1.5137 H   0  0  0  0  0  0  0  0  0  0  0  0
   11.0301    0.5344   -0.8665 H   0  0  0  0  0  0  0  0  0  0  0  0
    8.7008    1.1420   -0.5742 H   0  0  0  0  0  0  0  0  0  0  0  0
    8.8867   -0.4865    0.1338 H   0  0  0  0  0  0  0  0  0  0  0  0
    8.7889    0.9230    1.2292 H   0  0  0  0  0  0  0  0  0  0  0  0
   12.1852    2.3097    0.3803 H   0  0  0  0  0  0  0  0  0  0  0  0
    9.7921    5.1975    0.6201 H   0  0  0  0  0  0  0  0  0  0  0  0
   10.8965    3.5772   -1.7646 H   0  0  0  0  0  0  0  0  0  0  0  0
   11.8413    4.7355   -0.7360 H   0  0  0  0  0  0  0  0  0  0  0  0
   10.4722    5.3322   -1.7520 H   0  0  0  0  0  0  0  0  0  0  0  0
    8.4910    3.2904   -1.3307 H   0  0  0  0  0  0  0  0  0  0  0  0
  1  2  1  0
  2  3  2  0
  2  4  1  0
  4  5  1  0
  5  6  1  0
  6  7  1  0
  7  8  1  0
  8  9  1  0
  9 10  2  0
 10 11  1  0
 11 12  2  0
 12 13  1  0
 13 14  2  0
 13 15  1  0
 15 16  1  0
 16 17  1  0
 17 18  1  0
 18 19  1  0
 19 20  1  0
 19 21  2  0
 18 22  1  0
 22 23  1  0
 23 24  2  0
 23 25  1  0
 25 26  1  0
 25 27  1  0
 27 28  1  0
 28 29  2  0
 28 30  1  0
 30 31  1  0
 30 32  1  0
 32 33  1  0
 33 34  2  0
 33 35  1  0
 35 36  1  0
 35 37  1  0
 37 38  1  0
 38 39  2  0
 38 40  1  0
 40 41  1  0
 40 42  1  0
 42 43  1  0
 43 44  2  0
 43 45  1  0
 45 46  1  0
 45 47  1  0
 47 48  1  0
 48 49  2  0
 48 50  1  0
 50 51  1  0
 50 52  1  0
 52 53  1  0
 53 54  2  0
 53 55  1  0
 55 56  1  0
 55 57  1  0
 57 58  1  0
 58 59  2  0
 58 60  1  0
 60 61  1  0
 60 62  1  0
 62 63  1  0
 63 64  2  0
 63 65  1  0
 65 66  1  0
 65 67  1  0
 67 68  1  0
 68 69  2  0
 68 70  1  0
 70 71  1  0
 70 72  1  0
 72 73  1  0
 73 74  2  0
 73 75  1  0
 75 76  1  0
 76 77  1  0
 77 78  1  0
 75 79  1  0
 79 80  1  0
 80 81  2  0
 80 82  1  0
 82 83  1  0
 82 84  1  0
 84 85  1  0
 85 86  2  0
 85 87  1  0
 87 88  1  0
 87 89  1  0
 89 90  1  0
 90 91  2  0
 90 92  1  0
 92 93  1  0
 92 94  1  0
 94 95  1  0
 95 96  2  0
 95 97  1  0
 97 98  1  0
 97 99  1  0
 99100  1  0
100101  2  0
100102  1  0
102103  1  0
102104  1  0
104105  1  0
105106  2  0
105107  1  0
107108  1  0
107109  1  0
109110  1  0
110111  2  0
110  5  1  0
 14  9  1  0
 78 11  1  0
  1112  1  0
  1113  1  0
  1114  1  0
  4115  1  0
  5116  1  1
  6117  1  0
  6118  1  0
  8119  1  0
  8120  1  0
 10121  1  0
 12122  1  0
 14123  1  0
 15124  1  0
 15125  1  0
 17126  1  0
 17127  1  0
 18128  1  1
 20129  1  0
 20130  1  0
 22131  1  0
 25132  1  1
 26133  1  0
 26134  1  0
 26135  1  0
 27136  1  0
 30137  1  1
 31138  1  0
 31139  1  0
 31140  1  0
 32141  1  0
 35142  1  1
 36143  1  0
 36144  1  0
 36145  1  0
 37146  1  0
 40147  1  1
 41148  1  0
 41149  1  0
 41150  1  0
 42151  1  0
 45152  1  1
 46153  1  0
 46154  1  0
 46155  1  0
 47156  1  0
 50157  1  6
 51158  1  0
 51159  1  0
 51160  1  0
 52161  1  0
 55162  1  6
 56163  1  0
 56164  1  0
 56165  1  0
 57166  1  0
 60167  1  1
 61168  1  0
 61169  1  0
 61170  1  0
 62171  1  0
 65172  1  1
 66173  1  0
 66174  1  0
 66175  1  0
 67176  1  0
 70177  1  1
 71178  1  0
 71179  1  0
 71180  1  0
 72181  1  0
 75182  1  6
 76183  1  0
 76184  1  0
 78185  1  0
 78186  1  0
 79187  1  0
 82188  1  1
 83189  1  0
 83190  1  0
 83191  1  0
 84192  1  0
 87193  1  6
 88194  1  0
 88195  1  0
 88196  1  0
 89197  1  0
 92198  1  1
 93199  1  0
 93200  1  0
 93201  1  0
 94202  1  0
 97203  1  6
 98204  1  0
 98205  1  0
 98206  1  0
 99207  1  0
102208  1  6
103209  1  0
103210  1  0
103211  1  0
104212  1  0
107213  1  1
108214  1  0
108215  1  0
108216  1  0
109217  1  0
M  END
