
     RDKit          3D

157159  0  0  0  0  0  0  0  0999 V2000
   -3.6305   -6.9151    3.8482 C   0  0  0  0  0  0  0  0  0  0  0  0
   -3.5629   -6.3869    2.4510 C   0  0  0  0  0  0  0  0  0  0  0  0
   -3.0861   -7.1297    1.5430 O   0  0  0  0  0  0  0  0  0  0  0  0
   -4.0576   -5.0739    2.1342 N   0  0  0  0  0  0  0  0  0  0  0  0
   -4.1681   -4.5475    0.7717 C   0  0  1  0  0  0  0  0  0  0  0  0
   -2.7684   -4.3009    0.1795 C   0  0  0  0  0  0  0  0  0  0  0  0
   -2.8959   -3.2404   -1.3111 S   0  0  0  0  0  0  0  0  0  0  0  0
   -1.3166   -3.7363   -2.0916 C   0  0  0  0  0  0  0  0  0  0  0  0
   -0.1189   -3.3387   -1.2651 C   0  0  0  0  0  0  0  0  0  0  0  0
    0.9044   -4.2672   -1.0188 C   0  0  0  0  0  0  0  0  0  0  0  0
    2.0414   -3.9054   -0.2822 C   0  0  0  0  0  0  0  0  0  0  0  0
    2.1426   -2.6048    0.2423 C   0  0  0  0  0  0  0  0  0  0  0  0
    1.1285   -1.6661    0.0110 C   0  0  0  0  0  0  0  0  0  0  0  0
    0.0193   -2.0306   -0.7737 C   0  0  0  0  0  0  0  0  0  0  0  0
    1.1849   -0.3011    0.6418 C   0  0  0  0  0  0  0  0  0  0  0  0
    2.3273    0.8034   -0.2750 S   0  0  0  0  0  0  0  0  0  0  0  0
    1.1381    2.1721   -0.5493 C   0  0  0  0  0  0  0  0  0  0  0  0
    1.8602    3.5348   -0.6642 C   0  0  2  0  0  0  0  0  0  0  0  0
    0.9245    4.6735   -0.6569 N   0  0  0  0  0  0  0  0  0  0  0  0
   -0.4772    4.6007   -0.9704 C   0  0  0  0  0  0  0  0  0  0  0  0
   -0.8665    3.8843   -1.9276 O   0  0  0  0  0  0  0  0  0  0  0  0
   -1.5114    5.3624   -0.1704 C   0  0  1  0  0  0  0  0  0  0  0  0
   -0.9115    6.1516    1.0084 C   0  0  0  0  0  0  0  0  0  0  0  0
   -2.2479    6.2671   -1.0581 N   0  0  0  0  0  0  0  0  0  0  0  0
   -3.6345    6.6273   -0.9055 C   0  0  0  0  0  0  0  0  0  0  0  0
   -4.1305    7.4601   -1.7093 O   0  0  0  0  0  0  0  0  0  0  0  0
   -4.5261    5.9793    0.1343 C   0  0  1  0  0  0  0  0  0  0  0  0
   -5.6686    6.9034    0.5879 C   0  0  0  0  0  0  0  0  0  0  0  0
   -5.0229    4.6944   -0.3699 N   0  0  0  0  0  0  0  0  0  0  0  0
   -6.0753    4.5826   -1.3252 C   0  0  0  0  0  0  0  0  0  0  0  0
   -5.7778    4.4697   -2.5477 O   0  0  0  0  0  0  0  0  0  0  0  0
   -7.5246    4.5748   -0.8974 C   0  0  1  0  0  0  0  0  0  0  0  0
   -8.4319    3.8950   -1.9270 C   0  0  0  0  0  0  0  0  0  0  0  0
   -7.7192    3.9982    0.4400 N   0  0  0  0  0  0  0  0  0  0  0  0
   -7.6779    2.5984    0.7732 C   0  0  0  0  0  0  0  0  0  0  0  0
   -8.5324    2.1466    1.5904 O   0  0  0  0  0  0  0  0  0  0  0  0
   -6.5345    1.7116    0.3559 C   0  0  1  0  0  0  0  0  0  0  0  0
   -5.4031    1.8431    1.3928 C   0  0  0  0  0  0  0  0  0  0  0  0
   -6.9532    0.3027    0.2582 N   0  0  0  0  0  0  0  0  0  0  0  0
   -7.8061   -0.1903   -0.7891 C   0  0  0  0  0  0  0  0  0  0  0  0
   -8.4730    0.6113   -1.4905 O   0  0  0  0  0  0  0  0  0  0  0  0
   -7.8048   -1.6592   -1.1419 C   0  0  1  0  0  0  0  0  0  0  0  0
   -6.4821   -1.9927   -1.8422 C   0  0  0  0  0  0  0  0  0  0  0  0
   -7.9821   -2.5019    0.0441 N   0  0  0  0  0  0  0  0  0  0  0  0
   -8.0098   -3.9316   -0.0591 C   0  0  0  0  0  0  0  0  0  0  0  0
   -8.6026   -4.4794   -1.0282 O   0  0  0  0  0  0  0  0  0  0  0  0
   -7.2770   -4.7677    0.9509 C   0  0  1  0  0  0  0  0  0  0  0  0
   -8.2621   -5.5146    1.8665 C   0  0  0  0  0  0  0  0  0  0  0  0
   -6.4088   -5.7225    0.2480 N   0  0  0  0  0  0  0  0  0  0  0  0
   -5.0308   -5.4695   -0.0712 C   0  0  0  0  0  0  0  0  0  0  0  0
   -4.5273   -6.0774   -1.0535 O   0  0  0  0  0  0  0  0  0  0  0  0
    2.7407    3.6262   -1.8873 C   0  0  0  0  0  0  0  0  0  0  0  0
    2.2250    3.3795   -3.0120 O   0  0  0  0  0  0  0  0  0  0  0  0
    4.1385    3.9711   -1.8268 N   0  0  0  0  0  0  0  0  0  0  0  0
    4.8251    4.5966   -0.6846 C   0  0  2  0  0  0  0  0  0  0  0  0
    4.1643    5.9337   -0.3038 C   0  0  0  0  0  0  0  0  0  0  0  0
    6.2774    4.8534   -1.0446 C   0  0  0  0  0  0  0  0  0  0  0  0
    6.5217    5.5732   -2.0487 O   0  0  0  0  0  0  0  0  0  0  0  0
    7.3888    4.3467   -0.2772 N   0  0  0  0  0  0  0  0  0  0  0  0
    7.2833    3.5131    0.9242 C   0  0  2  0  0  0  0  0  0  0  0  0
    6.9531    4.3877    2.1408 C   0  0  0  0  0  0  0  0  0  0  0  0
    8.5762    2.7705    1.1478 C   0  0  0  0  0  0  0  0  0  0  0  0
    9.6325    3.4160    1.4033 O   0  0  0  0  0  0  0  0  0  0  0  0
    8.5952    1.3323    1.2111 N   0  0  0  0  0  0  0  0  0  0  0  0
    8.5495    0.4504    0.0356 C   0  0  2  0  0  0  0  0  0  0  0  0
    7.7618    1.0320   -1.1501 C   0  0  0  0  0  0  0  0  0  0  0  0
    7.9526   -0.8730    0.4412 C   0  0  0  0  0  0  0  0  0  0  0  0
    6.7768   -0.9121    0.8935 O   0  0  0  0  0  0  0  0  0  0  0  0
    8.7484   -2.0711    0.3866 N   0  0  0  0  0  0  0  0  0  0  0  0
    8.3652   -3.2753    1.1216 C   0  0  2  0  0  0  0  0  0  0  0  0
    9.0092   -3.2612    2.5071 C   0  0  0  0  0  0  0  0  0  0  0  0
    8.7795   -4.4981    0.3455 C   0  0  0  0  0  0  0  0  0  0  0  0
   10.0068   -4.7727    0.2337 O   0  0  0  0  0  0  0  0  0  0  0  0
    7.8171   -5.3826   -0.2492 N   0  0  0  0  0  0  0  0  0  0  0  0
    6.6386   -4.9079   -0.9830 C   0  0  1  0  0  0  0  0  0  0  0  0
    7.0166   -4.6207   -2.4190 C   0  0  0  0  0  0  0  0  0  0  0  0
    6.8560   -3.3065   -2.9608 N   0  0  0  0  0  0  0  0  0  0  0  0
    7.4829   -5.5368   -3.1478 O   0  0  0  0  0  0  0  0  0  0  0  0
    5.5182   -5.9586   -0.9133 C   0  0  0  0  0  0  0  0  0  0  0  0
    3.9647   -5.2958   -1.6282 S   0  0  0  0  0  0  0  0  0  0  0  0
    3.1448   -4.9012   -0.0435 C   0  0  0  0  0  0  0  0  0  0  0  0
   -4.0700   -6.1740    4.5442 H   0  0  0  0  0  0  0  0  0  0  0  0
   -4.2578   -7.8308    3.8656 H   0  0  0  0  0  0  0  0  0  0  0  0
   -2.6037   -7.1732    4.2014 H   0  0  0  0  0  0  0  0  0  0  0  0
   -4.4517   -4.4975    2.9161 H   0  0  0  0  0  0  0  0  0  0  0  0
   -4.6655   -3.5515    0.8265 H   0  0  0  0  0  0  0  0  0  0  0  0
   -2.1415   -3.7631    0.9262 H   0  0  0  0  0  0  0  0  0  0  0  0
   -2.2699   -5.2536   -0.0624 H   0  0  0  0  0  0  0  0  0  0  0  0
   -1.3269   -4.8270   -2.2967 H   0  0  0  0  0  0  0  0  0  0  0  0
   -1.2525   -3.2178   -3.0756 H   0  0  0  0  0  0  0  0  0  0  0  0
    0.8349   -5.2672   -1.4260 H   0  0  0  0  0  0  0  0  0  0  0  0
    3.0059   -2.3245    0.8324 H   0  0  0  0  0  0  0  0  0  0  0  0
   -0.7564   -1.3015   -0.9735 H   0  0  0  0  0  0  0  0  0  0  0  0
    1.5495   -0.3883    1.6888 H   0  0  0  0  0  0  0  0  0  0  0  0
    0.1542    0.1191    0.7174 H   0  0  0  0  0  0  0  0  0  0  0  0
    0.4341    2.2447    0.3088 H   0  0  0  0  0  0  0  0  0  0  0  0
    0.5628    1.9291   -1.4723 H   0  0  0  0  0  0  0  0  0  0  0  0
    2.4862    3.6173    0.2493 H   0  0  0  0  0  0  0  0  0  0  0  0
    1.2941    5.5848   -0.3161 H   0  0  0  0  0  0  0  0  0  0  0  0
   -2.1873    4.5892    0.2501 H   0  0  0  0  0  0  0  0  0  0  0  0
   -0.2303    5.5097    1.6067 H   0  0  0  0  0  0  0  0  0  0  0  0
   -1.7194    6.4995    1.6821 H   0  0  0  0  0  0  0  0  0  0  0  0
   -0.3674    7.0366    0.6314 H   0  0  0  0  0  0  0  0  0  0  0  0
   -1.6963    6.7898   -1.7803 H   0  0  0  0  0  0  0  0  0  0  0  0
   -3.9305    5.7810    1.0554 H   0  0  0  0  0  0  0  0  0  0  0  0
   -6.3081    6.3797    1.3341 H   0  0  0  0  0  0  0  0  0  0  0  0
   -5.2392    7.8069    1.0790 H   0  0  0  0  0  0  0  0  0  0  0  0
   -6.2891    7.2359   -0.2712 H   0  0  0  0  0  0  0  0  0  0  0  0
   -4.3189    3.9243   -0.4084 H   0  0  0  0  0  0  0  0  0  0  0  0
   -7.8478    5.6358   -0.8645 H   0  0  0  0  0  0  0  0  0  0  0  0
   -8.5426    4.5416   -2.8280 H   0  0  0  0  0  0  0  0  0  0  0  0
   -8.0130    2.9220   -2.2511 H   0  0  0  0  0  0  0  0  0  0  0  0
   -9.4503    3.7281   -1.5047 H   0  0  0  0  0  0  0  0  0  0  0  0
   -8.1251    4.6339    1.1652 H   0  0  0  0  0  0  0  0  0  0  0  0
   -6.1454    2.0258   -0.6362 H   0  0  0  0  0  0  0  0  0  0  0  0
   -5.7273    1.4336    2.3717 H   0  0  0  0  0  0  0  0  0  0  0  0
   -4.5049    1.2910    1.0501 H   0  0  0  0  0  0  0  0  0  0  0  0
   -5.1262    2.9052    1.5540 H   0  0  0  0  0  0  0  0  0  0  0  0
   -6.5112   -0.3946    0.8997 H   0  0  0  0  0  0  0  0  0  0  0  0
   -8.6442   -1.8557   -1.8535 H   0  0  0  0  0  0  0  0  0  0  0  0
   -6.5030   -3.0374   -2.2260 H   0  0  0  0  0  0  0  0  0  0  0  0
   -5.6378   -1.8893   -1.1257 H   0  0  0  0  0  0  0  0  0  0  0  0
   -6.3092   -1.3146   -2.7067 H   0  0  0  0  0  0  0  0  0  0  0  0
   -8.0875   -2.0793    0.9934 H   0  0  0  0  0  0  0  0  0  0  0  0
   -6.6776   -4.1030    1.6096 H   0  0  0  0  0  0  0  0  0  0  0  0
   -8.9312   -6.1592    1.2642 H   0  0  0  0  0  0  0  0  0  0  0  0
   -8.8775   -4.7856    2.4419 H   0  0  0  0  0  0  0  0  0  0  0  0
   -7.6976   -6.1501    2.5852 H   0  0  0  0  0  0  0  0  0  0  0  0
   -6.8829   -6.5147   -0.2568 H   0  0  0  0  0  0  0  0  0  0  0  0
    4.6869    3.7797   -2.6921 H   0  0  0  0  0  0  0  0  0  0  0  0
    4.7528    3.9234    0.1903 H   0  0  0  0  0  0  0  0  0  0  0  0
    3.3922    5.7811    0.4726 H   0  0  0  0  0  0  0  0  0  0  0  0
    3.7100    6.4201   -1.1954 H   0  0  0  0  0  0  0  0  0  0  0  0
    4.9028    6.6439    0.1384 H   0  0  0  0  0  0  0  0  0  0  0  0
    8.3473    4.6078   -0.6216 H   0  0  0  0  0  0  0  0  0  0  0  0
    6.4855    2.7566    0.7954 H   0  0  0  0  0  0  0  0  0  0  0  0
    5.9554    4.8580    2.0169 H   0  0  0  0  0  0  0  0  0  0  0  0
    6.9247    3.7610    3.0566 H   0  0  0  0  0  0  0  0  0  0  0  0
    7.7079    5.1958    2.2575 H   0  0  0  0  0  0  0  0  0  0  0  0
    9.0740    0.9367    2.0494 H   0  0  0  0  0  0  0  0  0  0  0  0
    9.5910    0.2952   -0.3142 H   0  0  0  0  0  0  0  0  0  0  0  0
    8.2210    1.9886   -1.4773 H   0  0  0  0  0  0  0  0  0  0  0  0
    6.6992    1.1932   -0.8818 H   0  0  0  0  0  0  0  0  0  0  0  0
    7.8015    0.3278   -2.0061 H   0  0  0  0  0  0  0  0  0  0  0  0
    9.7456   -1.9788    0.0981 H   0  0  0  0  0  0  0  0  0  0  0  0
    7.2712   -3.3023    1.2849 H   0  0  0  0  0  0  0  0  0  0  0  0
   10.1166   -3.1988    2.4287 H   0  0  0  0  0  0  0  0  0  0  0  0
    8.7367   -4.1828    3.0714 H   0  0  0  0  0  0  0  0  0  0  0  0
    8.6571   -2.3830    3.0905 H   0  0  0  0  0  0  0  0  0  0  0  0
    8.1427   -6.3608   -0.4468 H   0  0  0  0  0  0  0  0  0  0  0  0
    6.2549   -3.9748   -0.5238 H   0  0  0  0  0  0  0  0  0  0  0  0
    7.0545   -3.1237   -3.9696 H   0  0  0  0  0  0  0  0  0  0  0  0
    6.4982   -2.5260   -2.3680 H   0  0  0  0  0  0  0  0  0  0  0  0
    5.3688   -6.2695    0.1464 H   0  0  0  0  0  0  0  0  0  0  0  0
    5.8182   -6.8654   -1.4859 H   0  0  0  0  0  0  0  0  0  0  0  0
    2.7196   -5.8304    0.3847 H   0  0  0  0  0  0  0  0  0  0  0  0
    3.8836   -4.4896    0.6728 H   0  0  0  0  0  0  0  0  0  0  0  0
  1  2  1  0
  2  3  2  0
  2  4  1  0
  4  5  1  0
  5  6  1  0
  6  7  1  0
  7  8  1  0
  8  9  1  0
  9 10  2  0
 10 11  1  0
 11 12  2  0
 12 13  1  0
 13 14  2  0
 13 15  1  0
 15 16  1  0
 16 17  1  0
 17 18  1  0
 18 19  1  0
 19 20  1  0
 20 21  2  0
 20 22  1  0
 22 23  1  0
 22 24  1  0
 24 25  1  0
 25 26  2  0
 25 27  1  0
 27 28  1  0
 27 29  1  0
 29 30  1  0
 30 31  2  0
 30 32  1  0
 32 33  1  0
 32 34  1  0
 34 35  1  0
 35 36  2  0
 35 37  1  0
 37 38  1  0
 37 39  1  0
 39 40  1  0
 40 41  2  0
 40 42  1  0
 42 43  1  0
 42 44  1  0
 44 45  1  0
 45 46  2  0
 45 47  1  0
 47 48  1  0
 47 49  1  0
 49 50  1  0
 50 51  2  0
 18 52  1  0
 52 53  2  0
 52 54  1  0
 54 55  1  0
 55 56  1  0
 55 57  1  0
 57 58  2  0
 57 59  1  0
 59 60  1  0
 60 61  1  0
 60 62  1  0
 62 63  2  0
 62 64  1  0
 64 65  1  0
 65 66  1  0
 65 67  1  0
 67 68  2  0
 67 69  1  0
 69 70  1  0
 70 71  1  0
 70 72  1  0
 72 73  2  0
 72 74  1  0
 74 75  1  0
 75 76  1  0
 76 77  1  0
 76 78  2  0
 75 79  1  0
 79 80  1  0
 80 81  1  0
 50  5  1  0
 14  9  1  0
 81 11  1  0
  1 82  1  0
  1 83  1  0
  1 84  1  0
  4 85  1  0
  5 86  1  1
  6 87  1  0
  6 88  1  0
  8 89  1  0
  8 90  1  0
 10 91  1  0
 12 92  1  0
 14 93  1  0
 15 94  1  0
 15 95  1  0
 17 96  1  0
 17 97  1  0
 18 98  1  1
 19 99  1  0
 22100  1  1
 23101  1  0
 23102  1  0
 23103  1  0
 24104  1  0
 27105  1  1
 28106  1  0
 28107  1  0
 28108  1  0
 29109  1  0
 32110  1  1
 33111  1  0
 33112  1  0
 33113  1  0
 34114  1  0
 37115  1  6
 38116  1  0
 38117  1  0
 38118  1  0
 39119  1  0
 42120  1  6
 43121  1  0
 43122  1  0
 43123  1  0
 44124  1  0
 47125  1  1
 48126  1  0
 48127  1  0
 48128  1  0
 49129  1  0
 54130  1  0
 55131  1  1
 56132  1  0
 56133  1  0
 56134  1  0
 59135  1  0
 60136  1  6
 61137  1  0
 61138  1  0
 61139  1  0
 64140  1  0
 65141  1  6
 66142  1  0
 66143  1  0
 66144  1  0
 69145  1  0
 70146  1  1
 71147  1  0
 71148  1  0
 71149  1  0
 74150  1  0
 75151  1  1
 77152  1  0
 77153  1  0
 79154  1  0
 79155  1  0
 81156  1  0
 81157  1  0
M  END
