
     RDKit          3D

147149  0  0  0  0  0  0  0  0999 V2000
    3.8581    8.2947    0.1412 C   0  0  0  0  0  0  0  0  0  0  0  0
    4.1718    7.3424    1.2571 C   0  0  0  0  0  0  0  0  0  0  0  0
    4.6284    7.7891    2.3374 O   0  0  0  0  0  0  0  0  0  0  0  0
    3.9815    5.9278    1.1169 N   0  0  0  0  0  0  0  0  0  0  0  0
    3.0291    5.3325    0.1686 C   0  0  2  0  0  0  0  0  0  0  0  0
    1.5903    5.4952    0.7047 C   0  0  0  0  0  0  0  0  0  0  0  0
    1.4196    4.8575    2.4148 S   0  0  0  0  0  0  0  0  0  0  0  0
   -0.3767    5.1633    2.5468 C   0  0  0  0  0  0  0  0  0  0  0  0
   -1.1471    4.0949    1.8246 C   0  0  0  0  0  0  0  0  0  0  0  0
   -1.8981    4.4127    0.6809 C   0  0  0  0  0  0  0  0  0  0  0  0
   -2.5983    3.4114   -0.0110 C   0  0  0  0  0  0  0  0  0  0  0  0
   -2.5608    2.0907    0.4607 C   0  0  0  0  0  0  0  0  0  0  0  0
   -1.8304    1.7655    1.6123 C   0  0  0  0  0  0  0  0  0  0  0  0
   -1.1225    2.7695    2.2887 C   0  0  0  0  0  0  0  0  0  0  0  0
   -1.7511    0.3348    2.0642 C   0  0  0  0  0  0  0  0  0  0  0  0
   -0.5251   -0.5663    1.0581 S   0  0  0  0  0  0  0  0  0  0  0  0
   -1.0987   -2.2512    1.5027 C   0  0  0  0  0  0  0  0  0  0  0  0
   -1.8639   -2.9590    0.3672 C   0  0  2  0  0  0  0  0  0  0  0  0
   -0.9655   -3.2652   -0.7451 N   0  0  0  0  0  0  0  0  0  0  0  0
   -0.7951   -4.5947   -1.2348 C   0  0  0  0  0  0  0  0  0  0  0  0
   -1.0232   -4.8380   -2.4523 O   0  0  0  0  0  0  0  0  0  0  0  0
   -0.2774   -5.6822   -0.3364 C   0  0  1  0  0  0  0  0  0  0  0  0
   -1.3201   -6.7893   -0.1636 C   0  0  0  0  0  0  0  0  0  0  0  0
    0.9563   -6.2291   -0.9229 N   0  0  0  0  0  0  0  0  0  0  0  0
    2.1310   -5.4204   -1.0236 C   0  0  0  0  0  0  0  0  0  0  0  0
    2.6302   -5.2156   -2.1631 O   0  0  0  0  0  0  0  0  0  0  0  0
    2.7290   -4.7680    0.2038 C   0  0  1  0  0  0  0  0  0  0  0  0
    2.8881   -5.7826    1.3450 C   0  0  0  0  0  0  0  0  0  0  0  0
    4.0257   -4.1318   -0.0795 N   0  0  0  0  0  0  0  0  0  0  0  0
    5.1971   -4.8961   -0.4096 C   0  0  0  0  0  0  0  0  0  0  0  0
    5.1310   -5.8237   -1.2597 O   0  0  0  0  0  0  0  0  0  0  0  0
    6.5036   -4.6027    0.2782 C   0  0  1  0  0  0  0  0  0  0  0  0
    7.1529   -5.8932    0.7855 C   0  0  0  0  0  0  0  0  0  0  0  0
    7.4113   -3.9081   -0.6424 N   0  0  0  0  0  0  0  0  0  0  0  0
    7.5222   -2.4738   -0.7452 C   0  0  0  0  0  0  0  0  0  0  0  0
    7.9366   -1.9788   -1.8286 O   0  0  0  0  0  0  0  0  0  0  0  0
    7.2411   -1.5661    0.4333 C   0  0  1  0  0  0  0  0  0  0  0  0
    8.2470   -1.7979    1.5683 C   0  0  0  0  0  0  0  0  0  0  0  0
    7.2120   -0.1454    0.0446 N   0  0  0  0  0  0  0  0  0  0  0  0
    8.3918    0.6480   -0.1655 C   0  0  0  0  0  0  0  0  0  0  0  0
    9.4163    0.1306   -0.6856 O   0  0  0  0  0  0  0  0  0  0  0  0
    8.3839    2.1010    0.2347 C   0  0  1  0  0  0  0  0  0  0  0  0
    9.8035    2.6525    0.4664 C   0  0  0  0  0  0  0  0  0  0  0  0
    7.6998    2.9010   -0.7851 N   0  0  0  0  0  0  0  0  0  0  0  0
    6.9363    4.0663   -0.4390 C   0  0  0  0  0  0  0  0  0  0  0  0
    7.2675    4.7513    0.5655 O   0  0  0  0  0  0  0  0  0  0  0  0
    5.6757    4.4260   -1.1803 C   0  0  1  0  0  0  0  0  0  0  0  0
    5.8550    4.3639   -2.6963 C   0  0  0  0  0  0  0  0  0  0  0  0
    4.6094    3.5055   -0.7725 N   0  0  0  0  0  0  0  0  0  0  0  0
    3.3932    3.8794   -0.1076 C   0  0  0  0  0  0  0  0  0  0  0  0
    2.5862    2.9629    0.2133 O   0  0  0  0  0  0  0  0  0  0  0  0
   -3.0350   -2.1386   -0.1371 C   0  0  0  0  0  0  0  0  0  0  0  0
   -2.8068   -1.1278   -0.8562 O   0  0  0  0  0  0  0  0  0  0  0  0
   -4.4065   -2.4637    0.1501 N   0  0  0  0  0  0  0  0  0  0  0  0
   -4.8956   -3.8092    0.5051 C   0  0  2  0  0  0  0  0  0  0  0  0
   -4.6741   -4.7757   -0.6680 C   0  0  0  0  0  0  0  0  0  0  0  0
   -6.3678   -3.8090    0.8692 C   0  0  0  0  0  0  0  0  0  0  0  0
   -6.8833   -4.8579    1.3366 O   0  0  0  0  0  0  0  0  0  0  0  0
   -7.1881   -2.6558    0.6712 N   0  0  0  0  0  0  0  0  0  0  0  0
   -8.4050   -2.7031   -0.1420 C   0  0  2  0  0  0  0  0  0  0  0  0
   -8.1205   -3.3349   -1.5111 C   0  0  0  0  0  0  0  0  0  0  0  0
   -8.9592   -1.3172   -0.3374 C   0  0  0  0  0  0  0  0  0  0  0  0
  -10.1727   -1.0937   -0.0945 O   0  0  0  0  0  0  0  0  0  0  0  0
   -8.1246   -0.2753   -0.8687 N   0  0  0  0  0  0  0  0  0  0  0  0
   -8.6872    0.9136   -1.5152 C   0  0  2  0  0  0  0  0  0  0  0  0
   -9.3571    0.5297   -2.8377 C   0  0  0  0  0  0  0  0  0  0  0  0
   -7.6118    1.9406   -1.7698 C   0  0  0  0  0  0  0  0  0  0  0  0
   -6.6173    1.6529   -2.4860 O   0  0  0  0  0  0  0  0  0  0  0  0
   -7.7308    3.2547   -1.2188 N   0  0  0  0  0  0  0  0  0  0  0  0
   -7.2115    3.6005    0.1122 C   0  0  1  0  0  0  0  0  0  0  0  0
   -7.9082    2.7831    1.1683 C   0  0  0  0  0  0  0  0  0  0  0  0
   -9.2332    3.1299    1.5813 N   0  0  0  0  0  0  0  0  0  0  0  0
   -7.3427    1.7802    1.6842 O   0  0  0  0  0  0  0  0  0  0  0  0
   -5.6831    3.4437    0.1649 C   0  0  0  0  0  0  0  0  0  0  0  0
   -4.8774    4.7063   -0.8842 S   0  0  0  0  0  0  0  0  0  0  0  0
   -3.3640    3.7487   -1.2625 C   0  0  0  0  0  0  0  0  0  0  0  0
    4.1250    9.3370    0.4264 H   0  0  0  0  0  0  0  0  0  0  0  0
    4.4374    8.0119   -0.7652 H   0  0  0  0  0  0  0  0  0  0  0  0
    2.7772    8.2614   -0.0980 H   0  0  0  0  0  0  0  0  0  0  0  0
    4.3790    5.3160    1.8677 H   0  0  0  0  0  0  0  0  0  0  0  0
    3.0791    5.8642   -0.8031 H   0  0  0  0  0  0  0  0  0  0  0  0
    0.8856    4.9631    0.0300 H   0  0  0  0  0  0  0  0  0  0  0  0
    1.3157    6.5671    0.7050 H   0  0  0  0  0  0  0  0  0  0  0  0
   -0.6209    6.1773    2.1607 H   0  0  0  0  0  0  0  0  0  0  0  0
   -0.6602    5.1506    3.6198 H   0  0  0  0  0  0  0  0  0  0  0  0
   -1.9284    5.4307    0.3171 H   0  0  0  0  0  0  0  0  0  0  0  0
   -3.0990    1.3190   -0.0683 H   0  0  0  0  0  0  0  0  0  0  0  0
   -0.5439    2.5218    3.1671 H   0  0  0  0  0  0  0  0  0  0  0  0
   -1.4521    0.2760    3.1328 H   0  0  0  0  0  0  0  0  0  0  0  0
   -2.7540   -0.1317    1.9653 H   0  0  0  0  0  0  0  0  0  0  0  0
   -0.2026   -2.8567    1.7458 H   0  0  0  0  0  0  0  0  0  0  0  0
   -1.7240   -2.2404    2.4194 H   0  0  0  0  0  0  0  0  0  0  0  0
   -2.2304   -3.9080    0.8014 H   0  0  0  0  0  0  0  0  0  0  0  0
   -0.6369   -2.4765   -1.3495 H   0  0  0  0  0  0  0  0  0  0  0  0
   -0.0526   -5.2660    0.6692 H   0  0  0  0  0  0  0  0  0  0  0  0
   -1.5658   -7.2551   -1.1402 H   0  0  0  0  0  0  0  0  0  0  0  0
   -2.2492   -6.3754    0.2840 H   0  0  0  0  0  0  0  0  0  0  0  0
   -0.9278   -7.5705    0.5205 H   0  0  0  0  0  0  0  0  0  0  0  0
    0.8651   -7.0140   -1.6053 H   0  0  0  0  0  0  0  0  0  0  0  0
    2.0221   -3.9797    0.5456 H   0  0  0  0  0  0  0  0  0  0  0  0
    3.5068   -6.6476    1.0155 H   0  0  0  0  0  0  0  0  0  0  0  0
    3.3961   -5.2978    2.2060 H   0  0  0  0  0  0  0  0  0  0  0  0
    1.9020   -6.1521    1.6877 H   0  0  0  0  0  0  0  0  0  0  0  0
    4.1718   -3.1762    0.3099 H   0  0  0  0  0  0  0  0  0  0  0  0
    6.2962   -3.9839    1.1661 H   0  0  0  0  0  0  0  0  0  0  0  0
    6.4479   -6.4399    1.4501 H   0  0  0  0  0  0  0  0  0  0  0  0
    8.0630   -5.6523    1.3712 H   0  0  0  0  0  0  0  0  0  0  0  0
    7.4336   -6.5606   -0.0587 H   0  0  0  0  0  0  0  0  0  0  0  0
    7.8864   -4.4823   -1.3817 H   0  0  0  0  0  0  0  0  0  0  0  0
    6.2375   -1.8101    0.8288 H   0  0  0  0  0  0  0  0  0  0  0  0
    9.2959   -1.6936    1.2108 H   0  0  0  0  0  0  0  0  0  0  0  0
    8.1283   -2.8101    2.0112 H   0  0  0  0  0  0  0  0  0  0  0  0
    8.0795   -1.0475    2.3765 H   0  0  0  0  0  0  0  0  0  0  0  0
    6.2939    0.3496    0.1033 H   0  0  0  0  0  0  0  0  0  0  0  0
    7.8339    2.1772    1.1994 H   0  0  0  0  0  0  0  0  0  0  0  0
   10.3678    1.9787    1.1479 H   0  0  0  0  0  0  0  0  0  0  0  0
    9.7459    3.6592    0.9332 H   0  0  0  0  0  0  0  0  0  0  0  0
   10.3451    2.7421   -0.5005 H   0  0  0  0  0  0  0  0  0  0  0  0
    7.7097    2.5784   -1.7809 H   0  0  0  0  0  0  0  0  0  0  0  0
    5.4219    5.4748   -0.9340 H   0  0  0  0  0  0  0  0  0  0  0  0
    6.7596    4.9405   -3.0188 H   0  0  0  0  0  0  0  0  0  0  0  0
    5.9453    3.3115   -3.0631 H   0  0  0  0  0  0  0  0  0  0  0  0
    4.9605    4.8048   -3.1944 H   0  0  0  0  0  0  0  0  0  0  0  0
    4.7666    2.4855   -0.9467 H   0  0  0  0  0  0  0  0  0  0  0  0
   -5.0850   -1.6986   -0.0437 H   0  0  0  0  0  0  0  0  0  0  0  0
   -4.3449   -4.1734    1.3985 H   0  0  0  0  0  0  0  0  0  0  0  0
   -3.6206   -4.7575   -1.0048 H   0  0  0  0  0  0  0  0  0  0  0  0
   -4.9217   -5.8147   -0.3647 H   0  0  0  0  0  0  0  0  0  0  0  0
   -5.3076   -4.4954   -1.5316 H   0  0  0  0  0  0  0  0  0  0  0  0
   -7.1007   -1.9025    1.3953 H   0  0  0  0  0  0  0  0  0  0  0  0
   -9.1573   -3.3230    0.3861 H   0  0  0  0  0  0  0  0  0  0  0  0
   -7.2751   -2.8089   -2.0071 H   0  0  0  0  0  0  0  0  0  0  0  0
   -7.8655   -4.4077   -1.3902 H   0  0  0  0  0  0  0  0  0  0  0  0
   -9.0218   -3.2663   -2.1610 H   0  0  0  0  0  0  0  0  0  0  0  0
   -7.0840   -0.3711   -0.7764 H   0  0  0  0  0  0  0  0  0  0  0  0
   -9.4572    1.3652   -0.8505 H   0  0  0  0  0  0  0  0  0  0  0  0
   -9.7346    1.4352   -3.3557 H   0  0  0  0  0  0  0  0  0  0  0  0
   -8.6381   -0.0028   -3.5008 H   0  0  0  0  0  0  0  0  0  0  0  0
  -10.2203   -0.1418   -2.6475 H   0  0  0  0  0  0  0  0  0  0  0  0
   -8.2915    3.9608   -1.7450 H   0  0  0  0  0  0  0  0  0  0  0  0
   -7.4477    4.6693    0.3132 H   0  0  0  0  0  0  0  0  0  0  0  0
   -9.6289    2.7013    2.4451 H   0  0  0  0  0  0  0  0  0  0  0  0
   -9.7383    3.9278    1.1277 H   0  0  0  0  0  0  0  0  0  0  0  0
   -5.3309    3.6018    1.2116 H   0  0  0  0  0  0  0  0  0  0  0  0
   -5.3993    2.4187   -0.1545 H   0  0  0  0  0  0  0  0  0  0  0  0
   -3.6350    2.8328   -1.8328 H   0  0  0  0  0  0  0  0  0  0  0  0
   -2.7228    4.3664   -1.9279 H   0  0  0  0  0  0  0  0  0  0  0  0
  1  2  1  0
  2  3  2  0
  2  4  1  0
  4  5  1  0
  5  6  1  0
  6  7  1  0
  7  8  1  0
  8  9  1  0
  9 10  2  0
 10 11  1  0
 11 12  2  0
 12 13  1  0
 13 14  2  0
 13 15  1  0
 15 16  1  0
 16 17  1  0
 17 18  1  0
 18 19  1  0
 19 20  1  0
 20 21  2  0
 20 22  1  0
 22 23  1  0
 22 24  1  0
 24 25  1  0
 25 26  2  0
 25 27  1  0
 27 28  1  0
 27 29  1  0
 29 30  1  0
 30 31  2  0
 30 32  1  0
 32 33  1  0
 32 34  1  0
 34 35  1  0
 35 36  2  0
 35 37  1  0
 37 38  1  0
 37 39  1  0
 39 40  1  0
 40 41  2  0
 40 42  1  0
 42 43  1  0
 42 44  1  0
 44 45  1  0
 45 46  2  0
 45 47  1  0
 47 48  1  0
 47 49  1  0
 49 50  1  0
 50 51  2  0
 18 52  1  0
 52 53  2  0
 52 54  1  0
 54 55  1  0
 55 56  1  0
 55 57  1  0
 57 58  2  0
 57 59  1  0
 59 60  1  0
 60 61  1  0
 60 62  1  0
 62 63  2  0
 62 64  1  0
 64 65  1  0
 65 66  1  0
 65 67  1  0
 67 68  2  0
 67 69  1  0
 69 70  1  0
 70 71  1  0
 71 72  1  0
 71 73  2  0
 70 74  1  0
 74 75  1  0
 75 76  1  0
 50  5  1  0
 14  9  1  0
 76 11  1  0
  1 77  1  0
  1 78  1  0
  1 79  1  0
  4 80  1  0
  5 81  1  6
  6 82  1  0
  6 83  1  0
  8 84  1  0
  8 85  1  0
 10 86  1  0
 12 87  1  0
 14 88  1  0
 15 89  1  0
 15 90  1  0
 17 91  1  0
 17 92  1  0
 18 93  1  1
 19 94  1  0
 22 95  1  1
 23 96  1  0
 23 97  1  0
 23 98  1  0
 24 99  1  0
 27100  1  1
 28101  1  0
 28102  1  0
 28103  1  0
 29104  1  0
 32105  1  1
 33106  1  0
 33107  1  0
 33108  1  0
 34109  1  0
 37110  1  1
 38111  1  0
 38112  1  0
 38113  1  0
 39114  1  0
 42115  1  1
 43116  1  0
 43117  1  0
 43118  1  0
 44119  1  0
 47120  1  6
 48121  1  0
 48122  1  0
 48123  1  0
 49124  1  0
 54125  1  0
 55126  1  1
 56127  1  0
 56128  1  0
 56129  1  0
 59130  1  0
 60131  1  1
 61132  1  0
 61133  1  0
 61134  1  0
 64135  1  0
 65136  1  1
 66137  1  0
 66138  1  0
 66139  1  0
 69140  1  0
 70141  1  1
 72142  1  0
 72143  1  0
 74144  1  0
 74145  1  0
 76146  1  0
 76147  1  0
M  END
