
     RDKit          3D

157159  0  0  0  0  0  0  0  0999 V2000
   -6.6014    8.3829    2.8650 C   0  0  0  0  0  0  0  0  0  0  0  0
   -5.7425    7.7116    1.8408 C   0  0  0  0  0  0  0  0  0  0  0  0
   -5.1590    8.4229    0.9793 O   0  0  0  0  0  0  0  0  0  0  0  0
   -5.6013    6.2816    1.8292 N   0  0  0  0  0  0  0  0  0  0  0  0
   -4.8041    5.5230    0.8582 C   0  0  2  0  0  0  0  0  0  0  0  0
   -3.3025    5.8465    0.9909 C   0  0  0  0  0  0  0  0  0  0  0  0
   -2.3312    4.7596   -0.1162 S   0  0  0  0  0  0  0  0  0  0  0  0
   -0.7796    4.7804    0.8579 C   0  0  0  0  0  0  0  0  0  0  0  0
    0.1448    3.7152    0.3324 C   0  0  0  0  0  0  0  0  0  0  0  0
    1.4123    4.0419   -0.1812 C   0  0  0  0  0  0  0  0  0  0  0  0
    2.2392    3.0416   -0.7245 C   0  0  0  0  0  0  0  0  0  0  0  0
    1.7658    1.7184   -0.7726 C   0  0  0  0  0  0  0  0  0  0  0  0
    0.5117    1.3843   -0.2552 C   0  0  0  0  0  0  0  0  0  0  0  0
   -0.2811    2.3787    0.3246 C   0  0  0  0  0  0  0  0  0  0  0  0
    0.0065   -0.0273   -0.3689 C   0  0  0  0  0  0  0  0  0  0  0  0
    0.9019   -1.1150    0.8050 S   0  0  0  0  0  0  0  0  0  0  0  0
    1.4755   -2.3457   -0.4301 C   0  0  0  0  0  0  0  0  0  0  0  0
    1.7123   -3.7343    0.1822 C   0  0  2  0  0  0  0  0  0  0  0  0
    0.5310   -4.2252    0.9008 N   0  0  0  0  0  0  0  0  0  0  0  0
   -0.7465   -4.3638    0.2614 C   0  0  0  0  0  0  0  0  0  0  0  0
   -1.6392   -3.5099    0.4989 O   0  0  0  0  0  0  0  0  0  0  0  0
   -1.1135   -5.5916   -0.5349 C   0  0  1  0  0  0  0  0  0  0  0  0
   -0.0121   -6.0451   -1.4922 C   0  0  0  0  0  0  0  0  0  0  0  0
   -1.4436   -6.6841    0.3891 N   0  0  0  0  0  0  0  0  0  0  0  0
   -2.7379   -7.2968    0.5509 C   0  0  0  0  0  0  0  0  0  0  0  0
   -2.9035   -8.0962    1.5120 O   0  0  0  0  0  0  0  0  0  0  0  0
   -3.8694   -7.0895   -0.4337 C   0  0  1  0  0  0  0  0  0  0  0  0
   -3.6396   -7.9376   -1.6858 C   0  0  0  0  0  0  0  0  0  0  0  0
   -5.1585   -7.4592    0.1724 N   0  0  0  0  0  0  0  0  0  0  0  0
   -6.2903   -6.5863    0.3368 C   0  0  0  0  0  0  0  0  0  0  0  0
   -7.3275   -7.0448    0.8865 O   0  0  0  0  0  0  0  0  0  0  0  0
   -6.3028   -5.1559   -0.1668 C   0  0  1  0  0  0  0  0  0  0  0  0
   -6.4224   -5.1126   -1.6942 C   0  0  0  0  0  0  0  0  0  0  0  0
   -7.4365   -4.4203    0.4005 N   0  0  0  0  0  0  0  0  0  0  0  0
   -7.2589   -3.1707    1.0742 C   0  0  0  0  0  0  0  0  0  0  0  0
   -6.3989   -3.0604    1.9933 O   0  0  0  0  0  0  0  0  0  0  0  0
   -8.0579   -1.9726    0.6439 C   0  0  1  0  0  0  0  0  0  0  0  0
   -8.9442   -1.4554    1.7883 C   0  0  0  0  0  0  0  0  0  0  0  0
   -7.1542   -0.9568    0.0831 N   0  0  0  0  0  0  0  0  0  0  0  0
   -7.0155    0.3882    0.5613 C   0  0  0  0  0  0  0  0  0  0  0  0
   -6.7325    0.5943    1.7739 O   0  0  0  0  0  0  0  0  0  0  0  0
   -7.1761    1.5746   -0.3647 C   0  0  1  0  0  0  0  0  0  0  0  0
   -7.6006    1.1582   -1.7798 C   0  0  0  0  0  0  0  0  0  0  0  0
   -8.1768    2.4907    0.1978 N   0  0  0  0  0  0  0  0  0  0  0  0
   -7.9801    3.9102    0.2608 C   0  0  0  0  0  0  0  0  0  0  0  0
   -8.1769    4.5044    1.3546 O   0  0  0  0  0  0  0  0  0  0  0  0
   -7.6146    4.6993   -0.9715 C   0  0  1  0  0  0  0  0  0  0  0  0
   -8.2274    6.1101   -0.9622 C   0  0  0  0  0  0  0  0  0  0  0  0
   -6.1618    4.7400   -1.1585 N   0  0  0  0  0  0  0  0  0  0  0  0
   -5.3217    5.7245   -0.5457 C   0  0  0  0  0  0  0  0  0  0  0  0
   -4.9584    6.7264   -1.2241 O   0  0  0  0  0  0  0  0  0  0  0  0
    2.9339   -3.7897    1.0616 C   0  0  0  0  0  0  0  0  0  0  0  0
    3.1029   -2.9420    1.9744 O   0  0  0  0  0  0  0  0  0  0  0  0
    3.8978   -4.8305    0.8551 N   0  0  0  0  0  0  0  0  0  0  0  0
    5.3199   -4.5677    0.6078 C   0  0  2  0  0  0  0  0  0  0  0  0
    6.0733   -4.3641    1.9230 C   0  0  0  0  0  0  0  0  0  0  0  0
    5.4930   -3.4891   -0.4451 C   0  0  0  0  0  0  0  0  0  0  0  0
    4.9866   -3.7009   -1.5811 O   0  0  0  0  0  0  0  0  0  0  0  0
    6.2636   -2.2906   -0.2588 N   0  0  0  0  0  0  0  0  0  0  0  0
    6.0581   -1.3477    0.8464 C   0  0  2  0  0  0  0  0  0  0  0  0
    5.6572    0.0328    0.3269 C   0  0  0  0  0  0  0  0  0  0  0  0
    7.2567   -1.2823    1.7832 C   0  0  0  0  0  0  0  0  0  0  0  0
    7.0241   -1.3836    3.0202 O   0  0  0  0  0  0  0  0  0  0  0  0
    8.6329   -1.1075    1.3770 N   0  0  0  0  0  0  0  0  0  0  0  0
    9.1484   -0.9650    0.0099 C   0  0  2  0  0  0  0  0  0  0  0  0
    9.5465   -2.3439   -0.5393 C   0  0  0  0  0  0  0  0  0  0  0  0
   10.3623   -0.0538    0.0093 C   0  0  0  0  0  0  0  0  0  0  0  0
   11.4346   -0.4599    0.5368 O   0  0  0  0  0  0  0  0  0  0  0  0
   10.3548    1.2521   -0.6028 N   0  0  0  0  0  0  0  0  0  0  0  0
    9.3082    2.2729   -0.4104 C   0  0  2  0  0  0  0  0  0  0  0  0
    8.7781    2.2329    1.0296 C   0  0  0  0  0  0  0  0  0  0  0  0
    8.2197    2.1336   -1.4490 C   0  0  0  0  0  0  0  0  0  0  0  0
    8.3396    1.2740   -2.3674 O   0  0  0  0  0  0  0  0  0  0  0  0
    7.0292    2.9356   -1.4244 N   0  0  0  0  0  0  0  0  0  0  0  0
    7.0488    4.3961   -1.5764 C   0  0  2  0  0  0  0  0  0  0  0  0
    7.4302    5.0919   -0.2894 C   0  0  0  0  0  0  0  0  0  0  0  0
    8.6299    5.8647   -0.2137 N   0  0  0  0  0  0  0  0  0  0  0  0
    6.7005    4.9846    0.7338 O   0  0  0  0  0  0  0  0  0  0  0  0
    5.7106    4.9315   -2.1546 C   0  0  0  0  0  0  0  0  0  0  0  0
    4.2899    4.9860   -0.9776 S   0  0  0  0  0  0  0  0  0  0  0  0
    3.6286    3.3016   -1.2712 C   0  0  0  0  0  0  0  0  0  0  0  0
   -7.0517    7.6413    3.5571 H   0  0  0  0  0  0  0  0  0  0  0  0
   -7.4195    8.9356    2.3579 H   0  0  0  0  0  0  0  0  0  0  0  0
   -5.9912    9.0960    3.4567 H   0  0  0  0  0  0  0  0  0  0  0  0
   -6.0882    5.7355    2.5746 H   0  0  0  0  0  0  0  0  0  0  0  0
   -4.9173    4.4413    1.1032 H   0  0  0  0  0  0  0  0  0  0  0  0
   -3.0036    5.6985    2.0533 H   0  0  0  0  0  0  0  0  0  0  0  0
   -3.0933    6.9045    0.7204 H   0  0  0  0  0  0  0  0  0  0  0  0
   -0.9864    4.5648    1.9283 H   0  0  0  0  0  0  0  0  0  0  0  0
   -0.3207    5.7912    0.7810 H   0  0  0  0  0  0  0  0  0  0  0  0
    1.7327    5.0731   -0.1580 H   0  0  0  0  0  0  0  0  0  0  0  0
    2.3979    0.9349   -1.1849 H   0  0  0  0  0  0  0  0  0  0  0  0
   -1.2561    2.1236    0.7285 H   0  0  0  0  0  0  0  0  0  0  0  0
    0.1154   -0.3516   -1.4254 H   0  0  0  0  0  0  0  0  0  0  0  0
   -1.0784   -0.0817   -0.1234 H   0  0  0  0  0  0  0  0  0  0  0  0
    0.7162   -2.4661   -1.2303 H   0  0  0  0  0  0  0  0  0  0  0  0
    2.4090   -1.9744   -0.9022 H   0  0  0  0  0  0  0  0  0  0  0  0
    1.9171   -4.4127   -0.6672 H   0  0  0  0  0  0  0  0  0  0  0  0
    0.5244   -4.1726    1.9450 H   0  0  0  0  0  0  0  0  0  0  0  0
   -1.9685   -5.3213   -1.1797 H   0  0  0  0  0  0  0  0  0  0  0  0
    0.8686   -6.4324   -0.9346 H   0  0  0  0  0  0  0  0  0  0  0  0
   -0.3911   -6.8636   -2.1412 H   0  0  0  0  0  0  0  0  0  0  0  0
    0.2917   -5.2016   -2.1490 H   0  0  0  0  0  0  0  0  0  0  0  0
   -0.6915   -6.9910    1.0472 H   0  0  0  0  0  0  0  0  0  0  0  0
   -3.8881   -6.0305   -0.7243 H   0  0  0  0  0  0  0  0  0  0  0  0
   -3.5704   -9.0153   -1.4205 H   0  0  0  0  0  0  0  0  0  0  0  0
   -2.7008   -7.6346   -2.1962 H   0  0  0  0  0  0  0  0  0  0  0  0
   -4.4821   -7.7999   -2.3983 H   0  0  0  0  0  0  0  0  0  0  0  0
   -5.2752   -8.4499    0.4865 H   0  0  0  0  0  0  0  0  0  0  0  0
   -5.3609   -4.6530    0.1367 H   0  0  0  0  0  0  0  0  0  0  0  0
   -7.3290   -5.6597   -2.0274 H   0  0  0  0  0  0  0  0  0  0  0  0
   -5.5371   -5.5594   -2.1889 H   0  0  0  0  0  0  0  0  0  0  0  0
   -6.5084   -4.0540   -2.0301 H   0  0  0  0  0  0  0  0  0  0  0  0
   -8.4057   -4.6836    0.1041 H   0  0  0  0  0  0  0  0  0  0  0  0
   -8.7454   -2.2837   -0.1778 H   0  0  0  0  0  0  0  0  0  0  0  0
   -9.6731   -2.2431    2.0826 H   0  0  0  0  0  0  0  0  0  0  0  0
   -9.5171   -0.5619    1.4524 H   0  0  0  0  0  0  0  0  0  0  0  0
   -8.3396   -1.1932    2.6812 H   0  0  0  0  0  0  0  0  0  0  0  0
   -6.5858   -1.2369   -0.7488 H   0  0  0  0  0  0  0  0  0  0  0  0
   -6.1923    2.0853   -0.4310 H   0  0  0  0  0  0  0  0  0  0  0  0
   -8.5607    0.5915   -1.7509 H   0  0  0  0  0  0  0  0  0  0  0  0
   -7.7400    2.0456   -2.4298 H   0  0  0  0  0  0  0  0  0  0  0  0
   -6.8144    0.5284   -2.2483 H   0  0  0  0  0  0  0  0  0  0  0  0
   -8.9508    2.0915    0.7782 H   0  0  0  0  0  0  0  0  0  0  0  0
   -8.0633    4.1875   -1.8463 H   0  0  0  0  0  0  0  0  0  0  0  0
   -7.9605    6.6430   -1.8996 H   0  0  0  0  0  0  0  0  0  0  0  0
   -7.8648    6.7022   -0.0960 H   0  0  0  0  0  0  0  0  0  0  0  0
   -9.3338    6.0383   -0.9037 H   0  0  0  0  0  0  0  0  0  0  0  0
   -5.7709    4.2436   -1.9919 H   0  0  0  0  0  0  0  0  0  0  0  0
    3.5355   -5.7839    0.6272 H   0  0  0  0  0  0  0  0  0  0  0  0
    5.7584   -5.4878    0.1594 H   0  0  0  0  0  0  0  0  0  0  0  0
    5.5964   -3.5966    2.5601 H   0  0  0  0  0  0  0  0  0  0  0  0
    7.1347   -4.0986    1.7264 H   0  0  0  0  0  0  0  0  0  0  0  0
    6.0679   -5.3137    2.5002 H   0  0  0  0  0  0  0  0  0  0  0  0
    6.6670   -1.8963   -1.1378 H   0  0  0  0  0  0  0  0  0  0  0  0
    5.1842   -1.6781    1.4419 H   0  0  0  0  0  0  0  0  0  0  0  0
    6.3653    0.3969   -0.4406 H   0  0  0  0  0  0  0  0  0  0  0  0
    4.6496   -0.0223   -0.1449 H   0  0  0  0  0  0  0  0  0  0  0  0
    5.6111    0.7703    1.1594 H   0  0  0  0  0  0  0  0  0  0  0  0
    9.3448   -1.2111    2.1352 H   0  0  0  0  0  0  0  0  0  0  0  0
    8.3773   -0.5340   -0.6451 H   0  0  0  0  0  0  0  0  0  0  0  0
    8.6900   -3.0436   -0.5226 H   0  0  0  0  0  0  0  0  0  0  0  0
    9.9013   -2.2482   -1.5861 H   0  0  0  0  0  0  0  0  0  0  0  0
   10.3515   -2.7936    0.0772 H   0  0  0  0  0  0  0  0  0  0  0  0
   11.2716    1.5956   -0.9729 H   0  0  0  0  0  0  0  0  0  0  0  0
    9.7755    3.2692   -0.5638 H   0  0  0  0  0  0  0  0  0  0  0  0
    8.2736    3.1767    1.2956 H   0  0  0  0  0  0  0  0  0  0  0  0
    9.6211    2.1088    1.7452 H   0  0  0  0  0  0  0  0  0  0  0  0
    8.0545    1.4097    1.1714 H   0  0  0  0  0  0  0  0  0  0  0  0
    6.1834    2.4350   -1.7768 H   0  0  0  0  0  0  0  0  0  0  0  0
    7.8276    4.6326   -2.3343 H   0  0  0  0  0  0  0  0  0  0  0  0
    8.9597    6.2352    0.7085 H   0  0  0  0  0  0  0  0  0  0  0  0
    9.2517    5.9727   -1.0445 H   0  0  0  0  0  0  0  0  0  0  0  0
    5.4405    4.3632   -3.0704 H   0  0  0  0  0  0  0  0  0  0  0  0
    5.8849    5.9769   -2.4912 H   0  0  0  0  0  0  0  0  0  0  0  0
    3.6161    3.0846   -2.3619 H   0  0  0  0  0  0  0  0  0  0  0  0
    4.3012    2.5866   -0.7605 H   0  0  0  0  0  0  0  0  0  0  0  0
  1  2  1  0
  2  3  2  0
  2  4  1  0
  4  5  1  0
  5  6  1  0
  6  7  1  0
  7  8  1  0
  8  9  1  0
  9 10  2  0
 10 11  1  0
 11 12  2  0
 12 13  1  0
 13 14  2  0
 13 15  1  0
 15 16  1  0
 16 17  1  0
 17 18  1  0
 18 19  1  0
 19 20  1  0
 20 21  2  0
 20 22  1  0
 22 23  1  0
 22 24  1  0
 24 25  1  0
 25 26  2  0
 25 27  1  0
 27 28  1  0
 27 29  1  0
 29 30  1  0
 30 31  2  0
 30 32  1  0
 32 33  1  0
 32 34  1  0
 34 35  1  0
 35 36  2  0
 35 37  1  0
 37 38  1  0
 37 39  1  0
 39 40  1  0
 40 41  2  0
 40 42  1  0
 42 43  1  0
 42 44  1  0
 44 45  1  0
 45 46  2  0
 45 47  1  0
 47 48  1  0
 47 49  1  0
 49 50  1  0
 50 51  2  0
 18 52  1  0
 52 53  2  0
 52 54  1  0
 54 55  1  0
 55 56  1  0
 55 57  1  0
 57 58  2  0
 57 59  1  0
 59 60  1  0
 60 61  1  0
 60 62  1  0
 62 63  2  0
 62 64  1  0
 64 65  1  0
 65 66  1  0
 65 67  1  0
 67 68  2  0
 67 69  1  0
 69 70  1  0
 70 71  1  0
 70 72  1  0
 72 73  2  0
 72 74  1  0
 74 75  1  0
 75 76  1  0
 76 77  1  0
 76 78  2  0
 75 79  1  0
 79 80  1  0
 80 81  1  0
 50  5  1  0
 14  9  1  0
 81 11  1  0
  1 82  1  0
  1 83  1  0
  1 84  1  0
  4 85  1  0
  5 86  1  1
  6 87  1  0
  6 88  1  0
  8 89  1  0
  8 90  1  0
 10 91  1  0
 12 92  1  0
 14 93  1  0
 15 94  1  0
 15 95  1  0
 17 96  1  0
 17 97  1  0
 18 98  1  6
 19 99  1  0
 22100  1  6
 23101  1  0
 23102  1  0
 23103  1  0
 24104  1  0
 27105  1  6
 28106  1  0
 28107  1  0
 28108  1  0
 29109  1  0
 32110  1  6
 33111  1  0
 33112  1  0
 33113  1  0
 34114  1  0
 37115  1  6
 38116  1  0
 38117  1  0
 38118  1  0
 39119  1  0
 42120  1  6
 43121  1  0
 43122  1  0
 43123  1  0
 44124  1  0
 47125  1  6
 48126  1  0
 48127  1  0
 48128  1  0
 49129  1  0
 54130  1  0
 55131  1  6
 56132  1  0
 56133  1  0
 56134  1  0
 59135  1  0
 60136  1  1
 61137  1  0
 61138  1  0
 61139  1  0
 64140  1  0
 65141  1  6
 66142  1  0
 66143  1  0
 66144  1  0
 69145  1  0
 70146  1  6
 71147  1  0
 71148  1  0
 71149  1  0
 74150  1  0
 75151  1  6
 77152  1  0
 77153  1  0
 79154  1  0
 79155  1  0
 81156  1  0
 81157  1  0
M  END
