
     RDKit          3D

177179  0  0  0  0  0  0  0  0999 V2000
   -4.8521    8.9225    1.1795 C   0  0  0  0  0  0  0  0  0  0  0  0
   -4.8339    7.5383    0.6257 C   0  0  0  0  0  0  0  0  0  0  0  0
   -4.1086    7.2854   -0.3738 O   0  0  0  0  0  0  0  0  0  0  0  0
   -5.6374    6.5182    1.2399 N   0  0  0  0  0  0  0  0  0  0  0  0
   -5.8144    5.1560    0.7230 C   0  0  2  0  0  0  0  0  0  0  0  0
   -4.4744    4.4065    0.6362 C   0  0  0  0  0  0  0  0  0  0  0  0
   -4.7658    2.6178    0.3521 S   0  0  0  0  0  0  0  0  0  0  0  0
   -3.1895    2.0194    1.0579 C   0  0  0  0  0  0  0  0  0  0  0  0
   -2.0679    2.2313    0.0769 C   0  0  0  0  0  0  0  0  0  0  0  0
   -1.2574    3.3716    0.1643 C   0  0  0  0  0  0  0  0  0  0  0  0
   -0.2264    3.5921   -0.7620 C   0  0  0  0  0  0  0  0  0  0  0  0
   -0.0203    2.6538   -1.7920 C   0  0  0  0  0  0  0  0  0  0  0  0
   -0.7894    1.4777   -1.8507 C   0  0  0  0  0  0  0  0  0  0  0  0
   -1.8229    1.2835   -0.9238 C   0  0  0  0  0  0  0  0  0  0  0  0
   -0.4519    0.4016   -2.8460 C   0  0  0  0  0  0  0  0  0  0  0  0
    1.1955   -0.2931   -2.4579 S   0  0  0  0  0  0  0  0  0  0  0  0
    0.8008   -2.0595   -2.7989 C   0  0  0  0  0  0  0  0  0  0  0  0
    0.1850   -2.8542   -1.6096 C   0  0  2  0  0  0  0  0  0  0  0  0
   -1.1353   -3.3806   -1.9758 N   0  0  0  0  0  0  0  0  0  0  0  0
   -1.4678   -4.7752   -1.8717 C   0  0  0  0  0  0  0  0  0  0  0  0
   -1.7678   -5.4112   -2.9162 O   0  0  0  0  0  0  0  0  0  0  0  0
   -1.5404   -5.4810   -0.5372 C   0  0  1  0  0  0  0  0  0  0  0  0
   -0.1982   -6.1173   -0.1590 C   0  0  0  0  0  0  0  0  0  0  0  0
   -1.9964   -4.5607    0.5123 N   0  0  0  0  0  0  0  0  0  0  0  0
   -3.3305   -4.0299    0.5943 C   0  0  0  0  0  0  0  0  0  0  0  0
   -3.5486   -3.0698    1.3816 O   0  0  0  0  0  0  0  0  0  0  0  0
   -4.4897   -4.6532   -0.1520 C   0  0  1  0  0  0  0  0  0  0  0  0
   -5.1759   -5.7271    0.7057 C   0  0  0  0  0  0  0  0  0  0  0  0
   -5.4458   -3.6358   -0.6116 N   0  0  0  0  0  0  0  0  0  0  0  0
   -6.5246   -3.1318    0.1956 C   0  0  0  0  0  0  0  0  0  0  0  0
   -6.2992   -2.7547    1.3792 O   0  0  0  0  0  0  0  0  0  0  0  0
   -7.9254   -2.9905   -0.3534 C   0  0  1  0  0  0  0  0  0  0  0  0
   -8.1335   -3.7394   -1.6775 C   0  0  0  0  0  0  0  0  0  0  0  0
   -8.8863   -3.4899    0.6320 N   0  0  0  0  0  0  0  0  0  0  0  0
   -9.8843   -2.7003    1.3038 C   0  0  0  0  0  0  0  0  0  0  0  0
  -10.6566   -3.2881    2.1114 O   0  0  0  0  0  0  0  0  0  0  0  0
   -9.9916   -1.1947    1.1297 C   0  0  1  0  0  0  0  0  0  0  0  0
  -11.3107   -0.6556    1.7087 C   0  0  0  0  0  0  0  0  0  0  0  0
   -8.8542   -0.5415    1.7895 N   0  0  0  0  0  0  0  0  0  0  0  0
   -8.6171    0.8747    1.7380 C   0  0  0  0  0  0  0  0  0  0  0  0
   -8.5430    1.5127    2.8241 O   0  0  0  0  0  0  0  0  0  0  0  0
   -8.3956    1.6332    0.4479 C   0  0  1  0  0  0  0  0  0  0  0  0
   -7.6466    0.8176   -0.6101 C   0  0  0  0  0  0  0  0  0  0  0  0
   -9.6665    2.1156   -0.1031 N   0  0  0  0  0  0  0  0  0  0  0  0
   -9.9904    3.4837   -0.4356 C   0  0  0  0  0  0  0  0  0  0  0  0
  -11.1275    3.7256   -0.9201 O   0  0  0  0  0  0  0  0  0  0  0  0
   -9.0490    4.6501   -0.2163 C   0  0  1  0  0  0  0  0  0  0  0  0
   -9.0249    5.0255    1.2724 C   0  0  0  0  0  0  0  0  0  0  0  0
   -7.7265    4.3623   -0.7961 N   0  0  0  0  0  0  0  0  0  0  0  0
   -6.5572    5.1684   -0.5965 C   0  0  0  0  0  0  0  0  0  0  0  0
   -6.0780    5.7940   -1.5804 O   0  0  0  0  0  0  0  0  0  0  0  0
    0.0948   -2.0715   -0.3166 C   0  0  0  0  0  0  0  0  0  0  0  0
   -1.0221   -1.6256    0.0600 O   0  0  0  0  0  0  0  0  0  0  0  0
    1.2639   -1.7400    0.4490 N   0  0  0  0  0  0  0  0  0  0  0  0
    2.2655   -2.7290    0.8591 C   0  0  2  0  0  0  0  0  0  0  0  0
    1.8460   -3.3597    2.1894 C   0  0  0  0  0  0  0  0  0  0  0  0
    3.6181   -2.0641    1.0089 C   0  0  0  0  0  0  0  0  0  0  0  0
    3.7063   -1.0534    1.7605 O   0  0  0  0  0  0  0  0  0  0  0  0
    4.8124   -2.5412    0.3591 N   0  0  0  0  0  0  0  0  0  0  0  0
    4.8825   -3.7037   -0.5428 C   0  0  2  0  0  0  0  0  0  0  0  0
    4.8432   -5.0062    0.2671 C   0  0  0  0  0  0  0  0  0  0  0  0
    6.1312   -3.6934   -1.3979 C   0  0  0  0  0  0  0  0  0  0  0  0
    6.1328   -4.3338   -2.4839 O   0  0  0  0  0  0  0  0  0  0  0  0
    7.3222   -3.0108   -0.9851 N   0  0  0  0  0  0  0  0  0  0  0  0
    8.5976   -3.6620   -0.6544 C   0  0  2  0  0  0  0  0  0  0  0  0
    8.5178   -5.2008   -0.6561 C   0  0  0  0  0  0  0  0  0  0  0  0
    9.0403   -3.1733    0.7079 C   0  0  0  0  0  0  0  0  0  0  0  0
    8.3345   -3.4802    1.7075 O   0  0  0  0  0  0  0  0  0  0  0  0
   10.2064   -2.3515    0.9318 N   0  0  0  0  0  0  0  0  0  0  0  0
   11.1362   -1.8797   -0.1042 C   0  0  2  0  0  0  0  0  0  0  0  0
   12.3424   -2.8268   -0.1636 C   0  0  0  0  0  0  0  0  0  0  0  0
   11.5859   -0.4502    0.1344 C   0  0  0  0  0  0  0  0  0  0  0  0
   12.3673    0.0781   -0.7060 O   0  0  0  0  0  0  0  0  0  0  0  0
   11.1163    0.3410    1.2446 N   0  0  0  0  0  0  0  0  0  0  0  0
   11.2668    1.7988    1.2606 C   0  0  2  0  0  0  0  0  0  0  0  0
   11.1670    2.3460    2.6906 C   0  0  0  0  0  0  0  0  0  0  0  0
   10.2193    2.4210    0.3749 C   0  0  0  0  0  0  0  0  0  0  0  0
   10.5778    3.1291   -0.6015 O   0  0  0  0  0  0  0  0  0  0  0  0
    8.8201    2.2325    0.6527 N   0  0  0  0  0  0  0  0  0  0  0  0
    7.7667    2.8971   -0.1267 C   0  0  2  0  0  0  0  0  0  0  0  0
    7.6528    4.3604    0.3273 C   0  0  0  0  0  0  0  0  0  0  0  0
    6.4734    2.1142    0.0055 C   0  0  0  0  0  0  0  0  0  0  0  0
    6.5075    0.8630   -0.1320 O   0  0  0  0  0  0  0  0  0  0  0  0
    5.2066    2.7411    0.2583 N   0  0  0  0  0  0  0  0  0  0  0  0
    4.5097    3.5973   -0.7138 C   0  0  1  0  0  0  0  0  0  0  0  0
    4.7231    3.0879   -2.1206 C   0  0  0  0  0  0  0  0  0  0  0  0
    5.3552    3.9153   -3.0983 N   0  0  0  0  0  0  0  0  0  0  0  0
    4.3532    1.9227   -2.4334 O   0  0  0  0  0  0  0  0  0  0  0  0
    3.0094    3.6832   -0.3845 C   0  0  0  0  0  0  0  0  0  0  0  0
    2.1795    4.8733   -1.5053 S   0  0  0  0  0  0  0  0  0  0  0  0
    0.5595    4.8807   -0.6560 C   0  0  0  0  0  0  0  0  0  0  0  0
   -4.5231    8.9035    2.2425 H   0  0  0  0  0  0  0  0  0  0  0  0
   -4.1705    9.5893    0.6049 H   0  0  0  0  0  0  0  0  0  0  0  0
   -5.8851    9.3318    1.1241 H   0  0  0  0  0  0  0  0  0  0  0  0
   -6.1410    6.7661    2.1217 H   0  0  0  0  0  0  0  0  0  0  0  0
   -6.4191    4.5941    1.4646 H   0  0  0  0  0  0  0  0  0  0  0  0
   -3.8404    4.7998   -0.1826 H   0  0  0  0  0  0  0  0  0  0  0  0
   -3.9463    4.5500    1.6008 H   0  0  0  0  0  0  0  0  0  0  0  0
   -2.9736    2.5193    2.0268 H   0  0  0  0  0  0  0  0  0  0  0  0
   -3.2940    0.9325    1.2721 H   0  0  0  0  0  0  0  0  0  0  0  0
   -1.4457    4.1025    0.9404 H   0  0  0  0  0  0  0  0  0  0  0  0
    0.7403    2.8170   -2.5417 H   0  0  0  0  0  0  0  0  0  0  0  0
   -2.4408    0.3956   -0.9824 H   0  0  0  0  0  0  0  0  0  0  0  0
   -0.4219    0.8310   -3.8682 H   0  0  0  0  0  0  0  0  0  0  0  0
   -1.2314   -0.3857   -2.8397 H   0  0  0  0  0  0  0  0  0  0  0  0
    0.1587   -2.1209   -3.7037 H   0  0  0  0  0  0  0  0  0  0  0  0
    1.7609   -2.5371   -3.0869 H   0  0  0  0  0  0  0  0  0  0  0  0
    0.8522   -3.7223   -1.4499 H   0  0  0  0  0  0  0  0  0  0  0  0
   -1.8077   -2.7591   -2.4790 H   0  0  0  0  0  0  0  0  0  0  0  0
   -2.2581   -6.3237   -0.6108 H   0  0  0  0  0  0  0  0  0  0  0  0
    0.5897   -5.3556    0.0034 H   0  0  0  0  0  0  0  0  0  0  0  0
    0.1335   -6.8247   -0.9494 H   0  0  0  0  0  0  0  0  0  0  0  0
   -0.3170   -6.6842    0.7932 H   0  0  0  0  0  0  0  0  0  0  0  0
   -1.3070   -4.2273    1.2262 H   0  0  0  0  0  0  0  0  0  0  0  0
   -4.1085   -5.1590   -1.0621 H   0  0  0  0  0  0  0  0  0  0  0  0
   -4.4611   -6.5497    0.9260 H   0  0  0  0  0  0  0  0  0  0  0  0
   -5.5248   -5.2985    1.6705 H   0  0  0  0  0  0  0  0  0  0  0  0
   -6.0449   -6.1463    0.1596 H   0  0  0  0  0  0  0  0  0  0  0  0
   -5.4413   -3.4071   -1.6300 H   0  0  0  0  0  0  0  0  0  0  0  0
   -8.0864   -1.9240   -0.5551 H   0  0  0  0  0  0  0  0  0  0  0  0
   -7.8074   -4.7956   -1.5853 H   0  0  0  0  0  0  0  0  0  0  0  0
   -7.5696   -3.2434   -2.4968 H   0  0  0  0  0  0  0  0  0  0  0  0
   -9.2095   -3.7177   -1.9515 H   0  0  0  0  0  0  0  0  0  0  0  0
   -8.8387   -4.5080    0.8682 H   0  0  0  0  0  0  0  0  0  0  0  0
   -9.9908   -0.9610    0.0472 H   0  0  0  0  0  0  0  0  0  0  0  0
  -11.4017    0.4330    1.5276 H   0  0  0  0  0  0  0  0  0  0  0  0
  -12.1729   -1.1567    1.2210 H   0  0  0  0  0  0  0  0  0  0  0  0
  -11.3536   -0.8302    2.8048 H   0  0  0  0  0  0  0  0  0  0  0  0
   -8.4295   -1.0382    2.6078 H   0  0  0  0  0  0  0  0  0  0  0  0
   -7.7360    2.4741    0.7123 H   0  0  0  0  0  0  0  0  0  0  0  0
   -6.8503    0.2018   -0.1426 H   0  0  0  0  0  0  0  0  0  0  0  0
   -8.3430    0.1750   -1.1838 H   0  0  0  0  0  0  0  0  0  0  0  0
   -7.1648    1.5010   -1.3388 H   0  0  0  0  0  0  0  0  0  0  0  0
  -10.3691    1.3954   -0.3827 H   0  0  0  0  0  0  0  0  0  0  0  0
   -9.4604    5.5297   -0.7597 H   0  0  0  0  0  0  0  0  0  0  0  0
   -8.4381    5.9537    1.4299 H   0  0  0  0  0  0  0  0  0  0  0  0
   -8.6185    4.2082    1.9006 H   0  0  0  0  0  0  0  0  0  0  0  0
  -10.0612    5.2321    1.6189 H   0  0  0  0  0  0  0  0  0  0  0  0
   -7.7499    3.8678   -1.7193 H   0  0  0  0  0  0  0  0  0  0  0  0
    1.1958   -0.8692    1.0245 H   0  0  0  0  0  0  0  0  0  0  0  0
    2.3171   -3.5392    0.1157 H   0  0  0  0  0  0  0  0  0  0  0  0
    0.9059   -3.9338    2.0513 H   0  0  0  0  0  0  0  0  0  0  0  0
    1.6843   -2.5807    2.9670 H   0  0  0  0  0  0  0  0  0  0  0  0
    2.6200   -4.0701    2.5479 H   0  0  0  0  0  0  0  0  0  0  0  0
    5.6865   -2.0389    0.6204 H   0  0  0  0  0  0  0  0  0  0  0  0
    4.0249   -3.6756   -1.2449 H   0  0  0  0  0  0  0  0  0  0  0  0
    5.6524   -5.0118    1.0269 H   0  0  0  0  0  0  0  0  0  0  0  0
    4.9632   -5.8835   -0.4040 H   0  0  0  0  0  0  0  0  0  0  0  0
    3.8784   -5.1179    0.7960 H   0  0  0  0  0  0  0  0  0  0  0  0
    7.2944   -1.9672   -0.9653 H   0  0  0  0  0  0  0  0  0  0  0  0
    9.3187   -3.4059   -1.4472 H   0  0  0  0  0  0  0  0  0  0  0  0
    7.7705   -5.5702    0.0736 H   0  0  0  0  0  0  0  0  0  0  0  0
    8.2540   -5.5764   -1.6679 H   0  0  0  0  0  0  0  0  0  0  0  0
    9.5085   -5.6300   -0.3926 H   0  0  0  0  0  0  0  0  0  0  0  0
   10.5389   -2.3129    1.9229 H   0  0  0  0  0  0  0  0  0  0  0  0
   10.6481   -1.8577   -1.0933 H   0  0  0  0  0  0  0  0  0  0  0  0
   11.9979   -3.8803   -0.1795 H   0  0  0  0  0  0  0  0  0  0  0  0
   12.9957   -2.6781    0.7229 H   0  0  0  0  0  0  0  0  0  0  0  0
   12.9427   -2.6409   -1.0790 H   0  0  0  0  0  0  0  0  0  0  0  0
   10.6048   -0.1098    2.0361 H   0  0  0  0  0  0  0  0  0  0  0  0
   12.2799    2.0652    0.8869 H   0  0  0  0  0  0  0  0  0  0  0  0
   11.9687    1.9028    3.3225 H   0  0  0  0  0  0  0  0  0  0  0  0
   10.1885    2.1017    3.1509 H   0  0  0  0  0  0  0  0  0  0  0  0
   11.3051    3.4469    2.6879 H   0  0  0  0  0  0  0  0  0  0  0  0
    8.5554    1.7134    1.5174 H   0  0  0  0  0  0  0  0  0  0  0  0
    8.0516    2.8732   -1.2007 H   0  0  0  0  0  0  0  0  0  0  0  0
    7.1650    4.4192    1.3231 H   0  0  0  0  0  0  0  0  0  0  0  0
    8.6585    4.8237    0.3999 H   0  0  0  0  0  0  0  0  0  0  0  0
    7.0833    4.9500   -0.4148 H   0  0  0  0  0  0  0  0  0  0  0  0
    4.7835    2.5837    1.2127 H   0  0  0  0  0  0  0  0  0  0  0  0
    4.9118    4.6295   -0.6256 H   0  0  0  0  0  0  0  0  0  0  0  0
    5.6625    4.8849   -2.8623 H   0  0  0  0  0  0  0  0  0  0  0  0
    5.5304    3.5498   -4.0604 H   0  0  0  0  0  0  0  0  0  0  0  0
    2.8878    4.0328    0.6632 H   0  0  0  0  0  0  0  0  0  0  0  0
    2.5408    2.6798   -0.4755 H   0  0  0  0  0  0  0  0  0  0  0  0
   -0.0531    5.6933   -1.1003 H   0  0  0  0  0  0  0  0  0  0  0  0
    0.7240    5.1418    0.4098 H   0  0  0  0  0  0  0  0  0  0  0  0
  1  2  1  0
  2  3  2  0
  2  4  1  0
  4  5  1  0
  5  6  1  0
  6  7  1  0
  7  8  1  0
  8  9  1  0
  9 10  2  0
 10 11  1  0
 11 12  2  0
 12 13  1  0
 13 14  2  0
 13 15  1  0
 15 16  1  0
 16 17  1  0
 17 18  1  0
 18 19  1  0
 19 20  1  0
 20 21  2  0
 20 22  1  0
 22 23  1  0
 22 24  1  0
 24 25  1  0
 25 26  2  0
 25 27  1  0
 27 28  1  0
 27 29  1  0
 29 30  1  0
 30 31  2  0
 30 32  1  0
 32 33  1  0
 32 34  1  0
 34 35  1  0
 35 36  2  0
 35 37  1  0
 37 38  1  0
 37 39  1  0
 39 40  1  0
 40 41  2  0
 40 42  1  0
 42 43  1  0
 42 44  1  0
 44 45  1  0
 45 46  2  0
 45 47  1  0
 47 48  1  0
 47 49  1  0
 49 50  1  0
 50 51  2  0
 18 52  1  0
 52 53  2  0
 52 54  1  0
 54 55  1  0
 55 56  1  0
 55 57  1  0
 57 58  2  0
 57 59  1  0
 59 60  1  0
 60 61  1  0
 60 62  1  0
 62 63  2  0
 62 64  1  0
 64 65  1  0
 65 66  1  0
 65 67  1  0
 67 68  2  0
 67 69  1  0
 69 70  1  0
 70 71  1  0
 70 72  1  0
 72 73  2  0
 72 74  1  0
 74 75  1  0
 75 76  1  0
 75 77  1  0
 77 78  2  0
 77 79  1  0
 79 80  1  0
 80 81  1  0
 80 82  1  0
 82 83  2  0
 82 84  1  0
 84 85  1  0
 85 86  1  0
 86 87  1  0
 86 88  2  0
 85 89  1  0
 89 90  1  0
 90 91  1  0
 50  5  1  0
 14  9  1  0
 91 11  1  0
  1 92  1  0
  1 93  1  0
  1 94  1  0
  4 95  1  0
  5 96  1  1
  6 97  1  0
  6 98  1  0
  8 99  1  0
  8100  1  0
 10101  1  0
 12102  1  0
 14103  1  0
 15104  1  0
 15105  1  0
 17106  1  0
 17107  1  0
 18108  1  1
 19109  1  0
 22110  1  6
 23111  1  0
 23112  1  0
 23113  1  0
 24114  1  0
 27115  1  6
 28116  1  0
 28117  1  0
 28118  1  0
 29119  1  0
 32120  1  6
 33121  1  0
 33122  1  0
 33123  1  0
 34124  1  0
 37125  1  6
 38126  1  0
 38127  1  0
 38128  1  0
 39129  1  0
 42130  1  1
 43131  1  0
 43132  1  0
 43133  1  0
 44134  1  0
 47135  1  6
 48136  1  0
 48137  1  0
 48138  1  0
 49139  1  0
 54140  1  0
 55141  1  6
 56142  1  0
 56143  1  0
 56144  1  0
 59145  1  0
 60146  1  6
 61147  1  0
 61148  1  0
 61149  1  0
 64150  1  0
 65151  1  6
 66152  1  0
 66153  1  0
 66154  1  0
 69155  1  0
 70156  1  6
 71157  1  0
 71158  1  0
 71159  1  0
 74160  1  0
 75161  1  6
 76162  1  0
 76163  1  0
 76164  1  0
 79165  1  0
 80166  1  6
 81167  1  0
 81168  1  0
 81169  1  0
 84170  1  0
 85171  1  6
 87172  1  0
 87173  1  0
 89174  1  0
 89175  1  0
 91176  1  0
 91177  1  0
M  END
