
     RDKit          3D

167169  0  0  0  0  0  0  0  0999 V2000
    4.7824   -8.2420   -0.7987 C   0  0  0  0  0  0  0  0  0  0  0  0
    3.4537   -7.5394   -0.8092 C   0  0  0  0  0  0  0  0  0  0  0  0
    2.4119   -8.2469   -0.8163 O   0  0  0  0  0  0  0  0  0  0  0  0
    3.3235   -6.1083   -0.7852 N   0  0  0  0  0  0  0  0  0  0  0  0
    4.4174   -5.1816   -0.4520 C   0  0  1  0  0  0  0  0  0  0  0  0
    3.9946   -3.7011   -0.6767 C   0  0  0  0  0  0  0  0  0  0  0  0
    3.5608   -2.7513    0.8319 S   0  0  0  0  0  0  0  0  0  0  0  0
    1.8274   -3.3065    1.0104 C   0  0  0  0  0  0  0  0  0  0  0  0
    0.8708   -2.4238    0.2428 C   0  0  0  0  0  0  0  0  0  0  0  0
   -0.0093   -2.9676   -0.7106 C   0  0  0  0  0  0  0  0  0  0  0  0
   -0.9736   -2.1525   -1.3378 C   0  0  0  0  0  0  0  0  0  0  0  0
   -1.0182   -0.7828   -1.0306 C   0  0  0  0  0  0  0  0  0  0  0  0
   -0.1323   -0.2273   -0.0949 C   0  0  0  0  0  0  0  0  0  0  0  0
    0.7956   -1.0556    0.5479 C   0  0  0  0  0  0  0  0  0  0  0  0
   -0.2097    1.2315    0.2581 C   0  0  0  0  0  0  0  0  0  0  0  0
   -1.1490    1.4444    1.8114 S   0  0  0  0  0  0  0  0  0  0  0  0
   -0.7932    3.2274    2.0225 C   0  0  0  0  0  0  0  0  0  0  0  0
   -1.6537    4.1108    1.0808 C   0  0  2  0  0  0  0  0  0  0  0  0
   -0.7978    4.7482    0.0699 N   0  0  0  0  0  0  0  0  0  0  0  0
    0.0996    5.8356    0.3586 C   0  0  0  0  0  0  0  0  0  0  0  0
   -0.1790    6.6665    1.2677 O   0  0  0  0  0  0  0  0  0  0  0  0
    1.3295    6.0566   -0.4843 C   0  0  1  0  0  0  0  0  0  0  0  0
    1.0564    7.1274   -1.5364 C   0  0  0  0  0  0  0  0  0  0  0  0
    2.4423    6.4809    0.3691 N   0  0  0  0  0  0  0  0  0  0  0  0
    3.6366    5.7171    0.5217 C   0  0  0  0  0  0  0  0  0  0  0  0
    4.0613    5.4806    1.6881 O   0  0  0  0  0  0  0  0  0  0  0  0
    4.4829    5.3470   -0.6746 C   0  0  1  0  0  0  0  0  0  0  0  0
    5.2567    6.5913   -1.1343 C   0  0  0  0  0  0  0  0  0  0  0  0
    5.3682    4.2249   -0.3258 N   0  0  0  0  0  0  0  0  0  0  0  0
    6.7707    4.1707   -0.6059 C   0  0  0  0  0  0  0  0  0  0  0  0
    7.1638    4.2298   -1.8062 O   0  0  0  0  0  0  0  0  0  0  0  0
    7.7846    4.1050    0.5120 C   0  0  1  0  0  0  0  0  0  0  0  0
    7.2213    3.5599    1.8280 C   0  0  0  0  0  0  0  0  0  0  0  0
    8.9837    3.3587    0.1040 N   0  0  0  0  0  0  0  0  0  0  0  0
    9.0521    1.9993   -0.3732 C   0  0  0  0  0  0  0  0  0  0  0  0
   10.1685    1.5557   -0.7546 O   0  0  0  0  0  0  0  0  0  0  0  0
    7.8589    1.0644   -0.4185 C   0  0  1  0  0  0  0  0  0  0  0  0
    7.7885    0.3253   -1.7575 C   0  0  0  0  0  0  0  0  0  0  0  0
    7.9011    0.1069    0.6886 N   0  0  0  0  0  0  0  0  0  0  0  0
    9.0341   -0.7295    0.9447 C   0  0  0  0  0  0  0  0  0  0  0  0
   10.0150   -0.2630    1.5796 O   0  0  0  0  0  0  0  0  0  0  0  0
    9.0319   -2.1679    0.4925 C   0  0  1  0  0  0  0  0  0  0  0  0
   10.3484   -2.4941   -0.2284 C   0  0  0  0  0  0  0  0  0  0  0  0
    8.8657   -3.0511    1.6513 N   0  0  0  0  0  0  0  0  0  0  0  0
    8.4140   -4.4174    1.5856 C   0  0  0  0  0  0  0  0  0  0  0  0
    8.8579   -5.2360    2.4413 O   0  0  0  0  0  0  0  0  0  0  0  0
    7.4120   -4.9112    0.5564 C   0  0  1  0  0  0  0  0  0  0  0  0
    8.1055   -5.8502   -0.4354 C   0  0  0  0  0  0  0  0  0  0  0  0
    6.3258   -5.6285    1.2381 N   0  0  0  0  0  0  0  0  0  0  0  0
    4.9295   -5.4607    0.9457 C   0  0  0  0  0  0  0  0  0  0  0  0
    4.0906   -5.6496    1.8719 O   0  0  0  0  0  0  0  0  0  0  0  0
   -2.4958    5.1577    1.7964 C   0  0  0  0  0  0  0  0  0  0  0  0
   -2.3088    5.4059    3.0233 O   0  0  0  0  0  0  0  0  0  0  0  0
   -3.5053    5.9016    1.0962 N   0  0  0  0  0  0  0  0  0  0  0  0
   -4.2479    5.3617   -0.0507 C   0  0  2  0  0  0  0  0  0  0  0  0
   -5.1329    6.4451   -0.6757 C   0  0  0  0  0  0  0  0  0  0  0  0
   -5.0916    4.1938    0.3815 C   0  0  0  0  0  0  0  0  0  0  0  0
   -5.4223    4.0757    1.5949 O   0  0  0  0  0  0  0  0  0  0  0  0
   -5.5641    3.2386   -0.5874 N   0  0  0  0  0  0  0  0  0  0  0  0
   -6.3160    2.0470   -0.1843 C   0  0  2  0  0  0  0  0  0  0  0  0
   -5.3625    1.0066    0.4254 C   0  0  0  0  0  0  0  0  0  0  0  0
   -7.0357    1.4593   -1.3699 C   0  0  0  0  0  0  0  0  0  0  0  0
   -6.3515    1.0776   -2.3618 O   0  0  0  0  0  0  0  0  0  0  0  0
   -8.4605    1.2873   -1.4175 N   0  0  0  0  0  0  0  0  0  0  0  0
   -9.4697    2.1559   -0.7913 C   0  0  2  0  0  0  0  0  0  0  0  0
   -9.2667    3.6150   -1.2261 C   0  0  0  0  0  0  0  0  0  0  0  0
   -9.5277    1.9910    0.7149 C   0  0  0  0  0  0  0  0  0  0  0  0
   -9.3887    3.0120    1.4476 O   0  0  0  0  0  0  0  0  0  0  0  0
   -9.7925    0.7310    1.3545 N   0  0  0  0  0  0  0  0  0  0  0  0
   -9.8310   -0.5830    0.6996 C   0  0  2  0  0  0  0  0  0  0  0  0
  -11.0416   -1.3611    1.2067 C   0  0  0  0  0  0  0  0  0  0  0  0
   -8.5585   -1.3270    0.9994 C   0  0  0  0  0  0  0  0  0  0  0  0
   -8.1157   -1.3691    2.1748 O   0  0  0  0  0  0  0  0  0  0  0  0
   -7.8469   -2.0175   -0.0384 N   0  0  0  0  0  0  0  0  0  0  0  0
   -8.3104   -3.3129   -0.5444 C   0  0  2  0  0  0  0  0  0  0  0  0
   -8.4879   -4.3306    0.5908 C   0  0  0  0  0  0  0  0  0  0  0  0
   -7.4051   -3.8372   -1.6422 C   0  0  0  0  0  0  0  0  0  0  0  0
   -7.8485   -3.8180   -2.8209 O   0  0  0  0  0  0  0  0  0  0  0  0
   -6.0998   -4.4048   -1.4174 N   0  0  0  0  0  0  0  0  0  0  0  0
   -5.2099   -4.1522   -0.2763 C   0  0  1  0  0  0  0  0  0  0  0  0
   -5.2109   -5.3282    0.6595 C   0  0  0  0  0  0  0  0  0  0  0  0
   -4.9909   -6.6564    0.1829 N   0  0  0  0  0  0  0  0  0  0  0  0
   -5.3596   -5.1346    1.9045 O   0  0  0  0  0  0  0  0  0  0  0  0
   -3.7654   -3.9133   -0.7644 C   0  0  0  0  0  0  0  0  0  0  0  0
   -3.6681   -2.4772   -1.8870 S   0  0  0  0  0  0  0  0  0  0  0  0
   -1.9133   -2.7247   -2.3713 C   0  0  0  0  0  0  0  0  0  0  0  0
    4.9619   -8.6792    0.2101 H   0  0  0  0  0  0  0  0  0  0  0  0
    4.7773   -9.0608   -1.5453 H   0  0  0  0  0  0  0  0  0  0  0  0
    5.6173   -7.5658   -1.0562 H   0  0  0  0  0  0  0  0  0  0  0  0
    2.3698   -5.7277   -0.9633 H   0  0  0  0  0  0  0  0  0  0  0  0
    5.2329   -5.3671   -1.1811 H   0  0  0  0  0  0  0  0  0  0  0  0
    4.8485   -3.1636   -1.1389 H   0  0  0  0  0  0  0  0  0  0  0  0
    3.1604   -3.6282   -1.4176 H   0  0  0  0  0  0  0  0  0  0  0  0
    1.5656   -3.2252    2.0889 H   0  0  0  0  0  0  0  0  0  0  0  0
    1.7186   -4.3738    0.7555 H   0  0  0  0  0  0  0  0  0  0  0  0
    0.0445   -4.0283   -0.9387 H   0  0  0  0  0  0  0  0  0  0  0  0
   -1.7566   -0.1503   -1.5065 H   0  0  0  0  0  0  0  0  0  0  0  0
    1.4404   -0.6389    1.3173 H   0  0  0  0  0  0  0  0  0  0  0  0
   -0.7042    1.7989   -0.5602 H   0  0  0  0  0  0  0  0  0  0  0  0
    0.8166    1.6385    0.3709 H   0  0  0  0  0  0  0  0  0  0  0  0
    0.2926    3.4011    1.8388 H   0  0  0  0  0  0  0  0  0  0  0  0
   -0.9369    3.4677    3.0988 H   0  0  0  0  0  0  0  0  0  0  0  0
   -2.3645    3.4401    0.5551 H   0  0  0  0  0  0  0  0  0  0  0  0
   -0.6873    4.2573   -0.8469 H   0  0  0  0  0  0  0  0  0  0  0  0
    1.5860    5.1115   -1.0040 H   0  0  0  0  0  0  0  0  0  0  0  0
    0.8524    8.1092   -1.0583 H   0  0  0  0  0  0  0  0  0  0  0  0
    1.9384    7.2374   -2.2028 H   0  0  0  0  0  0  0  0  0  0  0  0
    0.1746    6.8438   -2.1535 H   0  0  0  0  0  0  0  0  0  0  0  0
    2.3152    7.3011    1.0016 H   0  0  0  0  0  0  0  0  0  0  0  0
    3.8212    5.0154   -1.4978 H   0  0  0  0  0  0  0  0  0  0  0  0
    5.8353    6.3772   -2.0585 H   0  0  0  0  0  0  0  0  0  0  0  0
    5.9519    6.9295   -0.3273 H   0  0  0  0  0  0  0  0  0  0  0  0
    4.5528    7.4192   -1.3645 H   0  0  0  0  0  0  0  0  0  0  0  0
    4.9225    3.3524    0.0507 H   0  0  0  0  0  0  0  0  0  0  0  0
    8.0894    5.1530    0.7128 H   0  0  0  0  0  0  0  0  0  0  0  0
    6.7607    2.5600    1.7063 H   0  0  0  0  0  0  0  0  0  0  0  0
    6.4558    4.2556    2.2255 H   0  0  0  0  0  0  0  0  0  0  0  0
    8.0381    3.4925    2.5778 H   0  0  0  0  0  0  0  0  0  0  0  0
    9.8865    3.8840    0.1321 H   0  0  0  0  0  0  0  0  0  0  0  0
    6.9133    1.6332   -0.3459 H   0  0  0  0  0  0  0  0  0  0  0  0
    7.7115    1.0602   -2.5889 H   0  0  0  0  0  0  0  0  0  0  0  0
    6.8900   -0.3304   -1.7802 H   0  0  0  0  0  0  0  0  0  0  0  0
    8.6938   -0.2996   -1.9174 H   0  0  0  0  0  0  0  0  0  0  0  0
    7.0281   -0.0703    1.2384 H   0  0  0  0  0  0  0  0  0  0  0  0
    8.1949   -2.2998   -0.2287 H   0  0  0  0  0  0  0  0  0  0  0  0
   10.4620   -1.8549   -1.1293 H   0  0  0  0  0  0  0  0  0  0  0  0
   11.2090   -2.3258    0.4529 H   0  0  0  0  0  0  0  0  0  0  0  0
   10.3597   -3.5523   -0.5404 H   0  0  0  0  0  0  0  0  0  0  0  0
    9.3692   -2.7771    2.5303 H   0  0  0  0  0  0  0  0  0  0  0  0
    6.9753   -4.0567   -0.0025 H   0  0  0  0  0  0  0  0  0  0  0  0
    8.3326   -6.8220    0.0424 H   0  0  0  0  0  0  0  0  0  0  0  0
    9.0423   -5.4042   -0.8142 H   0  0  0  0  0  0  0  0  0  0  0  0
    7.4502   -6.0331   -1.3108 H   0  0  0  0  0  0  0  0  0  0  0  0
    6.5642   -6.2606    2.0380 H   0  0  0  0  0  0  0  0  0  0  0  0
   -3.8348    6.7942    1.5310 H   0  0  0  0  0  0  0  0  0  0  0  0
   -3.5222    5.0404   -0.8266 H   0  0  0  0  0  0  0  0  0  0  0  0
   -5.6462    6.0514   -1.5790 H   0  0  0  0  0  0  0  0  0  0  0  0
   -5.9031    6.7878    0.0491 H   0  0  0  0  0  0  0  0  0  0  0  0
   -4.5077    7.3132   -0.9831 H   0  0  0  0  0  0  0  0  0  0  0  0
   -5.2132    3.3121   -1.5741 H   0  0  0  0  0  0  0  0  0  0  0  0
   -7.0254    2.3339    0.6081 H   0  0  0  0  0  0  0  0  0  0  0  0
   -4.6573    0.6080   -0.3362 H   0  0  0  0  0  0  0  0  0  0  0  0
   -5.9519    0.1594    0.8432 H   0  0  0  0  0  0  0  0  0  0  0  0
   -4.7765    1.4551    1.2567 H   0  0  0  0  0  0  0  0  0  0  0  0
   -8.8152    0.6208   -2.1426 H   0  0  0  0  0  0  0  0  0  0  0  0
  -10.4704    1.8482   -1.1730 H   0  0  0  0  0  0  0  0  0  0  0  0
   -9.2342    3.6927   -2.3394 H   0  0  0  0  0  0  0  0  0  0  0  0
   -8.3192    4.0271   -0.8071 H   0  0  0  0  0  0  0  0  0  0  0  0
  -10.1166    4.2388   -0.8600 H   0  0  0  0  0  0  0  0  0  0  0  0
   -9.8282    0.7474    2.3984 H   0  0  0  0  0  0  0  0  0  0  0  0
   -9.9573   -0.4763   -0.3982 H   0  0  0  0  0  0  0  0  0  0  0  0
  -11.1144   -2.3397    0.6885 H   0  0  0  0  0  0  0  0  0  0  0  0
  -10.9657   -1.5391    2.3043 H   0  0  0  0  0  0  0  0  0  0  0  0
  -11.9675   -0.7893    1.0031 H   0  0  0  0  0  0  0  0  0  0  0  0
   -6.9667   -1.5887   -0.4112 H   0  0  0  0  0  0  0  0  0  0  0  0
   -9.3114   -3.1507   -0.9959 H   0  0  0  0  0  0  0  0  0  0  0  0
   -7.6333   -4.2936    1.2873 H   0  0  0  0  0  0  0  0  0  0  0  0
   -8.6081   -5.3581    0.1845 H   0  0  0  0  0  0  0  0  0  0  0  0
   -9.3993   -4.0884    1.1715 H   0  0  0  0  0  0  0  0  0  0  0  0
   -5.7151   -4.9944   -2.1907 H   0  0  0  0  0  0  0  0  0  0  0  0
   -5.5379   -3.2497    0.2811 H   0  0  0  0  0  0  0  0  0  0  0  0
   -4.9276   -7.4529    0.8503 H   0  0  0  0  0  0  0  0  0  0  0  0
   -4.8615   -6.8485   -0.8372 H   0  0  0  0  0  0  0  0  0  0  0  0
   -3.1069   -3.7185    0.1136 H   0  0  0  0  0  0  0  0  0  0  0  0
   -3.3954   -4.8206   -1.2920 H   0  0  0  0  0  0  0  0  0  0  0  0
   -1.7431   -2.2004   -3.3357 H   0  0  0  0  0  0  0  0  0  0  0  0
   -1.7169   -3.8000   -2.5453 H   0  0  0  0  0  0  0  0  0  0  0  0
  1  2  1  0
  2  3  2  0
  2  4  1  0
  4  5  1  0
  5  6  1  0
  6  7  1  0
  7  8  1  0
  8  9  1  0
  9 10  2  0
 10 11  1  0
 11 12  2  0
 12 13  1  0
 13 14  2  0
 13 15  1  0
 15 16  1  0
 16 17  1  0
 17 18  1  0
 18 19  1  0
 19 20  1  0
 20 21  2  0
 20 22  1  0
 22 23  1  0
 22 24  1  0
 24 25  1  0
 25 26  2  0
 25 27  1  0
 27 28  1  0
 27 29  1  0
 29 30  1  0
 30 31  2  0
 30 32  1  0
 32 33  1  0
 32 34  1  0
 34 35  1  0
 35 36  2  0
 35 37  1  0
 37 38  1  0
 37 39  1  0
 39 40  1  0
 40 41  2  0
 40 42  1  0
 42 43  1  0
 42 44  1  0
 44 45  1  0
 45 46  2  0
 45 47  1  0
 47 48  1  0
 47 49  1  0
 49 50  1  0
 50 51  2  0
 18 52  1  0
 52 53  2  0
 52 54  1  0
 54 55  1  0
 55 56  1  0
 55 57  1  0
 57 58  2  0
 57 59  1  0
 59 60  1  0
 60 61  1  0
 60 62  1  0
 62 63  2  0
 62 64  1  0
 64 65  1  0
 65 66  1  0
 65 67  1  0
 67 68  2  0
 67 69  1  0
 69 70  1  0
 70 71  1  0
 70 72  1  0
 72 73  2  0
 72 74  1  0
 74 75  1  0
 75 76  1  0
 75 77  1  0
 77 78  2  0
 77 79  1  0
 79 80  1  0
 80 81  1  0
 81 82  1  0
 81 83  2  0
 80 84  1  0
 84 85  1  0
 85 86  1  0
 50  5  1  0
 14  9  1  0
 86 11  1  0
  1 87  1  0
  1 88  1  0
  1 89  1  0
  4 90  1  0
  5 91  1  6
  6 92  1  0
  6 93  1  0
  8 94  1  0
  8 95  1  0
 10 96  1  0
 12 97  1  0
 14 98  1  0
 15 99  1  0
 15100  1  0
 17101  1  0
 17102  1  0
 18103  1  6
 19104  1  0
 22105  1  6
 23106  1  0
 23107  1  0
 23108  1  0
 24109  1  0
 27110  1  6
 28111  1  0
 28112  1  0
 28113  1  0
 29114  1  0
 32115  1  1
 33116  1  0
 33117  1  0
 33118  1  0
 34119  1  0
 37120  1  1
 38121  1  0
 38122  1  0
 38123  1  0
 39124  1  0
 42125  1  6
 43126  1  0
 43127  1  0
 43128  1  0
 44129  1  0
 47130  1  6
 48131  1  0
 48132  1  0
 48133  1  0
 49134  1  0
 54135  1  0
 55136  1  6
 56137  1  0
 56138  1  0
 56139  1  0
 59140  1  0
 60141  1  1
 61142  1  0
 61143  1  0
 61144  1  0
 64145  1  0
 65146  1  6
 66147  1  0
 66148  1  0
 66149  1  0
 69150  1  0
 70151  1  6
 71152  1  0
 71153  1  0
 71154  1  0
 74155  1  0
 75156  1  6
 76157  1  0
 76158  1  0
 76159  1  0
 79160  1  0
 80161  1  1
 82162  1  0
 82163  1  0
 84164  1  0
 84165  1  0
 86166  1  0
 86167  1  0
M  END
