
     RDKit          3D

107109  0  0  0  0  0  0  0  0999 V2000
    9.0658   -1.9917   -1.4527 C   0  0  0  0  0  0  0  0  0  0  0  0
    8.4261   -2.4353   -0.1736 C   0  0  0  0  0  0  0  0  0  0  0  0
    8.9676   -3.3755    0.4664 O   0  0  0  0  0  0  0  0  0  0  0  0
    7.2563   -1.8052    0.3853 N   0  0  0  0  0  0  0  0  0  0  0  0
    6.0825   -1.3065   -0.3510 C   0  0  2  0  0  0  0  0  0  0  0  0
    5.6320   -2.2389   -1.4948 C   0  0  0  0  0  0  0  0  0  0  0  0
    4.9433   -3.8083   -0.8247 S   0  0  0  0  0  0  0  0  0  0  0  0
    3.1824   -3.6100   -1.3269 C   0  0  0  0  0  0  0  0  0  0  0  0
    2.3255   -3.3589   -0.1168 C   0  0  0  0  0  0  0  0  0  0  0  0
    1.4112   -4.3298    0.3258 C   0  0  0  0  0  0  0  0  0  0  0  0
    0.5872   -4.0793    1.4364 C   0  0  0  0  0  0  0  0  0  0  0  0
    0.7285   -2.8776    2.1478 C   0  0  0  0  0  0  0  0  0  0  0  0
    1.6411   -1.9023    1.7210 C   0  0  0  0  0  0  0  0  0  0  0  0
    2.3942   -2.1309    0.5568 C   0  0  0  0  0  0  0  0  0  0  0  0
    1.7714   -0.6055    2.4640 C   0  0  0  0  0  0  0  0  0  0  0  0
    0.7627    0.6771    1.6317 S   0  0  0  0  0  0  0  0  0  0  0  0
    1.9671    2.0469    1.7471 C   0  0  0  0  0  0  0  0  0  0  0  0
    1.7667    3.0514    0.5868 C   0  0  2  0  0  0  0  0  0  0  0  0
    3.0774    3.4795    0.0825 N   0  0  0  0  0  0  0  0  0  0  0  0
    3.9023    2.5620   -0.6628 C   0  0  0  0  0  0  0  0  0  0  0  0
    3.3556    1.7268   -1.4394 O   0  0  0  0  0  0  0  0  0  0  0  0
    5.4106    2.5032   -0.5054 C   0  0  1  0  0  0  0  0  0  0  0  0
    5.9893    3.5947    0.3971 C   0  0  0  0  0  0  0  0  0  0  0  0
    5.7804    1.1901    0.0340 N   0  0  0  0  0  0  0  0  0  0  0  0
    6.2590    0.1237   -0.8008 C   0  0  0  0  0  0  0  0  0  0  0  0
    6.7443    0.3835   -1.9327 O   0  0  0  0  0  0  0  0  0  0  0  0
    0.9545    4.2559    1.0352 C   0  0  0  0  0  0  0  0  0  0  0  0
    1.4139    4.9825    1.9609 O   0  0  0  0  0  0  0  0  0  0  0  0
   -0.3134    4.6094    0.4572 N   0  0  0  0  0  0  0  0  0  0  0  0
   -0.9230    4.0160   -0.7368 C   0  0  2  0  0  0  0  0  0  0  0  0
   -0.1681    4.4607   -1.9937 C   0  0  0  0  0  0  0  0  0  0  0  0
   -2.3880    4.4079   -0.8019 C   0  0  0  0  0  0  0  0  0  0  0  0
   -2.7694    5.3032   -1.6035 O   0  0  0  0  0  0  0  0  0  0  0  0
   -3.3355    3.8909    0.1468 N   0  0  0  0  0  0  0  0  0  0  0  0
   -3.7123    2.4754    0.2833 C   0  0  2  0  0  0  0  0  0  0  0  0
   -2.6488    1.6677    1.0315 C   0  0  0  0  0  0  0  0  0  0  0  0
   -4.0319    1.8531   -1.0659 C   0  0  0  0  0  0  0  0  0  0  0  0
   -3.1349    1.8471   -1.9548 O   0  0  0  0  0  0  0  0  0  0  0  0
   -5.3006    1.2398   -1.3806 N   0  0  0  0  0  0  0  0  0  0  0  0
   -6.5623    1.3335   -0.6288 C   0  0  2  0  0  0  0  0  0  0  0  0
   -7.0477    2.7917   -0.5489 C   0  0  0  0  0  0  0  0  0  0  0  0
   -6.4758    0.6311    0.7152 C   0  0  0  0  0  0  0  0  0  0  0  0
   -6.6377    1.2914    1.7773 O   0  0  0  0  0  0  0  0  0  0  0  0
   -6.2326   -0.7842    0.8185 N   0  0  0  0  0  0  0  0  0  0  0  0
   -6.5062   -1.7341   -0.2670 C   0  0  2  0  0  0  0  0  0  0  0  0
   -8.0096   -2.0258   -0.3183 C   0  0  0  0  0  0  0  0  0  0  0  0
   -5.6974   -2.9955   -0.0845 C   0  0  0  0  0  0  0  0  0  0  0  0
   -6.2020   -4.1290   -0.3153 O   0  0  0  0  0  0  0  0  0  0  0  0
   -4.3224   -2.9120    0.2941 N   0  0  0  0  0  0  0  0  0  0  0  0
   -3.2616   -3.1630   -0.6800 C   0  0  1  0  0  0  0  0  0  0  0  0
   -3.1204   -1.9519   -1.5667 C   0  0  0  0  0  0  0  0  0  0  0  0
   -3.5413   -1.9923   -2.9324 N   0  0  0  0  0  0  0  0  0  0  0  0
   -2.6465   -0.8844   -1.0959 O   0  0  0  0  0  0  0  0  0  0  0  0
   -1.9226   -3.4580    0.0280 C   0  0  0  0  0  0  0  0  0  0  0  0
   -1.8001   -5.2198    0.5184 S   0  0  0  0  0  0  0  0  0  0  0  0
   -0.5010   -5.0522    1.8083 C   0  0  0  0  0  0  0  0  0  0  0  0
    8.5972   -1.0821   -1.8595 H   0  0  0  0  0  0  0  0  0  0  0  0
   10.1339   -1.7613   -1.2593 H   0  0  0  0  0  0  0  0  0  0  0  0
    9.0024   -2.8085   -2.2020 H   0  0  0  0  0  0  0  0  0  0  0  0
    7.1201   -1.9399    1.4130 H   0  0  0  0  0  0  0  0  0  0  0  0
    5.2432   -1.2809    0.3779 H   0  0  0  0  0  0  0  0  0  0  0  0
    6.4867   -2.4924   -2.1561 H   0  0  0  0  0  0  0  0  0  0  0  0
    4.8948   -1.7104   -2.1326 H   0  0  0  0  0  0  0  0  0  0  0  0
    3.0186   -2.8016   -2.0694 H   0  0  0  0  0  0  0  0  0  0  0  0
    2.8742   -4.5566   -1.8226 H   0  0  0  0  0  0  0  0  0  0  0  0
    1.3092   -5.2660   -0.2097 H   0  0  0  0  0  0  0  0  0  0  0  0
    0.1008   -2.6797    3.0097 H   0  0  0  0  0  0  0  0  0  0  0  0
    3.0254   -1.3431    0.1696 H   0  0  0  0  0  0  0  0  0  0  0  0
    1.4087   -0.7151    3.5134 H   0  0  0  0  0  0  0  0  0  0  0  0
    2.8499   -0.3423    2.5251 H   0  0  0  0  0  0  0  0  0  0  0  0
    3.0007    1.6335    1.6944 H   0  0  0  0  0  0  0  0  0  0  0  0
    1.8612    2.5333    2.7395 H   0  0  0  0  0  0  0  0  0  0  0  0
    1.2423    2.5361   -0.2387 H   0  0  0  0  0  0  0  0  0  0  0  0
    3.4800    4.3761    0.4268 H   0  0  0  0  0  0  0  0  0  0  0  0
    5.8454    2.6465   -1.5198 H   0  0  0  0  0  0  0  0  0  0  0  0
    5.7881    4.5960   -0.0405 H   0  0  0  0  0  0  0  0  0  0  0  0
    7.0969    3.4649    0.4777 H   0  0  0  0  0  0  0  0  0  0  0  0
    5.5525    3.5301    1.4225 H   0  0  0  0  0  0  0  0  0  0  0  0
    5.5034    0.9706    1.0171 H   0  0  0  0  0  0  0  0  0  0  0  0
   -0.7943    5.4384    0.8764 H   0  0  0  0  0  0  0  0  0  0  0  0
   -0.8702    2.9203   -0.6908 H   0  0  0  0  0  0  0  0  0  0  0  0
   -0.2065    5.5601   -2.1128 H   0  0  0  0  0  0  0  0  0  0  0  0
   -0.5998    3.9825   -2.8893 H   0  0  0  0  0  0  0  0  0  0  0  0
    0.8969    4.1601   -1.9339 H   0  0  0  0  0  0  0  0  0  0  0  0
   -3.9890    4.5908    0.5671 H   0  0  0  0  0  0  0  0  0  0  0  0
   -4.6041    2.4429    0.9336 H   0  0  0  0  0  0  0  0  0  0  0  0
   -3.1194    0.7726    1.4976 H   0  0  0  0  0  0  0  0  0  0  0  0
   -1.8575    1.2943    0.3493 H   0  0  0  0  0  0  0  0  0  0  0  0
   -2.1934    2.2886    1.8363 H   0  0  0  0  0  0  0  0  0  0  0  0
   -5.3542    0.7562   -2.3069 H   0  0  0  0  0  0  0  0  0  0  0  0
   -7.3418    0.7978   -1.2127 H   0  0  0  0  0  0  0  0  0  0  0  0
   -6.3663    3.4344    0.0458 H   0  0  0  0  0  0  0  0  0  0  0  0
   -7.1174    3.2158   -1.5735 H   0  0  0  0  0  0  0  0  0  0  0  0
   -8.0625    2.8270   -0.0912 H   0  0  0  0  0  0  0  0  0  0  0  0
   -6.0945   -1.1750    1.7795 H   0  0  0  0  0  0  0  0  0  0  0  0
   -6.1899   -1.3004   -1.2378 H   0  0  0  0  0  0  0  0  0  0  0  0
   -8.3381   -2.5153    0.6240 H   0  0  0  0  0  0  0  0  0  0  0  0
   -8.2396   -2.6840   -1.1810 H   0  0  0  0  0  0  0  0  0  0  0  0
   -8.5820   -1.0858   -0.4439 H   0  0  0  0  0  0  0  0  0  0  0  0
   -4.0849   -2.5920    1.2663 H   0  0  0  0  0  0  0  0  0  0  0  0
   -3.5401   -4.0378   -1.3125 H   0  0  0  0  0  0  0  0  0  0  0  0
   -3.9504   -2.8647   -3.3399 H   0  0  0  0  0  0  0  0  0  0  0  0
   -3.4903   -1.1270   -3.5181 H   0  0  0  0  0  0  0  0  0  0  0  0
   -1.0798   -3.2444   -0.6710 H   0  0  0  0  0  0  0  0  0  0  0  0
   -1.8118   -2.7928    0.9145 H   0  0  0  0  0  0  0  0  0  0  0  0
   -0.9950   -4.7567    2.7575 H   0  0  0  0  0  0  0  0  0  0  0  0
   -0.0456   -6.0511    1.9702 H   0  0  0  0  0  0  0  0  0  0  0  0
  1  2  1  0
  2  3  2  0
  2  4  1  0
  4  5  1  0
  5  6  1  0
  6  7  1  0
  7  8  1  0
  8  9  1  0
  9 10  1  0
 10 11  2  0
 11 12  1  0
 12 13  2  0
 13 14  1  0
 13 15  1  0
 15 16  1  0
 16 17  1  0
 17 18  1  0
 18 19  1  0
 19 20  1  0
 20 21  2  0
 20 22  1  0
 22 23  1  0
 22 24  1  0
 24 25  1  0
 25 26  2  0
 18 27  1  0
 27 28  2  0
 27 29  1  0
 29 30  1  0
 30 31  1  0
 30 32  1  0
 32 33  2  0
 32 34  1  0
 34 35  1  0
 35 36  1  0
 35 37  1  0
 37 38  2  0
 37 39  1  0
 39 40  1  0
 40 41  1  0
 40 42  1  0
 42 43  2  0
 42 44  1  0
 44 45  1  0
 45 46  1  0
 45 47  1  0
 47 48  2  0
 47 49  1  0
 49 50  1  0
 50 51  1  0
 51 52  1  0
 51 53  2  0
 50 54  1  0
 54 55  1  0
 55 56  1  0
 25  5  1  0
 14  9  2  0
 56 11  1  0
  1 57  1  0
  1 58  1  0
  1 59  1  0
  4 60  1  0
  5 61  1  1
  6 62  1  0
  6 63  1  0
  8 64  1  0
  8 65  1  0
 10 66  1  0
 12 67  1  0
 14 68  1  0
 15 69  1  0
 15 70  1  0
 17 71  1  0
 17 72  1  0
 18 73  1  6
 19 74  1  0
 22 75  1  6
 23 76  1  0
 23 77  1  0
 23 78  1  0
 24 79  1  0
 29 80  1  0
 30 81  1  1
 31 82  1  0
 31 83  1  0
 31 84  1  0
 34 85  1  0
 35 86  1  1
 36 87  1  0
 36 88  1  0
 36 89  1  0
 39 90  1  0
 40 91  1  6
 41 92  1  0
 41 93  1  0
 41 94  1  0
 44 95  1  0
 45 96  1  6
 46 97  1  0
 46 98  1  0
 46 99  1  0
 49100  1  0
 50101  1  6
 52102  1  0
 52103  1  0
 54104  1  0
 54105  1  0
 56106  1  0
 56107  1  0
M  END
