
     RDKit          3D

177179  0  0  0  0  0  0  0  0999 V2000
   -6.2062    7.9762   -0.0066 C   0  0  0  0  0  0  0  0  0  0  0  0
   -5.6331    6.7093   -0.5503 C   0  0  0  0  0  0  0  0  0  0  0  0
   -5.5285    6.5713   -1.7992 O   0  0  0  0  0  0  0  0  0  0  0  0
   -5.2161    5.6619    0.3339 N   0  0  0  0  0  0  0  0  0  0  0  0
   -4.6983    4.3794   -0.1506 C   0  0  1  0  0  0  0  0  0  0  0  0
   -3.1939    4.4908   -0.5081 C   0  0  0  0  0  0  0  0  0  0  0  0
   -2.2864    5.7358    0.4897 S   0  0  0  0  0  0  0  0  0  0  0  0
   -1.2704    4.6013    1.4943 C   0  0  0  0  0  0  0  0  0  0  0  0
   -0.2645    3.8619    0.6526 C   0  0  0  0  0  0  0  0  0  0  0  0
    0.7238    4.5670   -0.0549 C   0  0  0  0  0  0  0  0  0  0  0  0
    1.7019    3.8817   -0.7962 C   0  0  0  0  0  0  0  0  0  0  0  0
    1.6387    2.4806   -0.8759 C   0  0  0  0  0  0  0  0  0  0  0  0
    0.6424    1.7679   -0.1895 C   0  0  0  0  0  0  0  0  0  0  0  0
   -0.2896    2.4626    0.5905 C   0  0  0  0  0  0  0  0  0  0  0  0
    0.5713    0.2689   -0.2936 C   0  0  0  0  0  0  0  0  0  0  0  0
    2.0782   -0.4912    0.4142 S   0  0  0  0  0  0  0  0  0  0  0  0
    1.2803   -1.9569    1.1759 C   0  0  0  0  0  0  0  0  0  0  0  0
    0.6368   -2.9167    0.1540 C   0  0  2  0  0  0  0  0  0  0  0  0
    0.1943   -4.1335    0.8420 N   0  0  0  0  0  0  0  0  0  0  0  0
   -1.0186   -4.8570    0.5705 C   0  0  0  0  0  0  0  0  0  0  0  0
   -1.3287   -5.8104    1.3378 O   0  0  0  0  0  0  0  0  0  0  0  0
   -1.9661   -4.4868   -0.5484 C   0  0  1  0  0  0  0  0  0  0  0  0
   -2.4210   -5.7614   -1.2859 C   0  0  0  0  0  0  0  0  0  0  0  0
   -3.0839   -3.7147    0.0139 N   0  0  0  0  0  0  0  0  0  0  0  0
   -4.4691   -3.9052   -0.3093 C   0  0  0  0  0  0  0  0  0  0  0  0
   -4.8102   -4.0351   -1.5125 O   0  0  0  0  0  0  0  0  0  0  0  0
   -5.5253   -4.0339    0.7642 C   0  0  1  0  0  0  0  0  0  0  0  0
   -5.0076   -3.6992    2.1702 C   0  0  0  0  0  0  0  0  0  0  0  0
   -6.6670   -3.1744    0.4424 N   0  0  0  0  0  0  0  0  0  0  0  0
   -8.0065   -3.6278    0.6492 C   0  0  0  0  0  0  0  0  0  0  0  0
   -8.5173   -3.5270    1.7965 O   0  0  0  0  0  0  0  0  0  0  0  0
   -8.8143   -4.1857   -0.4986 C   0  0  1  0  0  0  0  0  0  0  0  0
   -8.1435   -5.4396   -1.0623 C   0  0  0  0  0  0  0  0  0  0  0  0
  -10.1818   -4.5069   -0.0731 N   0  0  0  0  0  0  0  0  0  0  0  0
  -11.2044   -3.5351    0.2061 C   0  0  0  0  0  0  0  0  0  0  0  0
  -12.2902   -3.9368    0.7065 O   0  0  0  0  0  0  0  0  0  0  0  0
  -11.0742   -2.0791   -0.1914 C   0  0  1  0  0  0  0  0  0  0  0  0
  -11.7759   -1.8670   -1.5353 C   0  0  0  0  0  0  0  0  0  0  0  0
  -11.6616   -1.2038    0.8326 N   0  0  0  0  0  0  0  0  0  0  0  0
  -11.2165    0.1325    1.1319 C   0  0  0  0  0  0  0  0  0  0  0  0
  -11.5299    0.6321    2.2474 O   0  0  0  0  0  0  0  0  0  0  0  0
  -10.5089    1.0049    0.1134 C   0  0  1  0  0  0  0  0  0  0  0  0
  -11.5317    1.9194   -0.5608 C   0  0  0  0  0  0  0  0  0  0  0  0
   -9.4545    1.8079    0.7487 N   0  0  0  0  0  0  0  0  0  0  0  0
   -8.4881    2.5409   -0.0237 C   0  0  0  0  0  0  0  0  0  0  0  0
   -8.3667    2.3039   -1.2565 O   0  0  0  0  0  0  0  0  0  0  0  0
   -7.5819    3.5688    0.6083 C   0  0  1  0  0  0  0  0  0  0  0  0
   -8.2833    4.3784    1.7042 C   0  0  0  0  0  0  0  0  0  0  0  0
   -6.3845    2.9172    1.1505 N   0  0  0  0  0  0  0  0  0  0  0  0
   -5.0270    3.2831    0.8425 C   0  0  0  0  0  0  0  0  0  0  0  0
   -4.0919    2.6444    1.4007 O   0  0  0  0  0  0  0  0  0  0  0  0
    1.5920   -3.3028   -0.9370 C   0  0  0  0  0  0  0  0  0  0  0  0
    1.3099   -3.0481   -2.1393 O   0  0  0  0  0  0  0  0  0  0  0  0
    2.8130   -3.9707   -0.6142 N   0  0  0  0  0  0  0  0  0  0  0  0
    3.2269   -5.2725   -1.1531 C   0  0  2  0  0  0  0  0  0  0  0  0
    2.0856   -6.0286   -1.8484 C   0  0  0  0  0  0  0  0  0  0  0  0
    3.7841   -6.0986   -0.0111 C   0  0  0  0  0  0  0  0  0  0  0  0
    2.9902   -6.4866    0.8886 O   0  0  0  0  0  0  0  0  0  0  0  0
    5.1848   -6.3870    0.1377 N   0  0  0  0  0  0  0  0  0  0  0  0
    6.2100   -6.0858   -0.8642 C   0  0  2  0  0  0  0  0  0  0  0  0
    7.4761   -6.9131   -0.6184 C   0  0  0  0  0  0  0  0  0  0  0  0
    6.4815   -4.5974   -0.9230 C   0  0  0  0  0  0  0  0  0  0  0  0
    6.2841   -3.9910   -2.0102 O   0  0  0  0  0  0  0  0  0  0  0  0
    6.7812   -3.8169    0.2473 N   0  0  0  0  0  0  0  0  0  0  0  0
    8.0197   -3.9562    1.0275 C   0  0  2  0  0  0  0  0  0  0  0  0
    8.0739   -2.9255    2.1654 C   0  0  0  0  0  0  0  0  0  0  0  0
    9.2528   -3.8375    0.1540 C   0  0  0  0  0  0  0  0  0  0  0  0
    9.9544   -4.8724   -0.0294 O   0  0  0  0  0  0  0  0  0  0  0  0
    9.7095   -2.5877   -0.3960 N   0  0  0  0  0  0  0  0  0  0  0  0
    8.8351   -1.6413   -1.0979 C   0  0  2  0  0  0  0  0  0  0  0  0
    8.7998   -1.9907   -2.5887 C   0  0  0  0  0  0  0  0  0  0  0  0
    9.3493   -0.2333   -0.9270 C   0  0  0  0  0  0  0  0  0  0  0  0
   10.5202    0.0466   -1.3056 O   0  0  0  0  0  0  0  0  0  0  0  0
    8.5003    0.7907   -0.3762 N   0  0  0  0  0  0  0  0  0  0  0  0
    8.7035    2.2383   -0.5645 C   0  0  2  0  0  0  0  0  0  0  0  0
    8.8500    2.5745   -2.0532 C   0  0  0  0  0  0  0  0  0  0  0  0
    9.8920    2.7486    0.2252 C   0  0  0  0  0  0  0  0  0  0  0  0
   10.7631    1.9408    0.6539 O   0  0  0  0  0  0  0  0  0  0  0  0
   10.0932    4.1522    0.4676 N   0  0  0  0  0  0  0  0  0  0  0  0
    9.0111    5.1454    0.5199 C   0  0  2  0  0  0  0  0  0  0  0  0
    9.6046    6.5476    0.6920 C   0  0  0  0  0  0  0  0  0  0  0  0
    8.0873    4.8335    1.6718 C   0  0  0  0  0  0  0  0  0  0  0  0
    8.5916    4.5680    2.7984 O   0  0  0  0  0  0  0  0  0  0  0  0
    6.6561    4.8002    1.5353 N   0  0  0  0  0  0  0  0  0  0  0  0
    5.8924    5.5222    0.5052 C   0  0  2  0  0  0  0  0  0  0  0  0
    6.0961    7.0083    0.6649 C   0  0  0  0  0  0  0  0  0  0  0  0
    5.9371    7.6337    1.9393 N   0  0  0  0  0  0  0  0  0  0  0  0
    6.3951    7.7085   -0.3404 O   0  0  0  0  0  0  0  0  0  0  0  0
    4.3946    5.1712    0.6028 C   0  0  0  0  0  0  0  0  0  0  0  0
    3.4279    6.0777   -0.6702 S   0  0  0  0  0  0  0  0  0  0  0  0
    2.7675    4.6271   -1.5710 C   0  0  0  0  0  0  0  0  0  0  0  0
   -7.2305    8.1192   -0.4030 H   0  0  0  0  0  0  0  0  0  0  0  0
   -5.5695    8.8324   -0.3067 H   0  0  0  0  0  0  0  0  0  0  0  0
   -6.2570    7.9371    1.1020 H   0  0  0  0  0  0  0  0  0  0  0  0
   -5.2646    5.8273    1.3666 H   0  0  0  0  0  0  0  0  0  0  0  0
   -5.2255    4.1014   -1.0883 H   0  0  0  0  0  0  0  0  0  0  0  0
   -3.1206    4.8431   -1.5604 H   0  0  0  0  0  0  0  0  0  0  0  0
   -2.7000    3.5010   -0.4989 H   0  0  0  0  0  0  0  0  0  0  0  0
   -0.7237    5.1961    2.2546 H   0  0  0  0  0  0  0  0  0  0  0  0
   -1.9328    3.9030    2.0452 H   0  0  0  0  0  0  0  0  0  0  0  0
    0.7375    5.6511   -0.0059 H   0  0  0  0  0  0  0  0  0  0  0  0
    2.3611    1.9412   -1.4760 H   0  0  0  0  0  0  0  0  0  0  0  0
   -1.0498    1.9189    1.1363 H   0  0  0  0  0  0  0  0  0  0  0  0
   -0.3404   -0.1039    0.2221 H   0  0  0  0  0  0  0  0  0  0  0  0
    0.4976   -0.0199   -1.3633 H   0  0  0  0  0  0  0  0  0  0  0  0
    2.0579   -2.4965    1.7586 H   0  0  0  0  0  0  0  0  0  0  0  0
    0.5113   -1.6135    1.8993 H   0  0  0  0  0  0  0  0  0  0  0  0
   -0.2337   -2.3914   -0.2819 H   0  0  0  0  0  0  0  0  0  0  0  0
    0.8462   -4.5570    1.5422 H   0  0  0  0  0  0  0  0  0  0  0  0
   -1.4475   -3.8624   -1.3032 H   0  0  0  0  0  0  0  0  0  0  0  0
   -3.1217   -6.3522   -0.6628 H   0  0  0  0  0  0  0  0  0  0  0  0
   -2.9058   -5.4970   -2.2460 H   0  0  0  0  0  0  0  0  0  0  0  0
   -1.5420   -6.3953   -1.5305 H   0  0  0  0  0  0  0  0  0  0  0  0
   -2.8496   -2.9439    0.6795 H   0  0  0  0  0  0  0  0  0  0  0  0
   -5.8566   -5.1002    0.7798 H   0  0  0  0  0  0  0  0  0  0  0  0
   -4.6969   -2.6319    2.2319 H   0  0  0  0  0  0  0  0  0  0  0  0
   -4.1435   -4.3501    2.4289 H   0  0  0  0  0  0  0  0  0  0  0  0
   -5.8079   -3.8761    2.9169 H   0  0  0  0  0  0  0  0  0  0  0  0
   -6.5089   -2.1406    0.3666 H   0  0  0  0  0  0  0  0  0  0  0  0
   -8.8457   -3.4418   -1.3253 H   0  0  0  0  0  0  0  0  0  0  0  0
   -8.0021   -6.2010   -0.2663 H   0  0  0  0  0  0  0  0  0  0  0  0
   -7.1589   -5.1907   -1.5039 H   0  0  0  0  0  0  0  0  0  0  0  0
   -8.7708   -5.8774   -1.8655 H   0  0  0  0  0  0  0  0  0  0  0  0
  -10.4144   -5.5073    0.1228 H   0  0  0  0  0  0  0  0  0  0  0  0
  -10.0039   -1.8229   -0.2973 H   0  0  0  0  0  0  0  0  0  0  0  0
  -12.8639   -2.0676   -1.4405 H   0  0  0  0  0  0  0  0  0  0  0  0
  -11.3484   -2.5515   -2.2996 H   0  0  0  0  0  0  0  0  0  0  0  0
  -11.6416   -0.8280   -1.8934 H   0  0  0  0  0  0  0  0  0  0  0  0
  -12.3861   -1.5999    1.4760 H   0  0  0  0  0  0  0  0  0  0  0  0
  -10.0351    0.3715   -0.6638 H   0  0  0  0  0  0  0  0  0  0  0  0
  -11.9881    2.6059    0.1836 H   0  0  0  0  0  0  0  0  0  0  0  0
  -12.3361    1.3163   -1.0316 H   0  0  0  0  0  0  0  0  0  0  0  0
  -11.0496    2.5250   -1.3537 H   0  0  0  0  0  0  0  0  0  0  0  0
   -9.4210    1.8819    1.7893 H   0  0  0  0  0  0  0  0  0  0  0  0
   -7.3221    4.2951   -0.1904 H   0  0  0  0  0  0  0  0  0  0  0  0
   -8.4571    3.7628    2.6114 H   0  0  0  0  0  0  0  0  0  0  0  0
   -7.6456    5.2387    1.9987 H   0  0  0  0  0  0  0  0  0  0  0  0
   -9.2555    4.7721    1.3369 H   0  0  0  0  0  0  0  0  0  0  0  0
   -6.5312    2.1547    1.8485 H   0  0  0  0  0  0  0  0  0  0  0  0
    3.4693   -3.4834    0.0399 H   0  0  0  0  0  0  0  0  0  0  0  0
    3.9952   -5.0881   -1.9249 H   0  0  0  0  0  0  0  0  0  0  0  0
    1.2039   -6.1174   -1.1794 H   0  0  0  0  0  0  0  0  0  0  0  0
    2.4242   -7.0476   -2.1365 H   0  0  0  0  0  0  0  0  0  0  0  0
    1.7870   -5.4995   -2.7766 H   0  0  0  0  0  0  0  0  0  0  0  0
    5.4841   -6.7941    1.0590 H   0  0  0  0  0  0  0  0  0  0  0  0
    5.8351   -6.4150   -1.8583 H   0  0  0  0  0  0  0  0  0  0  0  0
    7.2623   -7.9824   -0.8212 H   0  0  0  0  0  0  0  0  0  0  0  0
    8.2909   -6.5911   -1.3000 H   0  0  0  0  0  0  0  0  0  0  0  0
    7.8189   -6.8439    0.4316 H   0  0  0  0  0  0  0  0  0  0  0  0
    6.1706   -2.9866    0.4276 H   0  0  0  0  0  0  0  0  0  0  0  0
    8.0098   -4.9491    1.5175 H   0  0  0  0  0  0  0  0  0  0  0  0
    8.0536   -1.8899    1.7661 H   0  0  0  0  0  0  0  0  0  0  0  0
    7.2011   -3.0654    2.8376 H   0  0  0  0  0  0  0  0  0  0  0  0
    9.0022   -3.0685    2.7619 H   0  0  0  0  0  0  0  0  0  0  0  0
   10.7319   -2.5229   -0.5989 H   0  0  0  0  0  0  0  0  0  0  0  0
    7.8045   -1.6967   -0.7024 H   0  0  0  0  0  0  0  0  0  0  0  0
    9.8070   -1.8781   -3.0429 H   0  0  0  0  0  0  0  0  0  0  0  0
    8.4816   -3.0435   -2.7323 H   0  0  0  0  0  0  0  0  0  0  0  0
    8.0870   -1.3243   -3.1223 H   0  0  0  0  0  0  0  0  0  0  0  0
    7.6358    0.4928    0.1375 H   0  0  0  0  0  0  0  0  0  0  0  0
    7.7971    2.7504   -0.1876 H   0  0  0  0  0  0  0  0  0  0  0  0
    8.7942    3.6714   -2.2138 H   0  0  0  0  0  0  0  0  0  0  0  0
    8.0206    2.1055   -2.6248 H   0  0  0  0  0  0  0  0  0  0  0  0
    9.8169    2.2098   -2.4606 H   0  0  0  0  0  0  0  0  0  0  0  0
   11.0633    4.4536    0.7238 H   0  0  0  0  0  0  0  0  0  0  0  0
    8.4623    5.1326   -0.4392 H   0  0  0  0  0  0  0  0  0  0  0  0
   10.2538    6.7898   -0.1773 H   0  0  0  0  0  0  0  0  0  0  0  0
    8.8039    7.3121    0.7486 H   0  0  0  0  0  0  0  0  0  0  0  0
   10.2118    6.6083    1.6207 H   0  0  0  0  0  0  0  0  0  0  0  0
    6.1230    4.3085    2.2915 H   0  0  0  0  0  0  0  0  0  0  0  0
    6.2359    5.1992   -0.5015 H   0  0  0  0  0  0  0  0  0  0  0  0
    5.7184    7.0681    2.7901 H   0  0  0  0  0  0  0  0  0  0  0  0
    6.0922    8.6602    2.0425 H   0  0  0  0  0  0  0  0  0  0  0  0
    4.0002    5.4667    1.5951 H   0  0  0  0  0  0  0  0  0  0  0  0
    4.2697    4.0713    0.5016 H   0  0  0  0  0  0  0  0  0  0  0  0
    3.6117    3.9611   -1.8423 H   0  0  0  0  0  0  0  0  0  0  0  0
    2.3171    4.9940   -2.5151 H   0  0  0  0  0  0  0  0  0  0  0  0
  1  2  1  0
  2  3  2  0
  2  4  1  0
  4  5  1  0
  5  6  1  0
  6  7  1  0
  7  8  1  0
  8  9  1  0
  9 10  2  0
 10 11  1  0
 11 12  2  0
 12 13  1  0
 13 14  2  0
 13 15  1  0
 15 16  1  0
 16 17  1  0
 17 18  1  0
 18 19  1  0
 19 20  1  0
 20 21  2  0
 20 22  1  0
 22 23  1  0
 22 24  1  0
 24 25  1  0
 25 26  2  0
 25 27  1  0
 27 28  1  0
 27 29  1  0
 29 30  1  0
 30 31  2  0
 30 32  1  0
 32 33  1  0
 32 34  1  0
 34 35  1  0
 35 36  2  0
 35 37  1  0
 37 38  1  0
 37 39  1  0
 39 40  1  0
 40 41  2  0
 40 42  1  0
 42 43  1  0
 42 44  1  0
 44 45  1  0
 45 46  2  0
 45 47  1  0
 47 48  1  0
 47 49  1  0
 49 50  1  0
 50 51  2  0
 18 52  1  0
 52 53  2  0
 52 54  1  0
 54 55  1  0
 55 56  1  0
 55 57  1  0
 57 58  2  0
 57 59  1  0
 59 60  1  0
 60 61  1  0
 60 62  1  0
 62 63  2  0
 62 64  1  0
 64 65  1  0
 65 66  1  0
 65 67  1  0
 67 68  2  0
 67 69  1  0
 69 70  1  0
 70 71  1  0
 70 72  1  0
 72 73  2  0
 72 74  1  0
 74 75  1  0
 75 76  1  0
 75 77  1  0
 77 78  2  0
 77 79  1  0
 79 80  1  0
 80 81  1  0
 80 82  1  0
 82 83  2  0
 82 84  1  0
 84 85  1  0
 85 86  1  0
 86 87  1  0
 86 88  2  0
 85 89  1  0
 89 90  1  0
 90 91  1  0
 50  5  1  0
 14  9  1  0
 91 11  1  0
  1 92  1  0
  1 93  1  0
  1 94  1  0
  4 95  1  0
  5 96  1  6
  6 97  1  0
  6 98  1  0
  8 99  1  0
  8100  1  0
 10101  1  0
 12102  1  0
 14103  1  0
 15104  1  0
 15105  1  0
 17106  1  0
 17107  1  0
 18108  1  6
 19109  1  0
 22110  1  6
 23111  1  0
 23112  1  0
 23113  1  0
 24114  1  0
 27115  1  1
 28116  1  0
 28117  1  0
 28118  1  0
 29119  1  0
 32120  1  6
 33121  1  0
 33122  1  0
 33123  1  0
 34124  1  0
 37125  1  6
 38126  1  0
 38127  1  0
 38128  1  0
 39129  1  0
 42130  1  6
 43131  1  0
 43132  1  0
 43133  1  0
 44134  1  0
 47135  1  6
 48136  1  0
 48137  1  0
 48138  1  0
 49139  1  0
 54140  1  0
 55141  1  6
 56142  1  0
 56143  1  0
 56144  1  0
 59145  1  0
 60146  1  6
 61147  1  0
 61148  1  0
 61149  1  0
 64150  1  0
 65151  1  1
 66152  1  0
 66153  1  0
 66154  1  0
 69155  1  0
 70156  1  1
 71157  1  0
 71158  1  0
 71159  1  0
 74160  1  0
 75161  1  1
 76162  1  0
 76163  1  0
 76164  1  0
 79165  1  0
 80166  1  6
 81167  1  0
 81168  1  0
 81169  1  0
 84170  1  0
 85171  1  6
 87172  1  0
 87173  1  0
 89174  1  0
 89175  1  0
 91176  1  0
 91177  1  0
M  END
