
     RDKit          3D

187189  0  0  0  0  0  0  0  0999 V2000
   -6.0305    8.7340   -0.9743 C   0  0  0  0  0  0  0  0  0  0  0  0
   -6.7076    7.6262   -1.7768 C   0  0  0  0  0  0  0  0  0  0  0  0
   -7.2253    7.9053   -2.8810 O   0  0  0  0  0  0  0  0  0  0  0  0
   -6.5869    6.2273   -1.3386 N   0  0  0  0  0  0  0  0  0  0  0  0
   -5.9468    5.8790   -0.0584 C   0  0  2  0  0  0  0  0  0  0  0  0
   -4.8231    4.8913   -0.2447 C   0  0  0  0  0  0  0  0  0  0  0  0
   -3.6496    5.5173   -1.5163 S   0  0  0  0  0  0  0  0  0  0  0  0
   -2.2409    4.3854   -1.2275 C   0  0  0  0  0  0  0  0  0  0  0  0
   -1.9855    3.9483    0.2413 C   0  0  0  0  0  0  0  0  0  0  0  0
   -0.8804    4.5149    0.8794 C   0  0  0  0  0  0  0  0  0  0  0  0
   -0.2630    3.8207    1.9441 C   0  0  0  0  0  0  0  0  0  0  0  0
   -0.8817    2.6878    2.4507 C   0  0  0  0  0  0  0  0  0  0  0  0
   -1.6221    1.9574    1.5310 C   0  0  0  0  0  0  0  0  0  0  0  0
   -2.4891    2.7293    0.7526 C   0  0  0  0  0  0  0  0  0  0  0  0
   -0.7670    0.9815    0.7548 C   0  0  0  0  0  0  0  0  0  0  0  0
   -1.6931   -0.5838    0.5201 S   0  0  0  0  0  0  0  0  0  0  0  0
   -0.3718   -1.7761    1.0251 C   0  0  0  0  0  0  0  0  0  0  0  0
    0.0221   -2.7512   -0.1191 C   0  0  2  0  0  0  0  0  0  0  0  0
   -1.0819   -2.9534   -1.1234 N   0  0  0  0  0  0  0  0  0  0  0  0
   -2.1894   -3.8506   -1.0370 C   0  0  0  0  0  0  0  0  0  0  0  0
   -2.6130   -4.4163   -2.1154 O   0  0  0  0  0  0  0  0  0  0  0  0
   -2.8924   -4.1347    0.2065 C   0  0  1  0  0  0  0  0  0  0  0  0
   -4.1524   -3.3289    0.3243 C   0  0  0  0  0  0  0  0  0  0  0  0
   -3.2193   -5.6568    0.3188 N   0  0  0  0  0  0  0  0  0  0  0  0
   -4.5424   -6.1692    0.3292 C   0  0  0  0  0  0  0  0  0  0  0  0
   -4.8589   -7.0007    1.3033 O   0  0  0  0  0  0  0  0  0  0  0  0
   -5.4752   -6.1055   -0.8176 C   0  0  1  0  0  0  0  0  0  0  0  0
   -4.9806   -7.1340   -1.8253 C   0  0  0  0  0  0  0  0  0  0  0  0
   -6.8680   -6.3893   -0.4716 N   0  0  0  0  0  0  0  0  0  0  0  0
   -7.9795   -5.4833   -0.1925 C   0  0  0  0  0  0  0  0  0  0  0  0
   -9.1093   -5.8259   -0.6749 O   0  0  0  0  0  0  0  0  0  0  0  0
   -7.9020   -4.1795    0.6416 C   0  0  1  0  0  0  0  0  0  0  0  0
   -7.4904   -2.8886   -0.0952 C   0  0  0  0  0  0  0  0  0  0  0  0
   -9.2525   -3.9851    1.2766 N   0  0  0  0  0  0  0  0  0  0  0  0
  -10.2092   -2.9612    1.0419 C   0  0  0  0  0  0  0  0  0  0  0  0
  -10.9122   -2.6600    2.1132 O   0  0  0  0  0  0  0  0  0  0  0  0
  -10.3763   -1.9853   -0.1704 C   0  0  1  0  0  0  0  0  0  0  0  0
  -11.4034   -2.6447   -1.0728 C   0  0  0  0  0  0  0  0  0  0  0  0
  -10.9488   -0.7109    0.3109 N   0  0  0  0  0  0  0  0  0  0  0  0
  -10.7466    0.5990   -0.2074 C   0  0  0  0  0  0  0  0  0  0  0  0
  -11.7189    1.1256   -0.8261 O   0  0  0  0  0  0  0  0  0  0  0  0
   -9.5697    1.4641    0.1609 C   0  0  1  0  0  0  0  0  0  0  0  0
   -8.3384    0.6796    0.5479 C   0  0  0  0  0  0  0  0  0  0  0  0
   -9.2305    2.3650   -0.9690 N   0  0  0  0  0  0  0  0  0  0  0  0
   -9.5676    3.7460   -1.0761 C   0  0  0  0  0  0  0  0  0  0  0  0
  -10.2499    4.1050   -2.0905 O   0  0  0  0  0  0  0  0  0  0  0  0
   -9.1940    4.7996   -0.0709 C   0  0  1  0  0  0  0  0  0  0  0  0
  -10.2666    5.0727    0.9880 C   0  0  0  0  0  0  0  0  0  0  0  0
   -7.9500    4.4147    0.6241 N   0  0  0  0  0  0  0  0  0  0  0  0
   -6.9183    5.3357    0.9650 C   0  0  0  0  0  0  0  0  0  0  0  0
   -6.6571    5.4906    2.1873 O   0  0  0  0  0  0  0  0  0  0  0  0
    0.5807   -4.0852    0.3509 C   0  0  0  0  0  0  0  0  0  0  0  0
    0.3505   -4.4898    1.5339 O   0  0  0  0  0  0  0  0  0  0  0  0
    1.2861   -4.9566   -0.5059 N   0  0  0  0  0  0  0  0  0  0  0  0
    2.1542   -4.5282   -1.6753 C   0  0  2  0  0  0  0  0  0  0  0  0
    2.5589   -5.7484   -2.4979 C   0  0  0  0  0  0  0  0  0  0  0  0
    3.4426   -3.8262   -1.1764 C   0  0  0  0  0  0  0  0  0  0  0  0
    3.5276   -2.5541   -1.3611 O   0  0  0  0  0  0  0  0  0  0  0  0
    4.5929   -4.4931   -0.5979 N   0  0  0  0  0  0  0  0  0  0  0  0
    4.4703   -5.7455    0.1793 C   0  0  2  0  0  0  0  0  0  0  0  0
    4.6545   -5.3979    1.6731 C   0  0  0  0  0  0  0  0  0  0  0  0
    5.4801   -6.7927   -0.2664 C   0  0  0  0  0  0  0  0  0  0  0  0
    5.0434   -7.8357   -0.8356 O   0  0  0  0  0  0  0  0  0  0  0  0
    6.8493   -6.7745    0.0363 N   0  0  0  0  0  0  0  0  0  0  0  0
    7.8360   -5.7628   -0.3786 C   0  0  2  0  0  0  0  0  0  0  0  0
    8.9515   -6.5007   -1.1640 C   0  0  0  0  0  0  0  0  0  0  0  0
    8.3737   -5.1173    0.8770 C   0  0  0  0  0  0  0  0  0  0  0  0
    8.7928   -5.8560    1.8369 O   0  0  0  0  0  0  0  0  0  0  0  0
    8.3751   -3.7232    1.0755 N   0  0  0  0  0  0  0  0  0  0  0  0
    9.1405   -2.6556    0.3657 C   0  0  2  0  0  0  0  0  0  0  0  0
   10.2110   -3.2426   -0.6032 C   0  0  0  0  0  0  0  0  0  0  0  0
    9.8603   -1.7774    1.3930 C   0  0  0  0  0  0  0  0  0  0  0  0
    9.6082   -1.9102    2.6228 O   0  0  0  0  0  0  0  0  0  0  0  0
   10.7786   -0.7496    1.0596 N   0  0  0  0  0  0  0  0  0  0  0  0
   10.6234    0.2273   -0.0290 C   0  0  2  0  0  0  0  0  0  0  0  0
   12.0300    0.8097   -0.3254 C   0  0  0  0  0  0  0  0  0  0  0  0
    9.6273    1.2374    0.4957 C   0  0  0  0  0  0  0  0  0  0  0  0
    8.4924    0.7935    0.9428 O   0  0  0  0  0  0  0  0  0  0  0  0
    9.8990    2.6166    0.7215 N   0  0  0  0  0  0  0  0  0  0  0  0
   10.2660    3.6230   -0.3176 C   0  0  2  0  0  0  0  0  0  0  0  0
   10.2361    5.0209    0.3265 C   0  0  0  0  0  0  0  0  0  0  0  0
    9.3955    3.5197   -1.5479 C   0  0  0  0  0  0  0  0  0  0  0  0
    9.6807    2.6554   -2.4332 O   0  0  0  0  0  0  0  0  0  0  0  0
    8.3236    4.3962   -1.8210 N   0  0  0  0  0  0  0  0  0  0  0  0
    7.1678    4.7677   -0.9565 C   0  0  2  0  0  0  0  0  0  0  0  0
    6.4880    3.4613   -0.4630 C   0  0  0  0  0  0  0  0  0  0  0  0
    6.1577    5.6002   -1.7369 C   0  0  0  0  0  0  0  0  0  0  0  0
    6.5842    6.4010   -2.6372 O   0  0  0  0  0  0  0  0  0  0  0  0
    4.7686    5.4373   -1.5588 N   0  0  0  0  0  0  0  0  0  0  0  0
    4.0448    5.7940   -0.3073 C   0  0  1  0  0  0  0  0  0  0  0  0
    3.3793    7.1312   -0.6153 C   0  0  0  0  0  0  0  0  0  0  0  0
    4.1797    8.2758   -0.8122 N   0  0  0  0  0  0  0  0  0  0  0  0
    2.1235    7.2263   -0.8031 O   0  0  0  0  0  0  0  0  0  0  0  0
    2.9856    4.7406    0.0434 C   0  0  0  0  0  0  0  0  0  0  0  0
    2.0046    5.4682    1.4387 S   0  0  0  0  0  0  0  0  0  0  0  0
    1.2217    4.0100    2.2188 C   0  0  0  0  0  0  0  0  0  0  0  0
   -6.5393    8.7586   -0.0142 H   0  0  0  0  0  0  0  0  0  0  0  0
   -6.1502    9.7196   -1.4615 H   0  0  0  0  0  0  0  0  0  0  0  0
   -4.9268    8.5406   -0.8444 H   0  0  0  0  0  0  0  0  0  0  0  0
   -6.9814    5.4961   -1.9819 H   0  0  0  0  0  0  0  0  0  0  0  0
   -5.5092    6.7246    0.4805 H   0  0  0  0  0  0  0  0  0  0  0  0
   -4.3372    4.8224    0.7407 H   0  0  0  0  0  0  0  0  0  0  0  0
   -5.2543    3.9061   -0.5002 H   0  0  0  0  0  0  0  0  0  0  0  0
   -2.2283    3.5013   -1.9124 H   0  0  0  0  0  0  0  0  0  0  0  0
   -1.3705    4.9489   -1.5897 H   0  0  0  0  0  0  0  0  0  0  0  0
   -0.4321    5.4053    0.4227 H   0  0  0  0  0  0  0  0  0  0  0  0
   -0.3813    2.1308    3.2143 H   0  0  0  0  0  0  0  0  0  0  0  0
   -3.5042    2.8350    1.1399 H   0  0  0  0  0  0  0  0  0  0  0  0
   -0.5504    1.4522   -0.2348 H   0  0  0  0  0  0  0  0  0  0  0  0
    0.2668    0.8658    1.2078 H   0  0  0  0  0  0  0  0  0  0  0  0
   -0.8001   -2.3511    1.8666 H   0  0  0  0  0  0  0  0  0  0  0  0
    0.6193   -1.3199    1.4068 H   0  0  0  0  0  0  0  0  0  0  0  0
    0.8335   -2.2106   -0.7119 H   0  0  0  0  0  0  0  0  0  0  0  0
   -0.9327   -2.5494   -2.0731 H   0  0  0  0  0  0  0  0  0  0  0  0
   -2.3120   -3.8267    1.1099 H   0  0  0  0  0  0  0  0  0  0  0  0
   -4.4209   -3.7656    1.3289 H   0  0  0  0  0  0  0  0  0  0  0  0
   -4.6374   -3.1571   -0.7298 H   0  0  0  0  0  0  0  0  0  0  0  0
   -4.0931   -2.2622    0.7109 H   0  0  0  0  0  0  0  0  0  0  0  0
   -2.4590   -6.1885    0.7729 H   0  0  0  0  0  0  0  0  0  0  0  0
   -5.4883   -5.0920   -1.3147 H   0  0  0  0  0  0  0  0  0  0  0  0
   -4.7633   -8.0958   -1.2765 H   0  0  0  0  0  0  0  0  0  0  0  0
   -5.7136   -7.3344   -2.6063 H   0  0  0  0  0  0  0  0  0  0  0  0
   -4.0332   -6.7507   -2.2544 H   0  0  0  0  0  0  0  0  0  0  0  0
   -7.1662   -7.4328   -0.4716 H   0  0  0  0  0  0  0  0  0  0  0  0
   -7.1275   -4.4589    1.4818 H   0  0  0  0  0  0  0  0  0  0  0  0
   -6.8176   -2.2205    0.3727 H   0  0  0  0  0  0  0  0  0  0  0  0
   -6.8445   -3.0488   -1.0682 H   0  0  0  0  0  0  0  0  0  0  0  0
   -7.8945   -2.0366    0.5860 H   0  0  0  0  0  0  0  0  0  0  0  0
   -9.3441   -4.5907    2.1217 H   0  0  0  0  0  0  0  0  0  0  0  0
   -9.4742   -1.7208   -0.8286 H   0  0  0  0  0  0  0  0  0  0  0  0
  -12.3952   -2.6356   -0.5717 H   0  0  0  0  0  0  0  0  0  0  0  0
  -11.1087   -3.7033   -1.3046 H   0  0  0  0  0  0  0  0  0  0  0  0
  -11.4622   -2.0493   -2.0246 H   0  0  0  0  0  0  0  0  0  0  0  0
  -11.8554   -0.7948    0.8149 H   0  0  0  0  0  0  0  0  0  0  0  0
   -9.9132    2.0480    1.0412 H   0  0  0  0  0  0  0  0  0  0  0  0
   -8.5697   -0.0235    1.3774 H   0  0  0  0  0  0  0  0  0  0  0  0
   -7.9330    0.1220   -0.3366 H   0  0  0  0  0  0  0  0  0  0  0  0
   -7.5427    1.3976    0.9050 H   0  0  0  0  0  0  0  0  0  0  0  0
   -8.9471    1.9009   -1.8612 H   0  0  0  0  0  0  0  0  0  0  0  0
   -9.0473    5.7426   -0.6285 H   0  0  0  0  0  0  0  0  0  0  0  0
  -10.2238    4.3092    1.8060 H   0  0  0  0  0  0  0  0  0  0  0  0
  -11.2884    5.0505    0.5589 H   0  0  0  0  0  0  0  0  0  0  0  0
  -10.0614    6.0693    1.4445 H   0  0  0  0  0  0  0  0  0  0  0  0
   -8.0367    3.6397    1.2912 H   0  0  0  0  0  0  0  0  0  0  0  0
    1.1330   -5.9545   -0.3223 H   0  0  0  0  0  0  0  0  0  0  0  0
    1.6134   -3.8066   -2.2802 H   0  0  0  0  0  0  0  0  0  0  0  0
    2.3046   -6.7101   -2.0147 H   0  0  0  0  0  0  0  0  0  0  0  0
    3.6609   -5.7692   -2.7034 H   0  0  0  0  0  0  0  0  0  0  0  0
    2.0176   -5.6836   -3.4657 H   0  0  0  0  0  0  0  0  0  0  0  0
    5.4358   -3.9130   -0.4486 H   0  0  0  0  0  0  0  0  0  0  0  0
    3.4841   -6.1834    0.0485 H   0  0  0  0  0  0  0  0  0  0  0  0
    5.6907   -5.5717    1.9916 H   0  0  0  0  0  0  0  0  0  0  0  0
    4.4247   -4.3201    1.8179 H   0  0  0  0  0  0  0  0  0  0  0  0
    3.9403   -6.0010    2.2643 H   0  0  0  0  0  0  0  0  0  0  0  0
    7.2357   -7.6254    0.4478 H   0  0  0  0  0  0  0  0  0  0  0  0
    7.3802   -4.9785   -1.0466 H   0  0  0  0  0  0  0  0  0  0  0  0
    9.1938   -5.9653   -2.1121 H   0  0  0  0  0  0  0  0  0  0  0  0
    9.8925   -6.6296   -0.5619 H   0  0  0  0  0  0  0  0  0  0  0  0
    8.6125   -7.5297   -1.4490 H   0  0  0  0  0  0  0  0  0  0  0  0
    7.9766   -3.4990    2.0117 H   0  0  0  0  0  0  0  0  0  0  0  0
    8.4174   -2.0467   -0.2606 H   0  0  0  0  0  0  0  0  0  0  0  0
    9.7446   -3.5414   -1.5406 H   0  0  0  0  0  0  0  0  0  0  0  0
   10.9943   -2.4749   -0.8451 H   0  0  0  0  0  0  0  0  0  0  0  0
   10.7404   -4.0916   -0.1137 H   0  0  0  0  0  0  0  0  0  0  0  0
   11.2691   -0.3571    1.8848 H   0  0  0  0  0  0  0  0  0  0  0  0
   10.2282   -0.2445   -0.9698 H   0  0  0  0  0  0  0  0  0  0  0  0
   12.0747    1.2649   -1.3318 H   0  0  0  0  0  0  0  0  0  0  0  0
   12.3140    1.5520    0.4684 H   0  0  0  0  0  0  0  0  0  0  0  0
   12.7652   -0.0231   -0.2888 H   0  0  0  0  0  0  0  0  0  0  0  0
    9.6835    2.9135    1.6970 H   0  0  0  0  0  0  0  0  0  0  0  0
   11.2997    3.4387   -0.6575 H   0  0  0  0  0  0  0  0  0  0  0  0
    9.9493    5.7854   -0.3986 H   0  0  0  0  0  0  0  0  0  0  0  0
    9.5054    5.0621    1.1815 H   0  0  0  0  0  0  0  0  0  0  0  0
   11.2496    5.2485    0.7236 H   0  0  0  0  0  0  0  0  0  0  0  0
    8.3056    4.7219   -2.8070 H   0  0  0  0  0  0  0  0  0  0  0  0
    7.5373    5.3411   -0.0374 H   0  0  0  0  0  0  0  0  0  0  0  0
    5.6831    3.1465   -1.1743 H   0  0  0  0  0  0  0  0  0  0  0  0
    7.1926    2.6077   -0.4132 H   0  0  0  0  0  0  0  0  0  0  0  0
    6.0442    3.6205    0.5429 H   0  0  0  0  0  0  0  0  0  0  0  0
    4.1939    5.4984   -2.4266 H   0  0  0  0  0  0  0  0  0  0  0  0
    4.7523    5.8788    0.5509 H   0  0  0  0  0  0  0  0  0  0  0  0
    4.9298    8.2007   -1.5276 H   0  0  0  0  0  0  0  0  0  0  0  0
    3.7278    9.2243   -0.6513 H   0  0  0  0  0  0  0  0  0  0  0  0
    2.3194    4.5532   -0.8386 H   0  0  0  0  0  0  0  0  0  0  0  0
    3.4767    3.7421    0.3943 H   0  0  0  0  0  0  0  0  0  0  0  0
    1.7873    3.0885    1.9272 H   0  0  0  0  0  0  0  0  0  0  0  0
    1.3792    4.1455    3.3070 H   0  0  0  0  0  0  0  0  0  0  0  0
  1  2  1  0
  2  3  2  0
  2  4  1  0
  4  5  1  0
  5  6  1  0
  6  7  1  0
  7  8  1  0
  8  9  1  0
  9 10  2  0
 10 11  1  0
 11 12  2  0
 12 13  1  0
 13 14  2  0
 13 15  1  0
 15 16  1  0
 16 17  1  0
 17 18  1  0
 18 19  1  0
 19 20  1  0
 20 21  2  0
 20 22  1  0
 22 23  1  0
 22 24  1  0
 24 25  1  0
 25 26  2  0
 25 27  1  0
 27 28  1  0
 27 29  1  0
 29 30  1  0
 30 31  2  0
 30 32  1  0
 32 33  1  0
 32 34  1  0
 34 35  1  0
 35 36  2  0
 35 37  1  0
 37 38  1  0
 37 39  1  0
 39 40  1  0
 40 41  2  0
 40 42  1  0
 42 43  1  0
 42 44  1  0
 44 45  1  0
 45 46  2  0
 45 47  1  0
 47 48  1  0
 47 49  1  0
 49 50  1  0
 50 51  2  0
 18 52  1  0
 52 53  2  0
 52 54  1  0
 54 55  1  0
 55 56  1  0
 55 57  1  0
 57 58  2  0
 57 59  1  0
 59 60  1  0
 60 61  1  0
 60 62  1  0
 62 63  2  0
 62 64  1  0
 64 65  1  0
 65 66  1  0
 65 67  1  0
 67 68  2  0
 67 69  1  0
 69 70  1  0
 70 71  1  0
 70 72  1  0
 72 73  2  0
 72 74  1  0
 74 75  1  0
 75 76  1  0
 75 77  1  0
 77 78  2  0
 77 79  1  0
 79 80  1  0
 80 81  1  0
 80 82  1  0
 82 83  2  0
 82 84  1  0
 84 85  1  0
 85 86  1  0
 85 87  1  0
 87 88  2  0
 87 89  1  0
 89 90  1  0
 90 91  1  0
 91 92  1  0
 91 93  2  0
 90 94  1  0
 94 95  1  0
 95 96  1  0
 50  5  1  0
 14  9  1  0
 96 11  1  0
  1 97  1  0
  1 98  1  0
  1 99  1  0
  4100  1  0
  5101  1  1
  6102  1  0
  6103  1  0
  8104  1  0
  8105  1  0
 10106  1  0
 12107  1  0
 14108  1  0
 15109  1  0
 15110  1  0
 17111  1  0
 17112  1  0
 18113  1  6
 19114  1  0
 22115  1  1
 23116  1  0
 23117  1  0
 23118  1  0
 24119  1  0
 27120  1  6
 28121  1  0
 28122  1  0
 28123  1  0
 29124  1  0
 32125  1  1
 33126  1  0
 33127  1  0
 33128  1  0
 34129  1  0
 37130  1  6
 38131  1  0
 38132  1  0
 38133  1  0
 39134  1  0
 42135  1  1
 43136  1  0
 43137  1  0
 43138  1  0
 44139  1  0
 47140  1  6
 48141  1  0
 48142  1  0
 48143  1  0
 49144  1  0
 54145  1  0
 55146  1  6
 56147  1  0
 56148  1  0
 56149  1  0
 59150  1  0
 60151  1  1
 61152  1  0
 61153  1  0
 61154  1  0
 64155  1  0
 65156  1  6
 66157  1  0
 66158  1  0
 66159  1  0
 69160  1  0
 70161  1  6
 71162  1  0
 71163  1  0
 71164  1  0
 74165  1  0
 75166  1  6
 76167  1  0
 76168  1  0
 76169  1  0
 79170  1  0
 80171  1  6
 81172  1  0
 81173  1  0
 81174  1  0
 84175  1  0
 85176  1  1
 86177  1  0
 86178  1  0
 86179  1  0
 89180  1  0
 90181  1  1
 92182  1  0
 92183  1  0
 94184  1  0
 94185  1  0
 96186  1  0
 96187  1  0
M  END
