
     RDKit          3D

167169  0  0  0  0  0  0  0  0999 V2000
   -5.3373    8.7381    1.4676 C   0  0  0  0  0  0  0  0  0  0  0  0
   -5.7224    8.4599    0.0476 C   0  0  0  0  0  0  0  0  0  0  0  0
   -6.4382    9.3044   -0.5553 O   0  0  0  0  0  0  0  0  0  0  0  0
   -5.2808    7.2922   -0.6720 N   0  0  0  0  0  0  0  0  0  0  0  0
   -4.5746    6.1270   -0.1250 C   0  0  1  0  0  0  0  0  0  0  0  0
   -3.1244    6.5009    0.2387 C   0  0  0  0  0  0  0  0  0  0  0  0
   -2.0821    5.0279    0.5612 S   0  0  0  0  0  0  0  0  0  0  0  0
   -1.9652    4.4371   -1.1666 C   0  0  0  0  0  0  0  0  0  0  0  0
   -0.6740    3.6989   -1.3384 C   0  0  0  0  0  0  0  0  0  0  0  0
    0.5276    4.4201   -1.4026 C   0  0  0  0  0  0  0  0  0  0  0  0
    1.7513    3.7532   -1.5474 C   0  0  0  0  0  0  0  0  0  0  0  0
    1.7712    2.3467   -1.5475 C   0  0  0  0  0  0  0  0  0  0  0  0
    0.5815    1.6088   -1.4181 C   0  0  0  0  0  0  0  0  0  0  0  0
   -0.6471    2.2975   -1.3786 C   0  0  0  0  0  0  0  0  0  0  0  0
    0.6482    0.0986   -1.4424 C   0  0  0  0  0  0  0  0  0  0  0  0
   -0.6816   -0.6688   -0.4283 S   0  0  0  0  0  0  0  0  0  0  0  0
    0.3116   -1.9388    0.4483 C   0  0  0  0  0  0  0  0  0  0  0  0
    0.3012   -3.2932   -0.2974 C   0  0  2  0  0  0  0  0  0  0  0  0
    0.0928   -4.4021    0.6431 N   0  0  0  0  0  0  0  0  0  0  0  0
   -0.7944   -5.4775    0.3140 C   0  0  0  0  0  0  0  0  0  0  0  0
   -0.3513   -6.4658   -0.3331 O   0  0  0  0  0  0  0  0  0  0  0  0
   -2.2485   -5.4579    0.7211 C   0  0  1  0  0  0  0  0  0  0  0  0
   -2.5785   -4.3246    1.6953 C   0  0  0  0  0  0  0  0  0  0  0  0
   -3.0865   -5.3302   -0.4775 N   0  0  0  0  0  0  0  0  0  0  0  0
   -3.9860   -6.3368   -0.9682 C   0  0  0  0  0  0  0  0  0  0  0  0
   -4.1259   -6.4639   -2.2158 O   0  0  0  0  0  0  0  0  0  0  0  0
   -4.8027   -7.2430   -0.0724 C   0  0  1  0  0  0  0  0  0  0  0  0
   -4.1129   -8.5933    0.1697 C   0  0  0  0  0  0  0  0  0  0  0  0
   -5.1429   -6.5977    1.2040 N   0  0  0  0  0  0  0  0  0  0  0  0
   -6.4721   -6.1339    1.4729 C   0  0  0  0  0  0  0  0  0  0  0  0
   -7.0659   -6.5484    2.5024 O   0  0  0  0  0  0  0  0  0  0  0  0
   -7.1397   -5.1213    0.5704 C   0  0  1  0  0  0  0  0  0  0  0  0
   -8.2535   -5.7871   -0.2385 C   0  0  0  0  0  0  0  0  0  0  0  0
   -7.6972   -4.0210    1.3789 N   0  0  0  0  0  0  0  0  0  0  0  0
   -8.2764   -2.8253    0.8335 C   0  0  0  0  0  0  0  0  0  0  0  0
   -9.1148   -2.1995    1.5369 O   0  0  0  0  0  0  0  0  0  0  0  0
   -7.8375   -2.2314   -0.4861 C   0  0  1  0  0  0  0  0  0  0  0  0
   -9.0287   -1.7418   -1.3204 C   0  0  0  0  0  0  0  0  0  0  0  0
   -6.8351   -1.1732   -0.2812 N   0  0  0  0  0  0  0  0  0  0  0  0
   -7.0009   -0.0391    0.5862 C   0  0  0  0  0  0  0  0  0  0  0  0
   -6.2291    0.0847    1.5752 O   0  0  0  0  0  0  0  0  0  0  0  0
   -8.0154    1.0470    0.2946 C   0  0  1  0  0  0  0  0  0  0  0  0
   -9.0774    1.0997    1.3932 C   0  0  0  0  0  0  0  0  0  0  0  0
   -7.3566    2.3511    0.2043 N   0  0  0  0  0  0  0  0  0  0  0  0
   -7.9490    3.4389   -0.5337 C   0  0  0  0  0  0  0  0  0  0  0  0
   -8.9291    3.2121   -1.2945 O   0  0  0  0  0  0  0  0  0  0  0  0
   -7.3807    4.8416   -0.4545 C   0  0  1  0  0  0  0  0  0  0  0  0
   -8.4745    5.8973   -0.6413 C   0  0  0  0  0  0  0  0  0  0  0  0
   -6.7239    5.0649    0.8398 N   0  0  0  0  0  0  0  0  0  0  0  0
   -5.3591    5.4822    1.0029 C   0  0  0  0  0  0  0  0  0  0  0  0
   -4.8156    5.3206    2.1271 O   0  0  0  0  0  0  0  0  0  0  0  0
    1.5489   -3.4766   -1.1381 C   0  0  0  0  0  0  0  0  0  0  0  0
    1.6706   -2.7555   -2.1648 O   0  0  0  0  0  0  0  0  0  0  0  0
    2.5770   -4.4515   -0.8751 N   0  0  0  0  0  0  0  0  0  0  0  0
    3.0882   -4.8624    0.4450 C   0  0  2  0  0  0  0  0  0  0  0  0
    3.4191   -3.6568    1.3402 C   0  0  0  0  0  0  0  0  0  0  0  0
    4.2844   -5.7882    0.2967 C   0  0  0  0  0  0  0  0  0  0  0  0
    4.3204   -6.8360    0.9951 O   0  0  0  0  0  0  0  0  0  0  0  0
    5.3368   -5.5720   -0.6615 N   0  0  0  0  0  0  0  0  0  0  0  0
    5.9342   -4.2664   -0.9494 C   0  0  2  0  0  0  0  0  0  0  0  0
    6.1041   -4.0952   -2.4582 C   0  0  0  0  0  0  0  0  0  0  0  0
    7.2306   -4.1211   -0.1912 C   0  0  0  0  0  0  0  0  0  0  0  0
    7.2932   -4.5305    1.0021 O   0  0  0  0  0  0  0  0  0  0  0  0
    8.3478   -3.4175   -0.7575 N   0  0  0  0  0  0  0  0  0  0  0  0
    8.9650   -2.2422   -0.1363 C   0  0  2  0  0  0  0  0  0  0  0  0
    9.8624   -2.6506    1.0347 C   0  0  0  0  0  0  0  0  0  0  0  0
    7.9184   -1.2511    0.2976 C   0  0  0  0  0  0  0  0  0  0  0  0
    7.0870   -1.5667    1.1924 O   0  0  0  0  0  0  0  0  0  0  0  0
    7.7857    0.0145   -0.3633 N   0  0  0  0  0  0  0  0  0  0  0  0
    8.6767    1.1656   -0.1427 C   0  0  2  0  0  0  0  0  0  0  0  0
   10.0738    0.9173   -0.7080 C   0  0  0  0  0  0  0  0  0  0  0  0
    8.7475    1.5752    1.3201 C   0  0  0  0  0  0  0  0  0  0  0  0
    8.4400    0.7460    2.2181 O   0  0  0  0  0  0  0  0  0  0  0  0
    9.2465    2.8621    1.7289 N   0  0  0  0  0  0  0  0  0  0  0  0
    9.0372    4.1135    0.9978 C   0  0  2  0  0  0  0  0  0  0  0  0
   10.3418    4.9133    0.9739 C   0  0  0  0  0  0  0  0  0  0  0  0
    7.9289    4.9028    1.6613 C   0  0  0  0  0  0  0  0  0  0  0  0
    8.1715    5.5255    2.7296 O   0  0  0  0  0  0  0  0  0  0  0  0
    6.5854    4.9308    1.1437 N   0  0  0  0  0  0  0  0  0  0  0  0
    6.0477    3.9127    0.2272 C   0  0  2  0  0  0  0  0  0  0  0  0
    6.3737    4.2360   -1.2127 C   0  0  0  0  0  0  0  0  0  0  0  0
    6.5776    5.5827   -1.6454 N   0  0  0  0  0  0  0  0  0  0  0  0
    6.4577    3.2977   -2.0522 O   0  0  0  0  0  0  0  0  0  0  0  0
    4.5406    3.7027    0.4387 C   0  0  0  0  0  0  0  0  0  0  0  0
    3.5470    5.1660   -0.0397 S   0  0  0  0  0  0  0  0  0  0  0  0
    3.0152    4.5467   -1.6732 C   0  0  0  0  0  0  0  0  0  0  0  0
   -5.9175    9.6010    1.8583 H   0  0  0  0  0  0  0  0  0  0  0  0
   -4.2648    9.0168    1.5118 H   0  0  0  0  0  0  0  0  0  0  0  0
   -5.5406    7.8735    2.1297 H   0  0  0  0  0  0  0  0  0  0  0  0
   -5.5356    7.2430   -1.6835 H   0  0  0  0  0  0  0  0  0  0  0  0
   -4.5060    5.3715   -0.9316 H   0  0  0  0  0  0  0  0  0  0  0  0
   -2.6662    7.1059   -0.5759 H   0  0  0  0  0  0  0  0  0  0  0  0
   -3.1027    7.1199    1.1606 H   0  0  0  0  0  0  0  0  0  0  0  0
   -2.0114    5.2788   -1.8910 H   0  0  0  0  0  0  0  0  0  0  0  0
   -2.8311    3.7726   -1.3710 H   0  0  0  0  0  0  0  0  0  0  0  0
    0.5013    5.5037   -1.3546 H   0  0  0  0  0  0  0  0  0  0  0  0
    2.7176    1.8257   -1.6504 H   0  0  0  0  0  0  0  0  0  0  0  0
   -1.5855    1.7548   -1.3371 H   0  0  0  0  0  0  0  0  0  0  0  0
    0.5519   -0.2549   -2.4914 H   0  0  0  0  0  0  0  0  0  0  0  0
    1.6439   -0.2220   -1.0767 H   0  0  0  0  0  0  0  0  0  0  0  0
    1.3413   -1.5856    0.6543 H   0  0  0  0  0  0  0  0  0  0  0  0
   -0.1748   -2.0466    1.4422 H   0  0  0  0  0  0  0  0  0  0  0  0
   -0.5594   -3.2922   -1.0058 H   0  0  0  0  0  0  0  0  0  0  0  0
    0.3447   -4.2861    1.6508 H   0  0  0  0  0  0  0  0  0  0  0  0
   -2.4504   -6.4128    1.2394 H   0  0  0  0  0  0  0  0  0  0  0  0
   -1.9920   -4.4407    2.6284 H   0  0  0  0  0  0  0  0  0  0  0  0
   -2.3664   -3.3364    1.2461 H   0  0  0  0  0  0  0  0  0  0  0  0
   -3.6553   -4.3548    1.9656 H   0  0  0  0  0  0  0  0  0  0  0  0
   -2.8932   -4.5191   -1.1106 H   0  0  0  0  0  0  0  0  0  0  0  0
   -5.7448   -7.4809   -0.6085 H   0  0  0  0  0  0  0  0  0  0  0  0
   -3.1218   -8.4727    0.6477 H   0  0  0  0  0  0  0  0  0  0  0  0
   -3.9763   -9.1215   -0.7995 H   0  0  0  0  0  0  0  0  0  0  0  0
   -4.7503   -9.2265    0.8248 H   0  0  0  0  0  0  0  0  0  0  0  0
   -4.5363   -6.7907    2.0350 H   0  0  0  0  0  0  0  0  0  0  0  0
   -6.3655   -4.7134   -0.1147 H   0  0  0  0  0  0  0  0  0  0  0  0
   -7.8352   -6.5491   -0.9229 H   0  0  0  0  0  0  0  0  0  0  0  0
   -8.9939   -6.2697    0.4370 H   0  0  0  0  0  0  0  0  0  0  0  0
   -8.7822   -5.0391   -0.8613 H   0  0  0  0  0  0  0  0  0  0  0  0
   -7.8963   -4.1978    2.3933 H   0  0  0  0  0  0  0  0  0  0  0  0
   -7.3633   -3.0177   -1.1062 H   0  0  0  0  0  0  0  0  0  0  0  0
   -8.6703   -1.1920   -2.2168 H   0  0  0  0  0  0  0  0  0  0  0  0
   -9.6242   -2.6150   -1.6653 H   0  0  0  0  0  0  0  0  0  0  0  0
   -9.7059   -1.0878   -0.7315 H   0  0  0  0  0  0  0  0  0  0  0  0
   -5.8506   -1.4318   -0.5043 H   0  0  0  0  0  0  0  0  0  0  0  0
   -8.5046    0.8266   -0.6758 H   0  0  0  0  0  0  0  0  0  0  0  0
   -9.7495    1.9695    1.2368 H   0  0  0  0  0  0  0  0  0  0  0  0
   -8.6048    1.2093    2.3937 H   0  0  0  0  0  0  0  0  0  0  0  0
   -9.7049    0.1912    1.3783 H   0  0  0  0  0  0  0  0  0  0  0  0
   -6.5385    2.5480    0.8165 H   0  0  0  0  0  0  0  0  0  0  0  0
   -6.6626    4.9381   -1.2901 H   0  0  0  0  0  0  0  0  0  0  0  0
   -8.0311    6.9113   -0.5958 H   0  0  0  0  0  0  0  0  0  0  0  0
   -8.9653    5.7829   -1.6332 H   0  0  0  0  0  0  0  0  0  0  0  0
   -9.2396    5.8103    0.1588 H   0  0  0  0  0  0  0  0  0  0  0  0
   -7.2731    4.8486    1.7019 H   0  0  0  0  0  0  0  0  0  0  0  0
    3.0827   -4.7955   -1.7220 H   0  0  0  0  0  0  0  0  0  0  0  0
    2.3073   -5.4595    0.9599 H   0  0  0  0  0  0  0  0  0  0  0  0
    4.2598   -3.8790    2.0309 H   0  0  0  0  0  0  0  0  0  0  0  0
    3.6796   -2.7563    0.7467 H   0  0  0  0  0  0  0  0  0  0  0  0
    2.5415   -3.3944    1.9639 H   0  0  0  0  0  0  0  0  0  0  0  0
    5.8678   -6.4168   -0.9838 H   0  0  0  0  0  0  0  0  0  0  0  0
    5.2622   -3.4568   -0.6174 H   0  0  0  0  0  0  0  0  0  0  0  0
    6.7792   -4.8801   -2.8695 H   0  0  0  0  0  0  0  0  0  0  0  0
    5.1149   -4.1766   -2.9647 H   0  0  0  0  0  0  0  0  0  0  0  0
    6.5173   -3.0897   -2.6933 H   0  0  0  0  0  0  0  0  0  0  0  0
    8.6923   -3.7147   -1.7052 H   0  0  0  0  0  0  0  0  0  0  0  0
    9.6169   -1.7743   -0.8990 H   0  0  0  0  0  0  0  0  0  0  0  0
    9.2673   -3.0593    1.8800 H   0  0  0  0  0  0  0  0  0  0  0  0
   10.4338   -1.7672    1.4042 H   0  0  0  0  0  0  0  0  0  0  0  0
   10.5966   -3.4256    0.7076 H   0  0  0  0  0  0  0  0  0  0  0  0
    6.8654    0.2014   -0.8228 H   0  0  0  0  0  0  0  0  0  0  0  0
    8.2450    1.9955   -0.7315 H   0  0  0  0  0  0  0  0  0  0  0  0
   10.6460    1.8682   -0.7169 H   0  0  0  0  0  0  0  0  0  0  0  0
    9.9969    0.5489   -1.7546 H   0  0  0  0  0  0  0  0  0  0  0  0
   10.6267    0.1866   -0.0884 H   0  0  0  0  0  0  0  0  0  0  0  0
    9.5631    2.9425    2.7254 H   0  0  0  0  0  0  0  0  0  0  0  0
    8.7803    3.9265   -0.0586 H   0  0  0  0  0  0  0  0  0  0  0  0
   11.1305    4.3355    0.4472 H   0  0  0  0  0  0  0  0  0  0  0  0
   10.6984    5.1263    2.0068 H   0  0  0  0  0  0  0  0  0  0  0  0
   10.1931    5.8766    0.4433 H   0  0  0  0  0  0  0  0  0  0  0  0
    5.9197    5.6063    1.5822 H   0  0  0  0  0  0  0  0  0  0  0  0
    6.5137    2.9420    0.4825 H   0  0  0  0  0  0  0  0  0  0  0  0
    6.8550    5.7717   -2.6300 H   0  0  0  0  0  0  0  0  0  0  0  0
    6.4050    6.3954   -1.0084 H   0  0  0  0  0  0  0  0  0  0  0  0
    4.2134    2.7941   -0.1118 H   0  0  0  0  0  0  0  0  0  0  0  0
    4.3555    3.4935    1.5137 H   0  0  0  0  0  0  0  0  0  0  0  0
    2.8271    5.4282   -2.3260 H   0  0  0  0  0  0  0  0  0  0  0  0
    3.8106    3.9532   -2.1706 H   0  0  0  0  0  0  0  0  0  0  0  0
  1  2  1  0
  2  3  2  0
  2  4  1  0
  4  5  1  0
  5  6  1  0
  6  7  1  0
  7  8  1  0
  8  9  1  0
  9 10  2  0
 10 11  1  0
 11 12  2  0
 12 13  1  0
 13 14  2  0
 13 15  1  0
 15 16  1  0
 16 17  1  0
 17 18  1  0
 18 19  1  0
 19 20  1  0
 20 21  2  0
 20 22  1  0
 22 23  1  0
 22 24  1  0
 24 25  1  0
 25 26  2  0
 25 27  1  0
 27 28  1  0
 27 29  1  0
 29 30  1  0
 30 31  2  0
 30 32  1  0
 32 33  1  0
 32 34  1  0
 34 35  1  0
 35 36  2  0
 35 37  1  0
 37 38  1  0
 37 39  1  0
 39 40  1  0
 40 41  2  0
 40 42  1  0
 42 43  1  0
 42 44  1  0
 44 45  1  0
 45 46  2  0
 45 47  1  0
 47 48  1  0
 47 49  1  0
 49 50  1  0
 50 51  2  0
 18 52  1  0
 52 53  2  0
 52 54  1  0
 54 55  1  0
 55 56  1  0
 55 57  1  0
 57 58  2  0
 57 59  1  0
 59 60  1  0
 60 61  1  0
 60 62  1  0
 62 63  2  0
 62 64  1  0
 64 65  1  0
 65 66  1  0
 65 67  1  0
 67 68  2  0
 67 69  1  0
 69 70  1  0
 70 71  1  0
 70 72  1  0
 72 73  2  0
 72 74  1  0
 74 75  1  0
 75 76  1  0
 75 77  1  0
 77 78  2  0
 77 79  1  0
 79 80  1  0
 80 81  1  0
 81 82  1  0
 81 83  2  0
 80 84  1  0
 84 85  1  0
 85 86  1  0
 50  5  1  0
 14  9  1  0
 86 11  1  0
  1 87  1  0
  1 88  1  0
  1 89  1  0
  4 90  1  0
  5 91  1  6
  6 92  1  0
  6 93  1  0
  8 94  1  0
  8 95  1  0
 10 96  1  0
 12 97  1  0
 14 98  1  0
 15 99  1  0
 15100  1  0
 17101  1  0
 17102  1  0
 18103  1  6
 19104  1  0
 22105  1  1
 23106  1  0
 23107  1  0
 23108  1  0
 24109  1  0
 27110  1  6
 28111  1  0
 28112  1  0
 28113  1  0
 29114  1  0
 32115  1  6
 33116  1  0
 33117  1  0
 33118  1  0
 34119  1  0
 37120  1  6
 38121  1  0
 38122  1  0
 38123  1  0
 39124  1  0
 42125  1  6
 43126  1  0
 43127  1  0
 43128  1  0
 44129  1  0
 47130  1  6
 48131  1  0
 48132  1  0
 48133  1  0
 49134  1  0
 54135  1  0
 55136  1  1
 56137  1  0
 56138  1  0
 56139  1  0
 59140  1  0
 60141  1  1
 61142  1  0
 61143  1  0
 61144  1  0
 64145  1  0
 65146  1  6
 66147  1  0
 66148  1  0
 66149  1  0
 69150  1  0
 70151  1  6
 71152  1  0
 71153  1  0
 71154  1  0
 74155  1  0
 75156  1  6
 76157  1  0
 76158  1  0
 76159  1  0
 79160  1  0
 80161  1  1
 82162  1  0
 82163  1  0
 84164  1  0
 84165  1  0
 86166  1  0
 86167  1  0
M  END
