
     RDKit          3D

167169  0  0  0  0  0  0  0  0999 V2000
    4.6641    6.7761   -3.9646 C   0  0  0  0  0  0  0  0  0  0  0  0
    5.2041    6.0478   -2.7764 C   0  0  0  0  0  0  0  0  0  0  0  0
    6.2216    5.3183   -2.9158 O   0  0  0  0  0  0  0  0  0  0  0  0
    4.5734    6.1724   -1.4930 N   0  0  0  0  0  0  0  0  0  0  0  0
    5.1331    5.5316   -0.2944 C   0  0  2  0  0  0  0  0  0  0  0  0
    4.1152    5.5271    0.8647 C   0  0  0  0  0  0  0  0  0  0  0  0
    3.0264    4.0566    0.8098 S   0  0  0  0  0  0  0  0  0  0  0  0
    1.8815    4.6547   -0.4850 C   0  0  0  0  0  0  0  0  0  0  0  0
    0.5861    3.8899   -0.4065 C   0  0  0  0  0  0  0  0  0  0  0  0
   -0.6042    4.5546   -0.0772 C   0  0  0  0  0  0  0  0  0  0  0  0
   -1.8098    3.8460    0.0347 C   0  0  0  0  0  0  0  0  0  0  0  0
   -1.8141    2.4540   -0.1653 C   0  0  0  0  0  0  0  0  0  0  0  0
   -0.6414    1.7789   -0.5331 C   0  0  0  0  0  0  0  0  0  0  0  0
    0.5555    2.5074   -0.6709 C   0  0  0  0  0  0  0  0  0  0  0  0
   -0.7541    0.3296   -0.9375 C   0  0  0  0  0  0  0  0  0  0  0  0
    0.7768   -0.6423   -0.6764 S   0  0  0  0  0  0  0  0  0  0  0  0
    0.0826   -2.2187   -1.3174 C   0  0  0  0  0  0  0  0  0  0  0  0
   -0.5089   -3.0596   -0.1682 C   0  0  2  0  0  0  0  0  0  0  0  0
    0.5244   -3.3971    0.8270 N   0  0  0  0  0  0  0  0  0  0  0  0
    1.7970   -4.0248    0.5816 C   0  0  0  0  0  0  0  0  0  0  0  0
    2.7422   -3.7889    1.3804 O   0  0  0  0  0  0  0  0  0  0  0  0
    2.0159   -5.0266   -0.5285 C   0  0  1  0  0  0  0  0  0  0  0  0
    3.2476   -4.7050   -1.3956 C   0  0  0  0  0  0  0  0  0  0  0  0
    2.0233   -6.3943    0.0180 N   0  0  0  0  0  0  0  0  0  0  0  0
    3.1543   -7.2118    0.3848 C   0  0  0  0  0  0  0  0  0  0  0  0
    3.0167   -8.4674    0.3439 O   0  0  0  0  0  0  0  0  0  0  0  0
    4.4954   -6.6535    0.8195 C   0  0  1  0  0  0  0  0  0  0  0  0
    4.9475   -7.3198    2.1257 C   0  0  0  0  0  0  0  0  0  0  0  0
    5.4870   -6.9056   -0.2387 N   0  0  0  0  0  0  0  0  0  0  0  0
    6.7209   -6.1952   -0.4382 C   0  0  0  0  0  0  0  0  0  0  0  0
    7.4375   -6.5155   -1.4217 O   0  0  0  0  0  0  0  0  0  0  0  0
    7.2288   -5.1194    0.5050 C   0  0  1  0  0  0  0  0  0  0  0  0
    8.5237   -5.5922    1.1665 C   0  0  0  0  0  0  0  0  0  0  0  0
    7.4579   -3.8667   -0.2265 N   0  0  0  0  0  0  0  0  0  0  0  0
    7.6933   -2.6176    0.4420 C   0  0  0  0  0  0  0  0  0  0  0  0
    7.5003   -2.5194    1.6827 O   0  0  0  0  0  0  0  0  0  0  0  0
    8.0944   -1.3859   -0.3319 C   0  0  1  0  0  0  0  0  0  0  0  0
    9.2734   -1.6636   -1.2634 C   0  0  0  0  0  0  0  0  0  0  0  0
    6.9417   -0.9031   -1.1008 N   0  0  0  0  0  0  0  0  0  0  0  0
    6.4369    0.4462   -1.1119 C   0  0  0  0  0  0  0  0  0  0  0  0
    5.7812    0.8295   -2.1244 O   0  0  0  0  0  0  0  0  0  0  0  0
    6.6504    1.4474    0.0106 C   0  0  1  0  0  0  0  0  0  0  0  0
    6.3318    0.8715    1.4011 C   0  0  0  0  0  0  0  0  0  0  0  0
    8.0041    2.0092   -0.0476 N   0  0  0  0  0  0  0  0  0  0  0  0
    8.3872    3.3144    0.4237 C   0  0  0  0  0  0  0  0  0  0  0  0
    9.5465    3.7327    0.1524 O   0  0  0  0  0  0  0  0  0  0  0  0
    7.4816    4.2002    1.2526 C   0  0  1  0  0  0  0  0  0  0  0  0
    7.9488    4.2092    2.7089 C   0  0  0  0  0  0  0  0  0  0  0  0
    7.5086    5.5684    0.7224 N   0  0  0  0  0  0  0  0  0  0  0  0
    6.3908    6.2568    0.1278 C   0  0  0  0  0  0  0  0  0  0  0  0
    6.4759    7.4990   -0.0516 O   0  0  0  0  0  0  0  0  0  0  0  0
   -1.2693   -4.2871   -0.6415 C   0  0  0  0  0  0  0  0  0  0  0  0
   -1.2568   -4.5918   -1.8603 O   0  0  0  0  0  0  0  0  0  0  0  0
   -2.0555   -5.0981    0.2553 N   0  0  0  0  0  0  0  0  0  0  0  0
   -2.3015   -4.7934    1.6732 C   0  0  2  0  0  0  0  0  0  0  0  0
   -2.9525   -5.9902    2.3850 C   0  0  0  0  0  0  0  0  0  0  0  0
   -3.1224   -3.5332    1.8562 C   0  0  0  0  0  0  0  0  0  0  0  0
   -2.7408   -2.7058    2.7314 O   0  0  0  0  0  0  0  0  0  0  0  0
   -4.2784   -3.1957    1.0646 N   0  0  0  0  0  0  0  0  0  0  0  0
   -5.1431   -4.1452    0.3577 C   0  0  2  0  0  0  0  0  0  0  0  0
   -5.5370   -3.5727   -1.0087 C   0  0  0  0  0  0  0  0  0  0  0  0
   -6.3479   -4.4807    1.2029 C   0  0  0  0  0  0  0  0  0  0  0  0
   -6.2496   -5.3882    2.0743 O   0  0  0  0  0  0  0  0  0  0  0  0
   -7.6248   -3.8560    1.0102 N   0  0  0  0  0  0  0  0  0  0  0  0
   -7.8436   -2.4471    1.3783 C   0  0  2  0  0  0  0  0  0  0  0  0
   -8.0540   -2.3421    2.8907 C   0  0  0  0  0  0  0  0  0  0  0  0
   -9.0507   -1.8873    0.6614 C   0  0  0  0  0  0  0  0  0  0  0  0
   -9.9869   -2.6614    0.3113 O   0  0  0  0  0  0  0  0  0  0  0  0
   -9.1735   -0.4702    0.4588 N   0  0  0  0  0  0  0  0  0  0  0  0
  -10.3840    0.1252   -0.1057 C   0  0  2  0  0  0  0  0  0  0  0  0
  -10.5047   -0.2081   -1.5960 C   0  0  0  0  0  0  0  0  0  0  0  0
  -10.3697    1.6246    0.0802 C   0  0  0  0  0  0  0  0  0  0  0  0
  -11.3081    2.1779    0.7252 O   0  0  0  0  0  0  0  0  0  0  0  0
   -9.3257    2.4173   -0.4950 N   0  0  0  0  0  0  0  0  0  0  0  0
   -9.2945    3.8812   -0.3986 C   0  0  2  0  0  0  0  0  0  0  0  0
  -10.2972    4.4927   -1.3851 C   0  0  0  0  0  0  0  0  0  0  0  0
   -7.8987    4.3847   -0.6684 C   0  0  0  0  0  0  0  0  0  0  0  0
   -7.4563    4.3629   -1.8497 O   0  0  0  0  0  0  0  0  0  0  0  0
   -7.0550    4.7848    0.4292 N   0  0  0  0  0  0  0  0  0  0  0  0
   -6.0911    5.8997    0.3851 C   0  0  2  0  0  0  0  0  0  0  0  0
   -6.8174    7.2024    0.6282 C   0  0  0  0  0  0  0  0  0  0  0  0
   -6.9598    8.2091   -0.3796 N   0  0  0  0  0  0  0  0  0  0  0  0
   -7.3168    7.4091    1.7656 O   0  0  0  0  0  0  0  0  0  0  0  0
   -5.1816    5.8967   -0.8616 C   0  0  0  0  0  0  0  0  0  0  0  0
   -4.2694    4.3223   -1.0518 S   0  0  0  0  0  0  0  0  0  0  0  0
   -3.0991    4.5607    0.3377 C   0  0  0  0  0  0  0  0  0  0  0  0
    4.3778    6.0437   -4.7525 H   0  0  0  0  0  0  0  0  0  0  0  0
    5.4455    7.4566   -4.3654 H   0  0  0  0  0  0  0  0  0  0  0  0
    3.7737    7.3760   -3.6919 H   0  0  0  0  0  0  0  0  0  0  0  0
    3.7442    6.7995   -1.4059 H   0  0  0  0  0  0  0  0  0  0  0  0
    5.3830    4.4909   -0.5599 H   0  0  0  0  0  0  0  0  0  0  0  0
    4.6594    5.4668    1.8361 H   0  0  0  0  0  0  0  0  0  0  0  0
    3.5265    6.4656    0.8944 H   0  0  0  0  0  0  0  0  0  0  0  0
    2.3420    4.5101   -1.4823 H   0  0  0  0  0  0  0  0  0  0  0  0
    1.6992    5.7391   -0.3457 H   0  0  0  0  0  0  0  0  0  0  0  0
   -0.5997    5.6290    0.0840 H   0  0  0  0  0  0  0  0  0  0  0  0
   -2.7488    1.9102   -0.0766 H   0  0  0  0  0  0  0  0  0  0  0  0
    1.4721    2.0130   -0.9696 H   0  0  0  0  0  0  0  0  0  0  0  0
   -1.0322    0.2953   -2.0154 H   0  0  0  0  0  0  0  0  0  0  0  0
   -1.5685   -0.1546   -0.3568 H   0  0  0  0  0  0  0  0  0  0  0  0
   -0.6953   -2.0185   -2.0857 H   0  0  0  0  0  0  0  0  0  0  0  0
    0.8953   -2.7641   -1.8280 H   0  0  0  0  0  0  0  0  0  0  0  0
   -1.2612   -2.4113    0.3187 H   0  0  0  0  0  0  0  0  0  0  0  0
    0.3892   -2.9791    1.7817 H   0  0  0  0  0  0  0  0  0  0  0  0
    1.1715   -4.9812   -1.2326 H   0  0  0  0  0  0  0  0  0  0  0  0
    3.5281   -5.5848   -2.0074 H   0  0  0  0  0  0  0  0  0  0  0  0
    4.1217   -4.3813   -0.7918 H   0  0  0  0  0  0  0  0  0  0  0  0
    3.0107   -3.8664   -2.0842 H   0  0  0  0  0  0  0  0  0  0  0  0
    1.1007   -6.8864   -0.0054 H   0  0  0  0  0  0  0  0  0  0  0  0
    4.3966   -5.5752    1.0171 H   0  0  0  0  0  0  0  0  0  0  0  0
    5.1335   -8.4031    1.9716 H   0  0  0  0  0  0  0  0  0  0  0  0
    5.8787   -6.8536    2.5027 H   0  0  0  0  0  0  0  0  0  0  0  0
    4.1612   -7.2017    2.9066 H   0  0  0  0  0  0  0  0  0  0  0  0
    5.3299   -7.7309   -0.8593 H   0  0  0  0  0  0  0  0  0  0  0  0
    6.4870   -4.9293    1.3028 H   0  0  0  0  0  0  0  0  0  0  0  0
    9.3120   -5.7725    0.4026 H   0  0  0  0  0  0  0  0  0  0  0  0
    8.8977   -4.8293    1.8834 H   0  0  0  0  0  0  0  0  0  0  0  0
    8.3455   -6.5359    1.7279 H   0  0  0  0  0  0  0  0  0  0  0  0
    7.4540   -3.8791   -1.2721 H   0  0  0  0  0  0  0  0  0  0  0  0
    8.4381   -0.6255    0.3875 H   0  0  0  0  0  0  0  0  0  0  0  0
   10.1140   -2.1233   -0.6988 H   0  0  0  0  0  0  0  0  0  0  0  0
    9.6353   -0.7046   -1.6979 H   0  0  0  0  0  0  0  0  0  0  0  0
    8.9851   -2.3303   -2.0973 H   0  0  0  0  0  0  0  0  0  0  0  0
    6.5546   -1.5543   -1.8209 H   0  0  0  0  0  0  0  0  0  0  0  0
    5.9128    2.2582   -0.1801 H   0  0  0  0  0  0  0  0  0  0  0  0
    5.9685    1.6750    2.0735 H   0  0  0  0  0  0  0  0  0  0  0  0
    5.5259    0.1041    1.3380 H   0  0  0  0  0  0  0  0  0  0  0  0
    7.2219    0.4222    1.8830 H   0  0  0  0  0  0  0  0  0  0  0  0
    8.7383    1.4797   -0.5738 H   0  0  0  0  0  0  0  0  0  0  0  0
    6.4454    3.8168    1.2681 H   0  0  0  0  0  0  0  0  0  0  0  0
    7.3005    4.8807    3.3063 H   0  0  0  0  0  0  0  0  0  0  0  0
    7.8909    3.1884    3.1373 H   0  0  0  0  0  0  0  0  0  0  0  0
    8.9992    4.5689    2.7779 H   0  0  0  0  0  0  0  0  0  0  0  0
    8.4133    6.1006    0.7786 H   0  0  0  0  0  0  0  0  0  0  0  0
   -2.4555   -5.9788   -0.1448 H   0  0  0  0  0  0  0  0  0  0  0  0
   -1.3216   -4.6468    2.1771 H   0  0  0  0  0  0  0  0  0  0  0  0
   -2.2322   -6.8335    2.4301 H   0  0  0  0  0  0  0  0  0  0  0  0
   -3.2255   -5.7129    3.4264 H   0  0  0  0  0  0  0  0  0  0  0  0
   -3.8580   -6.3443    1.8569 H   0  0  0  0  0  0  0  0  0  0  0  0
   -4.6405   -2.2214    1.1742 H   0  0  0  0  0  0  0  0  0  0  0  0
   -4.6096   -5.0860    0.1444 H   0  0  0  0  0  0  0  0  0  0  0  0
   -5.9762   -2.5560   -0.9141 H   0  0  0  0  0  0  0  0  0  0  0  0
   -4.6353   -3.4982   -1.6582 H   0  0  0  0  0  0  0  0  0  0  0  0
   -6.2723   -4.2377   -1.5086 H   0  0  0  0  0  0  0  0  0  0  0  0
   -8.4479   -4.4892    0.9672 H   0  0  0  0  0  0  0  0  0  0  0  0
   -6.9596   -1.8426    1.1028 H   0  0  0  0  0  0  0  0  0  0  0  0
   -8.9301   -2.9454    3.2042 H   0  0  0  0  0  0  0  0  0  0  0  0
   -7.1464   -2.7164    3.4172 H   0  0  0  0  0  0  0  0  0  0  0  0
   -8.2158   -1.2840    3.1874 H   0  0  0  0  0  0  0  0  0  0  0  0
   -8.4756    0.1471    0.9541 H   0  0  0  0  0  0  0  0  0  0  0  0
  -11.2700   -0.2932    0.4212 H   0  0  0  0  0  0  0  0  0  0  0  0
  -11.4008    0.2890   -2.0292 H   0  0  0  0  0  0  0  0  0  0  0  0
   -9.6032    0.1302   -2.1512 H   0  0  0  0  0  0  0  0  0  0  0  0
  -10.6211   -1.3014   -1.7464 H   0  0  0  0  0  0  0  0  0  0  0  0
   -8.5085    1.9169   -0.9247 H   0  0  0  0  0  0  0  0  0  0  0  0
   -9.5878    4.1829    0.6328 H   0  0  0  0  0  0  0  0  0  0  0  0
  -10.2389    5.6015   -1.3493 H   0  0  0  0  0  0  0  0  0  0  0  0
  -11.3265    4.1860   -1.1124 H   0  0  0  0  0  0  0  0  0  0  0  0
  -10.0837    4.1449   -2.4186 H   0  0  0  0  0  0  0  0  0  0  0  0
   -7.4028    4.5259    1.3766 H   0  0  0  0  0  0  0  0  0  0  0  0
   -5.4083    5.7772    1.2599 H   0  0  0  0  0  0  0  0  0  0  0  0
   -6.5846    8.0902   -1.3449 H   0  0  0  0  0  0  0  0  0  0  0  0
   -7.4923    9.0824   -0.1693 H   0  0  0  0  0  0  0  0  0  0  0  0
   -4.4576    6.7358   -0.7961 H   0  0  0  0  0  0  0  0  0  0  0  0
   -5.7709    6.0586   -1.7875 H   0  0  0  0  0  0  0  0  0  0  0  0
   -2.9101    5.6409    0.5137 H   0  0  0  0  0  0  0  0  0  0  0  0
   -3.5433    4.1316    1.2592 H   0  0  0  0  0  0  0  0  0  0  0  0
  1  2  1  0
  2  3  2  0
  2  4  1  0
  4  5  1  0
  5  6  1  0
  6  7  1  0
  7  8  1  0
  8  9  1  0
  9 10  2  0
 10 11  1  0
 11 12  2  0
 12 13  1  0
 13 14  2  0
 13 15  1  0
 15 16  1  0
 16 17  1  0
 17 18  1  0
 18 19  1  0
 19 20  1  0
 20 21  2  0
 20 22  1  0
 22 23  1  0
 22 24  1  0
 24 25  1  0
 25 26  2  0
 25 27  1  0
 27 28  1  0
 27 29  1  0
 29 30  1  0
 30 31  2  0
 30 32  1  0
 32 33  1  0
 32 34  1  0
 34 35  1  0
 35 36  2  0
 35 37  1  0
 37 38  1  0
 37 39  1  0
 39 40  1  0
 40 41  2  0
 40 42  1  0
 42 43  1  0
 42 44  1  0
 44 45  1  0
 45 46  2  0
 45 47  1  0
 47 48  1  0
 47 49  1  0
 49 50  1  0
 50 51  2  0
 18 52  1  0
 52 53  2  0
 52 54  1  0
 54 55  1  0
 55 56  1  0
 55 57  1  0
 57 58  2  0
 57 59  1  0
 59 60  1  0
 60 61  1  0
 60 62  1  0
 62 63  2  0
 62 64  1  0
 64 65  1  0
 65 66  1  0
 65 67  1  0
 67 68  2  0
 67 69  1  0
 69 70  1  0
 70 71  1  0
 70 72  1  0
 72 73  2  0
 72 74  1  0
 74 75  1  0
 75 76  1  0
 75 77  1  0
 77 78  2  0
 77 79  1  0
 79 80  1  0
 80 81  1  0
 81 82  1  0
 81 83  2  0
 80 84  1  0
 84 85  1  0
 85 86  1  0
 50  5  1  0
 14  9  1  0
 86 11  1  0
  1 87  1  0
  1 88  1  0
  1 89  1  0
  4 90  1  0
  5 91  1  6
  6 92  1  0
  6 93  1  0
  8 94  1  0
  8 95  1  0
 10 96  1  0
 12 97  1  0
 14 98  1  0
 15 99  1  0
 15100  1  0
 17101  1  0
 17102  1  0
 18103  1  1
 19104  1  0
 22105  1  6
 23106  1  0
 23107  1  0
 23108  1  0
 24109  1  0
 27110  1  1
 28111  1  0
 28112  1  0
 28113  1  0
 29114  1  0
 32115  1  1
 33116  1  0
 33117  1  0
 33118  1  0
 34119  1  0
 37120  1  1
 38121  1  0
 38122  1  0
 38123  1  0
 39124  1  0
 42125  1  6
 43126  1  0
 43127  1  0
 43128  1  0
 44129  1  0
 47130  1  1
 48131  1  0
 48132  1  0
 48133  1  0
 49134  1  0
 54135  1  0
 55136  1  1
 56137  1  0
 56138  1  0
 56139  1  0
 59140  1  0
 60141  1  6
 61142  1  0
 61143  1  0
 61144  1  0
 64145  1  0
 65146  1  6
 66147  1  0
 66148  1  0
 66149  1  0
 69150  1  0
 70151  1  1
 71152  1  0
 71153  1  0
 71154  1  0
 74155  1  0
 75156  1  1
 76157  1  0
 76158  1  0
 76159  1  0
 79160  1  0
 80161  1  1
 82162  1  0
 82163  1  0
 84164  1  0
 84165  1  0
 86166  1  0
 86167  1  0
M  END
