
     RDKit          3D

167169  0  0  0  0  0  0  0  0999 V2000
    5.9672    8.2245    1.4904 C   0  0  0  0  0  0  0  0  0  0  0  0
    5.3998    6.9448    2.0245 C   0  0  0  0  0  0  0  0  0  0  0  0
    5.3126    6.7866    3.2719 O   0  0  0  0  0  0  0  0  0  0  0  0
    4.9601    5.8846    1.1558 N   0  0  0  0  0  0  0  0  0  0  0  0
    5.1800    5.8809   -0.2950 C   0  0  2  0  0  0  0  0  0  0  0  0
    4.0558    5.1156   -1.0071 C   0  0  0  0  0  0  0  0  0  0  0  0
    2.4395    5.8963   -0.6209 S   0  0  0  0  0  0  0  0  0  0  0  0
    1.4399    5.0413   -1.8936 C   0  0  0  0  0  0  0  0  0  0  0  0
    0.5348    4.0341   -1.2426 C   0  0  0  0  0  0  0  0  0  0  0  0
   -0.7717    4.3898   -0.8628 C   0  0  0  0  0  0  0  0  0  0  0  0
   -1.6328    3.4361   -0.2886 C   0  0  0  0  0  0  0  0  0  0  0  0
   -1.1697    2.1250   -0.0831 C   0  0  0  0  0  0  0  0  0  0  0  0
    0.1306    1.7568   -0.4711 C   0  0  0  0  0  0  0  0  0  0  0  0
    0.9781    2.7176   -1.0456 C   0  0  0  0  0  0  0  0  0  0  0  0
    0.6329    0.3614   -0.2336 C   0  0  0  0  0  0  0  0  0  0  0  0
   -0.4736   -0.8611   -1.0198 S   0  0  0  0  0  0  0  0  0  0  0  0
    0.4430   -2.3383   -0.4358 C   0  0  0  0  0  0  0  0  0  0  0  0
   -0.4766   -3.5684   -0.2893 C   0  0  2  0  0  0  0  0  0  0  0  0
    0.3326   -4.6896    0.2181 N   0  0  0  0  0  0  0  0  0  0  0  0
    0.4438   -5.9872   -0.3909 C   0  0  0  0  0  0  0  0  0  0  0  0
   -0.6017   -6.6388   -0.6727 O   0  0  0  0  0  0  0  0  0  0  0  0
    1.8173   -6.5675   -0.6437 C   0  0  1  0  0  0  0  0  0  0  0  0
    1.7553   -7.8513   -1.4790 C   0  0  0  0  0  0  0  0  0  0  0  0
    2.6411   -5.5742   -1.3396 N   0  0  0  0  0  0  0  0  0  0  0  0
    4.0725   -5.6042   -1.2545 C   0  0  0  0  0  0  0  0  0  0  0  0
    4.7310   -6.0218   -2.2401 O   0  0  0  0  0  0  0  0  0  0  0  0
    4.8222   -5.1176   -0.0345 C   0  0  1  0  0  0  0  0  0  0  0  0
    3.9288   -4.4024    0.9859 C   0  0  0  0  0  0  0  0  0  0  0  0
    5.5010   -6.2492    0.6029 N   0  0  0  0  0  0  0  0  0  0  0  0
    6.9255   -6.4187    0.7699 C   0  0  0  0  0  0  0  0  0  0  0  0
    7.3322   -7.4433    1.3857 O   0  0  0  0  0  0  0  0  0  0  0  0
    7.9670   -5.4360    0.2728 C   0  0  1  0  0  0  0  0  0  0  0  0
    8.0330   -5.4235   -1.2644 C   0  0  0  0  0  0  0  0  0  0  0  0
    7.7313   -4.0954    0.8312 N   0  0  0  0  0  0  0  0  0  0  0  0
    8.5528   -2.9586    0.5014 C   0  0  0  0  0  0  0  0  0  0  0  0
    9.7482   -3.1427    0.1359 O   0  0  0  0  0  0  0  0  0  0  0  0
    8.0045   -1.5481    0.5042 C   0  0  1  0  0  0  0  0  0  0  0  0
    6.5976   -1.4363    1.1138 C   0  0  0  0  0  0  0  0  0  0  0  0
    8.9122   -0.6556    1.2342 N   0  0  0  0  0  0  0  0  0  0  0  0
    9.0658    0.7490    0.9453 C   0  0  0  0  0  0  0  0  0  0  0  0
    9.3850    1.5287    1.8827 O   0  0  0  0  0  0  0  0  0  0  0  0
    8.8664    1.3152   -0.4463 C   0  0  1  0  0  0  0  0  0  0  0  0
    7.3905    1.6610   -0.7040 C   0  0  0  0  0  0  0  0  0  0  0  0
    9.7688    2.4610   -0.6584 N   0  0  0  0  0  0  0  0  0  0  0  0
    9.3566    3.8233   -0.8469 C   0  0  0  0  0  0  0  0  0  0  0  0
    9.5187    4.3531   -1.9802 O   0  0  0  0  0  0  0  0  0  0  0  0
    8.8390    4.6458    0.3110 C   0  0  1  0  0  0  0  0  0  0  0  0
    9.4135    6.0676    0.3032 C   0  0  0  0  0  0  0  0  0  0  0  0
    7.3695    4.6841    0.3560 N   0  0  0  0  0  0  0  0  0  0  0  0
    6.5401    5.3180   -0.6411 C   0  0  0  0  0  0  0  0  0  0  0  0
    6.9702    5.4583   -1.8185 O   0  0  0  0  0  0  0  0  0  0  0  0
   -1.1502   -3.9123   -1.6120 C   0  0  0  0  0  0  0  0  0  0  0  0
   -0.4109   -4.0921   -2.6178 O   0  0  0  0  0  0  0  0  0  0  0  0
   -2.5716   -4.1061   -1.7703 N   0  0  0  0  0  0  0  0  0  0  0  0
   -3.6745   -3.6508   -0.8996 C   0  0  2  0  0  0  0  0  0  0  0  0
   -3.5785   -2.1467   -0.5965 C   0  0  0  0  0  0  0  0  0  0  0  0
   -3.8219   -4.5164    0.3363 C   0  0  0  0  0  0  0  0  0  0  0  0
   -2.8218   -5.1578    0.7700 O   0  0  0  0  0  0  0  0  0  0  0  0
   -5.0817   -4.6957    1.0105 N   0  0  0  0  0  0  0  0  0  0  0  0
   -6.1911   -3.7330    0.9945 C   0  0  2  0  0  0  0  0  0  0  0  0
   -6.0047   -2.7537    2.1609 C   0  0  0  0  0  0  0  0  0  0  0  0
   -7.5112   -4.4679    1.0885 C   0  0  0  0  0  0  0  0  0  0  0  0
   -7.6186   -5.6214    0.5861 O   0  0  0  0  0  0  0  0  0  0  0  0
   -8.6513   -3.8960    1.7506 N   0  0  0  0  0  0  0  0  0  0  0  0
   -9.4515   -2.7665    1.2447 C   0  0  2  0  0  0  0  0  0  0  0  0
  -10.8702   -3.2459    0.9302 C   0  0  0  0  0  0  0  0  0  0  0  0
   -8.8378   -2.0938    0.0353 C   0  0  0  0  0  0  0  0  0  0  0  0
   -8.7966   -2.7040   -1.0664 O   0  0  0  0  0  0  0  0  0  0  0  0
   -8.2023   -0.8117    0.1581 N   0  0  0  0  0  0  0  0  0  0  0  0
   -8.8919    0.4714   -0.0460 C   0  0  2  0  0  0  0  0  0  0  0  0
  -10.3271    0.4496    0.4917 C   0  0  0  0  0  0  0  0  0  0  0  0
   -8.8974    0.8514   -1.5154 C   0  0  0  0  0  0  0  0  0  0  0  0
   -8.6257   -0.0252   -2.3816 O   0  0  0  0  0  0  0  0  0  0  0  0
   -9.2831    2.1589   -1.9698 N   0  0  0  0  0  0  0  0  0  0  0  0
   -9.0538    3.4103   -1.2377 C   0  0  2  0  0  0  0  0  0  0  0  0
  -10.3764    4.1807   -1.1081 C   0  0  0  0  0  0  0  0  0  0  0  0
   -8.0439    4.2613   -1.9866 C   0  0  0  0  0  0  0  0  0  0  0  0
   -8.2764    4.5233   -3.1984 O   0  0  0  0  0  0  0  0  0  0  0  0
   -6.8676    4.8387   -1.3825 N   0  0  0  0  0  0  0  0  0  0  0  0
   -6.3172    4.5748   -0.0425 C   0  0  1  0  0  0  0  0  0  0  0  0
   -7.3194    4.8927    1.0437 C   0  0  0  0  0  0  0  0  0  0  0  0
   -7.9572    6.1704    1.0676 N   0  0  0  0  0  0  0  0  0  0  0  0
   -7.6077    4.0395    1.9259 O   0  0  0  0  0  0  0  0  0  0  0  0
   -5.7195    3.1561    0.0403 C   0  0  0  0  0  0  0  0  0  0  0  0
   -4.2360    2.9801   -1.0210 S   0  0  0  0  0  0  0  0  0  0  0  0
   -3.0411    3.8046    0.0992 C   0  0  0  0  0  0  0  0  0  0  0  0
    5.2071    8.7531    0.8798 H   0  0  0  0  0  0  0  0  0  0  0  0
    6.8593    8.0045    0.8693 H   0  0  0  0  0  0  0  0  0  0  0  0
    6.2785    8.8819    2.3248 H   0  0  0  0  0  0  0  0  0  0  0  0
    4.5778    5.0200    1.6051 H   0  0  0  0  0  0  0  0  0  0  0  0
    5.1458    6.9269   -0.6755 H   0  0  0  0  0  0  0  0  0  0  0  0
    4.2313    5.1503   -2.1050 H   0  0  0  0  0  0  0  0  0  0  0  0
    4.0349    4.0543   -0.6784 H   0  0  0  0  0  0  0  0  0  0  0  0
    0.8345    5.8080   -2.4230 H   0  0  0  0  0  0  0  0  0  0  0  0
    2.0696    4.5482   -2.6630 H   0  0  0  0  0  0  0  0  0  0  0  0
   -1.1146    5.4101   -1.0022 H   0  0  0  0  0  0  0  0  0  0  0  0
   -1.8348    1.3896    0.3634 H   0  0  0  0  0  0  0  0  0  0  0  0
    1.9814    2.4439   -1.3463 H   0  0  0  0  0  0  0  0  0  0  0  0
    0.6746    0.1839    0.8578 H   0  0  0  0  0  0  0  0  0  0  0  0
    1.6519    0.2245   -0.6556 H   0  0  0  0  0  0  0  0  0  0  0  0
    0.8946   -2.1296    0.5553 H   0  0  0  0  0  0  0  0  0  0  0  0
    1.2635   -2.5565   -1.1536 H   0  0  0  0  0  0  0  0  0  0  0  0
   -1.2279   -3.3301    0.4803 H   0  0  0  0  0  0  0  0  0  0  0  0
    0.9224   -4.5057    1.0653 H   0  0  0  0  0  0  0  0  0  0  0  0
    2.2727   -6.8253    0.3356 H   0  0  0  0  0  0  0  0  0  0  0  0
    1.1463   -8.6230   -0.9584 H   0  0  0  0  0  0  0  0  0  0  0  0
    1.3028   -7.6494   -2.4753 H   0  0  0  0  0  0  0  0  0  0  0  0
    2.7793   -8.2557   -1.6246 H   0  0  0  0  0  0  0  0  0  0  0  0
    2.2410   -5.1678   -2.2145 H   0  0  0  0  0  0  0  0  0  0  0  0
    5.5401   -4.3594   -0.3856 H   0  0  0  0  0  0  0  0  0  0  0  0
    3.2320   -5.1136    1.4713 H   0  0  0  0  0  0  0  0  0  0  0  0
    3.3493   -3.5873    0.4949 H   0  0  0  0  0  0  0  0  0  0  0  0
    4.5560   -3.9508    1.7835 H   0  0  0  0  0  0  0  0  0  0  0  0
    4.8909   -6.9961    1.0050 H   0  0  0  0  0  0  0  0  0  0  0  0
    8.9610   -5.7813    0.6331 H   0  0  0  0  0  0  0  0  0  0  0  0
    8.9804   -4.9490   -1.5997 H   0  0  0  0  0  0  0  0  0  0  0  0
    7.1928   -4.8631   -1.7177 H   0  0  0  0  0  0  0  0  0  0  0  0
    8.0263   -6.4638   -1.6563 H   0  0  0  0  0  0  0  0  0  0  0  0
    6.9445   -3.9667    1.5047 H   0  0  0  0  0  0  0  0  0  0  0  0
    7.9383   -1.2463   -0.5572 H   0  0  0  0  0  0  0  0  0  0  0  0
    5.8742   -2.0354    0.5221 H   0  0  0  0  0  0  0  0  0  0  0  0
    6.2558   -0.3797    1.0937 H   0  0  0  0  0  0  0  0  0  0  0  0
    6.5976   -1.7666    2.1736 H   0  0  0  0  0  0  0  0  0  0  0  0
    9.2266   -0.9706    2.1805 H   0  0  0  0  0  0  0  0  0  0  0  0
    9.1590    0.5411   -1.1906 H   0  0  0  0  0  0  0  0  0  0  0  0
    6.8119    0.7413   -0.9187 H   0  0  0  0  0  0  0  0  0  0  0  0
    7.2862    2.3111   -1.5984 H   0  0  0  0  0  0  0  0  0  0  0  0
    6.9409    2.1579    0.1770 H   0  0  0  0  0  0  0  0  0  0  0  0
   10.7504    2.2298   -0.9260 H   0  0  0  0  0  0  0  0  0  0  0  0
    9.2057    4.1718    1.2482 H   0  0  0  0  0  0  0  0  0  0  0  0
    9.0940    6.6235   -0.6041 H   0  0  0  0  0  0  0  0  0  0  0  0
    9.0573    6.6234    1.1950 H   0  0  0  0  0  0  0  0  0  0  0  0
   10.5241    6.0379    0.3344 H   0  0  0  0  0  0  0  0  0  0  0  0
    6.9249    4.3616    1.2420 H   0  0  0  0  0  0  0  0  0  0  0  0
   -2.8686   -4.5395   -2.6765 H   0  0  0  0  0  0  0  0  0  0  0  0
   -4.6089   -3.7886   -1.4832 H   0  0  0  0  0  0  0  0  0  0  0  0
   -4.5612   -1.7325   -0.3079 H   0  0  0  0  0  0  0  0  0  0  0  0
   -2.8791   -1.9306    0.2321 H   0  0  0  0  0  0  0  0  0  0  0  0
   -3.2599   -1.6057   -1.5100 H   0  0  0  0  0  0  0  0  0  0  0  0
   -5.1055   -5.4276    1.7587 H   0  0  0  0  0  0  0  0  0  0  0  0
   -6.2120   -3.1740    0.0417 H   0  0  0  0  0  0  0  0  0  0  0  0
   -6.8095   -1.9909    2.1807 H   0  0  0  0  0  0  0  0  0  0  0  0
   -5.0355   -2.2248    2.0630 H   0  0  0  0  0  0  0  0  0  0  0  0
   -6.0067   -3.3005    3.1269 H   0  0  0  0  0  0  0  0  0  0  0  0
   -9.0522   -4.4445    2.5438 H   0  0  0  0  0  0  0  0  0  0  0  0
   -9.5170   -2.0212    2.0653 H   0  0  0  0  0  0  0  0  0  0  0  0
  -11.3328   -3.6890    1.8387 H   0  0  0  0  0  0  0  0  0  0  0  0
  -11.5061   -2.4015    0.5955 H   0  0  0  0  0  0  0  0  0  0  0  0
  -10.8497   -4.0190    0.1318 H   0  0  0  0  0  0  0  0  0  0  0  0
   -7.1645   -0.8029    0.0177 H   0  0  0  0  0  0  0  0  0  0  0  0
   -8.3246    1.2186    0.5385 H   0  0  0  0  0  0  0  0  0  0  0  0
  -10.7639    1.4714    0.4522 H   0  0  0  0  0  0  0  0  0  0  0  0
  -10.9669   -0.2236   -0.1207 H   0  0  0  0  0  0  0  0  0  0  0  0
  -10.3397    0.1225    1.5531 H   0  0  0  0  0  0  0  0  0  0  0  0
   -9.6176    2.2352   -2.9586 H   0  0  0  0  0  0  0  0  0  0  0  0
   -8.7082    3.2009   -0.2184 H   0  0  0  0  0  0  0  0  0  0  0  0
  -10.8957    4.2379   -2.0900 H   0  0  0  0  0  0  0  0  0  0  0  0
  -11.0450    3.6629   -0.3920 H   0  0  0  0  0  0  0  0  0  0  0  0
  -10.1918    5.2120   -0.7364 H   0  0  0  0  0  0  0  0  0  0  0  0
   -6.3246    5.5058   -1.9761 H   0  0  0  0  0  0  0  0  0  0  0  0
   -5.4826    5.2889    0.1244 H   0  0  0  0  0  0  0  0  0  0  0  0
   -8.6543    6.3945    1.8131 H   0  0  0  0  0  0  0  0  0  0  0  0
   -7.6966    6.9073    0.3780 H   0  0  0  0  0  0  0  0  0  0  0  0
   -6.4659    2.4157   -0.3062 H   0  0  0  0  0  0  0  0  0  0  0  0
   -5.4586    2.9012    1.0887 H   0  0  0  0  0  0  0  0  0  0  0  0
   -3.2130    3.5124    1.1598 H   0  0  0  0  0  0  0  0  0  0  0  0
   -3.1874    4.9059    0.0256 H   0  0  0  0  0  0  0  0  0  0  0  0
  1  2  1  0
  2  3  2  0
  2  4  1  0
  4  5  1  0
  5  6  1  0
  6  7  1  0
  7  8  1  0
  8  9  1  0
  9 10  2  0
 10 11  1  0
 11 12  2  0
 12 13  1  0
 13 14  2  0
 13 15  1  0
 15 16  1  0
 16 17  1  0
 17 18  1  0
 18 19  1  0
 19 20  1  0
 20 21  2  0
 20 22  1  0
 22 23  1  0
 22 24  1  0
 24 25  1  0
 25 26  2  0
 25 27  1  0
 27 28  1  0
 27 29  1  0
 29 30  1  0
 30 31  2  0
 30 32  1  0
 32 33  1  0
 32 34  1  0
 34 35  1  0
 35 36  2  0
 35 37  1  0
 37 38  1  0
 37 39  1  0
 39 40  1  0
 40 41  2  0
 40 42  1  0
 42 43  1  0
 42 44  1  0
 44 45  1  0
 45 46  2  0
 45 47  1  0
 47 48  1  0
 47 49  1  0
 49 50  1  0
 50 51  2  0
 18 52  1  0
 52 53  2  0
 52 54  1  0
 54 55  1  0
 55 56  1  0
 55 57  1  0
 57 58  2  0
 57 59  1  0
 59 60  1  0
 60 61  1  0
 60 62  1  0
 62 63  2  0
 62 64  1  0
 64 65  1  0
 65 66  1  0
 65 67  1  0
 67 68  2  0
 67 69  1  0
 69 70  1  0
 70 71  1  0
 70 72  1  0
 72 73  2  0
 72 74  1  0
 74 75  1  0
 75 76  1  0
 75 77  1  0
 77 78  2  0
 77 79  1  0
 79 80  1  0
 80 81  1  0
 81 82  1  0
 81 83  2  0
 80 84  1  0
 84 85  1  0
 85 86  1  0
 50  5  1  0
 14  9  1  0
 86 11  1  0
  1 87  1  0
  1 88  1  0
  1 89  1  0
  4 90  1  0
  5 91  1  6
  6 92  1  0
  6 93  1  0
  8 94  1  0
  8 95  1  0
 10 96  1  0
 12 97  1  0
 14 98  1  0
 15 99  1  0
 15100  1  0
 17101  1  0
 17102  1  0
 18103  1  1
 19104  1  0
 22105  1  1
 23106  1  0
 23107  1  0
 23108  1  0
 24109  1  0
 27110  1  6
 28111  1  0
 28112  1  0
 28113  1  0
 29114  1  0
 32115  1  1
 33116  1  0
 33117  1  0
 33118  1  0
 34119  1  0
 37120  1  6
 38121  1  0
 38122  1  0
 38123  1  0
 39124  1  0
 42125  1  6
 43126  1  0
 43127  1  0
 43128  1  0
 44129  1  0
 47130  1  1
 48131  1  0
 48132  1  0
 48133  1  0
 49134  1  0
 54135  1  0
 55136  1  6
 56137  1  0
 56138  1  0
 56139  1  0
 59140  1  0
 60141  1  6
 61142  1  0
 61143  1  0
 61144  1  0
 64145  1  0
 65146  1  1
 66147  1  0
 66148  1  0
 66149  1  0
 69150  1  0
 70151  1  1
 71152  1  0
 71153  1  0
 71154  1  0
 74155  1  0
 75156  1  1
 76157  1  0
 76158  1  0
 76159  1  0
 79160  1  0
 80161  1  1
 82162  1  0
 82163  1  0
 84164  1  0
 84165  1  0
 86166  1  0
 86167  1  0
M  END
