
     RDKit          3D

187189  0  0  0  0  0  0  0  0999 V2000
   -4.1848    8.4286   -1.3902 C   0  0  0  0  0  0  0  0  0  0  0  0
   -3.9931    7.1573   -0.6460 C   0  0  0  0  0  0  0  0  0  0  0  0
   -3.3524    7.1726    0.4570 O   0  0  0  0  0  0  0  0  0  0  0  0
   -4.4598    5.9135   -1.1849 N   0  0  0  0  0  0  0  0  0  0  0  0
   -5.4190    5.0146   -0.5535 C   0  0  1  0  0  0  0  0  0  0  0  0
   -4.7468    3.7952    0.1332 C   0  0  0  0  0  0  0  0  0  0  0  0
   -3.1660    4.0953    1.0975 S   0  0  0  0  0  0  0  0  0  0  0  0
   -1.9717    4.2592   -0.3048 C   0  0  0  0  0  0  0  0  0  0  0  0
   -1.2785    2.9624   -0.7447 C   0  0  0  0  0  0  0  0  0  0  0  0
    0.0329    2.7156   -0.3227 C   0  0  0  0  0  0  0  0  0  0  0  0
    0.8109    1.6750   -0.8206 C   0  0  0  0  0  0  0  0  0  0  0  0
    0.2422    0.7833   -1.7205 C   0  0  0  0  0  0  0  0  0  0  0  0
   -1.1540    0.8304   -1.9244 C   0  0  0  0  0  0  0  0  0  0  0  0
   -1.8416    2.0242   -1.6328 C   0  0  0  0  0  0  0  0  0  0  0  0
   -1.8759   -0.4846   -1.7119 C   0  0  0  0  0  0  0  0  0  0  0  0
   -2.8810   -0.3536   -0.1541 S   0  0  0  0  0  0  0  0  0  0  0  0
   -1.6466   -1.0551    1.0566 C   0  0  0  0  0  0  0  0  0  0  0  0
   -1.1304   -2.4718    0.7651 C   0  0  2  0  0  0  0  0  0  0  0  0
   -2.1736   -3.2736    0.0798 N   0  0  0  0  0  0  0  0  0  0  0  0
   -3.3328   -3.7030    0.7737 C   0  0  0  0  0  0  0  0  0  0  0  0
   -4.2230   -2.8703    1.1580 O   0  0  0  0  0  0  0  0  0  0  0  0
   -3.5486   -5.1813    0.9743 C   0  0  1  0  0  0  0  0  0  0  0  0
   -4.5487   -5.5402    2.1011 C   0  0  0  0  0  0  0  0  0  0  0  0
   -3.8431   -5.8145   -0.3231 N   0  0  0  0  0  0  0  0  0  0  0  0
   -5.1161   -5.9481   -0.9825 C   0  0  0  0  0  0  0  0  0  0  0  0
   -5.2173   -6.7571   -1.9874 O   0  0  0  0  0  0  0  0  0  0  0  0
   -6.3426   -5.2127   -0.5414 C   0  0  1  0  0  0  0  0  0  0  0  0
   -6.9709   -4.5375   -1.7200 C   0  0  0  0  0  0  0  0  0  0  0  0
   -7.2980   -6.1455    0.0632 N   0  0  0  0  0  0  0  0  0  0  0  0
   -8.0782   -5.8357    1.2099 C   0  0  0  0  0  0  0  0  0  0  0  0
   -7.9195   -6.5275    2.2520 O   0  0  0  0  0  0  0  0  0  0  0  0
   -9.1140   -4.7606    1.2266 C   0  0  1  0  0  0  0  0  0  0  0  0
   -8.5831   -3.5084    1.8985 C   0  0  0  0  0  0  0  0  0  0  0  0
   -9.5717   -4.5291   -0.1386 N   0  0  0  0  0  0  0  0  0  0  0  0
  -10.3401   -3.4200   -0.5281 C   0  0  0  0  0  0  0  0  0  0  0  0
  -11.5735   -3.5866   -0.7983 O   0  0  0  0  0  0  0  0  0  0  0  0
   -9.6882   -2.0872   -0.8220 C   0  0  1  0  0  0  0  0  0  0  0  0
   -9.7201   -1.8533   -2.3171 C   0  0  0  0  0  0  0  0  0  0  0  0
  -10.4429   -1.0028   -0.1716 N   0  0  0  0  0  0  0  0  0  0  0  0
  -10.0160    0.3495   -0.2394 C   0  0  0  0  0  0  0  0  0  0  0  0
  -10.8507    1.2415   -0.5924 O   0  0  0  0  0  0  0  0  0  0  0  0
   -8.5991    0.7635    0.0980 C   0  0  1  0  0  0  0  0  0  0  0  0
   -7.7990    1.1601   -1.1464 C   0  0  0  0  0  0  0  0  0  0  0  0
   -8.6082    1.8200    1.1414 N   0  0  0  0  0  0  0  0  0  0  0  0
   -8.0971    3.1607    1.0745 C   0  0  0  0  0  0  0  0  0  0  0  0
   -7.6810    3.6735    2.1493 O   0  0  0  0  0  0  0  0  0  0  0  0
   -8.3559    4.1239   -0.0770 C   0  0  1  0  0  0  0  0  0  0  0  0
   -9.8728    4.2708   -0.2871 C   0  0  0  0  0  0  0  0  0  0  0  0
   -7.8393    5.4295    0.2581 N   0  0  0  0  0  0  0  0  0  0  0  0
   -6.4218    5.7315    0.2987 C   0  0  0  0  0  0  0  0  0  0  0  0
   -6.0324    6.6552    1.0823 O   0  0  0  0  0  0  0  0  0  0  0  0
   -0.6982   -3.1677    2.0504 C   0  0  0  0  0  0  0  0  0  0  0  0
   -1.5009   -3.1542    3.0287 O   0  0  0  0  0  0  0  0  0  0  0  0
    0.5392   -3.8654    2.2092 N   0  0  0  0  0  0  0  0  0  0  0  0
    1.5953   -3.9901    1.1811 C   0  0  2  0  0  0  0  0  0  0  0  0
    1.0888   -4.9482    0.0751 C   0  0  0  0  0  0  0  0  0  0  0  0
    2.8851   -4.5524    1.7681 C   0  0  0  0  0  0  0  0  0  0  0  0
    2.9582   -4.7382    3.0340 O   0  0  0  0  0  0  0  0  0  0  0  0
    4.0091   -4.8988    0.9804 N   0  0  0  0  0  0  0  0  0  0  0  0
    4.3747   -4.2932   -0.2954 C   0  0  2  0  0  0  0  0  0  0  0  0
    4.5455   -5.3578   -1.3788 C   0  0  0  0  0  0  0  0  0  0  0  0
    5.5964   -3.4480   -0.1167 C   0  0  0  0  0  0  0  0  0  0  0  0
    5.5597   -2.2233   -0.4171 O   0  0  0  0  0  0  0  0  0  0  0  0
    6.7431   -3.9425    0.5887 N   0  0  0  0  0  0  0  0  0  0  0  0
    7.6208   -4.9966    0.0628 C   0  0  2  0  0  0  0  0  0  0  0  0
    7.5287   -6.2606    0.9177 C   0  0  0  0  0  0  0  0  0  0  0  0
    9.0659   -4.5483    0.0889 C   0  0  0  0  0  0  0  0  0  0  0  0
    9.9568   -5.3629   -0.3312 O   0  0  0  0  0  0  0  0  0  0  0  0
    9.4965   -3.3680    0.7783 N   0  0  0  0  0  0  0  0  0  0  0  0
    9.4011   -2.0353    0.1997 C   0  0  2  0  0  0  0  0  0  0  0  0
   10.4203   -1.9466   -0.9318 C   0  0  0  0  0  0  0  0  0  0  0  0
    9.6737   -1.0384    1.3125 C   0  0  0  0  0  0  0  0  0  0  0  0
    9.0370   -1.1960    2.4125 O   0  0  0  0  0  0  0  0  0  0  0  0
   10.6867   -0.0408    1.2543 N   0  0  0  0  0  0  0  0  0  0  0  0
   10.6415    1.1175    0.3699 C   0  0  2  0  0  0  0  0  0  0  0  0
   12.0445    1.3834   -0.1416 C   0  0  0  0  0  0  0  0  0  0  0  0
   10.1665    2.3141    1.1355 C   0  0  0  0  0  0  0  0  0  0  0  0
   10.8033    2.6779    2.1807 O   0  0  0  0  0  0  0  0  0  0  0  0
    8.8904    2.8975    0.9088 N   0  0  0  0  0  0  0  0  0  0  0  0
    8.5882    3.8749   -0.1573 C   0  0  2  0  0  0  0  0  0  0  0  0
    9.4756    3.7228   -1.3886 C   0  0  0  0  0  0  0  0  0  0  0  0
    8.6881    5.2994    0.3562 C   0  0  0  0  0  0  0  0  0  0  0  0
    9.3069    5.5188    1.4529 O   0  0  0  0  0  0  0  0  0  0  0  0
    8.3466    6.4205   -0.4720 N   0  0  0  0  0  0  0  0  0  0  0  0
    6.9986    6.8303   -0.8945 C   0  0  2  0  0  0  0  0  0  0  0  0
    6.4037    7.8585    0.0694 C   0  0  0  0  0  0  0  0  0  0  0  0
    6.0752    5.6630   -1.1530 C   0  0  0  0  0  0  0  0  0  0  0  0
    6.2121    5.0495   -2.2684 O   0  0  0  0  0  0  0  0  0  0  0  0
    4.9768    5.3348   -0.3047 N   0  0  0  0  0  0  0  0  0  0  0  0
    4.5535    3.9568   -0.0741 C   0  0  1  0  0  0  0  0  0  0  0  0
    5.4302    3.3316    0.9402 C   0  0  0  0  0  0  0  0  0  0  0  0
    5.8083    4.0326    2.1157 N   0  0  0  0  0  0  0  0  0  0  0  0
    6.1006    2.2792    0.6086 O   0  0  0  0  0  0  0  0  0  0  0  0
    3.1353    3.9333    0.5063 C   0  0  0  0  0  0  0  0  0  0  0  0
    2.6065    2.2958    1.2109 S   0  0  0  0  0  0  0  0  0  0  0  0
    2.2408    1.4372   -0.3691 C   0  0  0  0  0  0  0  0  0  0  0  0
   -4.6487    8.1978   -2.3924 H   0  0  0  0  0  0  0  0  0  0  0  0
   -4.8453    9.1133   -0.8061 H   0  0  0  0  0  0  0  0  0  0  0  0
   -3.1967    8.9017   -1.5343 H   0  0  0  0  0  0  0  0  0  0  0  0
   -4.2883    5.7797   -2.2117 H   0  0  0  0  0  0  0  0  0  0  0  0
   -5.9490    4.5531   -1.4049 H   0  0  0  0  0  0  0  0  0  0  0  0
   -4.5866    2.9817   -0.6009 H   0  0  0  0  0  0  0  0  0  0  0  0
   -5.4209    3.3905    0.9133 H   0  0  0  0  0  0  0  0  0  0  0  0
   -2.4015    4.6736   -1.2127 H   0  0  0  0  0  0  0  0  0  0  0  0
   -1.1817    4.9607    0.0722 H   0  0  0  0  0  0  0  0  0  0  0  0
    0.4143    3.3767    0.4213 H   0  0  0  0  0  0  0  0  0  0  0  0
    0.8154   -0.1297   -2.0311 H   0  0  0  0  0  0  0  0  0  0  0  0
   -2.8624    2.1394   -1.9818 H   0  0  0  0  0  0  0  0  0  0  0  0
   -2.5177   -0.7382   -2.6137 H   0  0  0  0  0  0  0  0  0  0  0  0
   -1.1660   -1.3225   -1.6314 H   0  0  0  0  0  0  0  0  0  0  0  0
   -0.8062   -0.3425    1.1639 H   0  0  0  0  0  0  0  0  0  0  0  0
   -2.2111   -1.0105    2.0648 H   0  0  0  0  0  0  0  0  0  0  0  0
   -0.2555   -2.3933    0.0938 H   0  0  0  0  0  0  0  0  0  0  0  0
   -2.2062   -3.2750   -0.9645 H   0  0  0  0  0  0  0  0  0  0  0  0
   -2.5826   -5.5917    1.3183 H   0  0  0  0  0  0  0  0  0  0  0  0
   -5.1107   -4.6494    2.4893 H   0  0  0  0  0  0  0  0  0  0  0  0
   -5.3049   -6.2518    1.7500 H   0  0  0  0  0  0  0  0  0  0  0  0
   -4.0374   -5.9866    2.9749 H   0  0  0  0  0  0  0  0  0  0  0  0
   -3.0163   -6.1433   -0.8879 H   0  0  0  0  0  0  0  0  0  0  0  0
   -6.0553   -4.3772    0.1468 H   0  0  0  0  0  0  0  0  0  0  0  0
   -7.8256   -5.1480   -2.1678 H   0  0  0  0  0  0  0  0  0  0  0  0
   -7.2786   -3.4935   -1.4240 H   0  0  0  0  0  0  0  0  0  0  0  0
   -6.1942   -4.2994   -2.4989 H   0  0  0  0  0  0  0  0  0  0  0  0
   -7.1891   -7.1589   -0.1796 H   0  0  0  0  0  0  0  0  0  0  0  0
   -9.9563   -5.1308    1.8385 H   0  0  0  0  0  0  0  0  0  0  0  0
   -8.3438   -3.7340    2.9604 H   0  0  0  0  0  0  0  0  0  0  0  0
   -9.3918   -2.7414    1.8860 H   0  0  0  0  0  0  0  0  0  0  0  0
   -7.6813   -3.1140    1.4159 H   0  0  0  0  0  0  0  0  0  0  0  0
   -9.7532   -5.3854   -0.7061 H   0  0  0  0  0  0  0  0  0  0  0  0
   -8.6347   -2.0654   -0.4360 H   0  0  0  0  0  0  0  0  0  0  0  0
   -8.7699   -2.2066   -2.7460 H   0  0  0  0  0  0  0  0  0  0  0  0
   -9.8617   -0.7795   -2.6071 H   0  0  0  0  0  0  0  0  0  0  0  0
  -10.4551   -2.4957   -2.8397 H   0  0  0  0  0  0  0  0  0  0  0  0
  -11.4930   -1.1363   -0.1347 H   0  0  0  0  0  0  0  0  0  0  0  0
   -8.0502   -0.1041    0.5316 H   0  0  0  0  0  0  0  0  0  0  0  0
   -8.4481    1.7013   -1.8943 H   0  0  0  0  0  0  0  0  0  0  0  0
   -7.4086    0.2374   -1.6257 H   0  0  0  0  0  0  0  0  0  0  0  0
   -6.9180    1.7822   -0.8613 H   0  0  0  0  0  0  0  0  0  0  0  0
   -8.7823    1.4474    2.0971 H   0  0  0  0  0  0  0  0  0  0  0  0
   -7.9417    3.7798   -1.0608 H   0  0  0  0  0  0  0  0  0  0  0  0
  -10.1055    5.1669   -0.9443 H   0  0  0  0  0  0  0  0  0  0  0  0
  -10.2408    3.3957   -0.8537 H   0  0  0  0  0  0  0  0  0  0  0  0
  -10.4096    4.3246    0.6817 H   0  0  0  0  0  0  0  0  0  0  0  0
   -8.4483    6.2723    0.1583 H   0  0  0  0  0  0  0  0  0  0  0  0
    0.6087   -4.4225    3.0940 H   0  0  0  0  0  0  0  0  0  0  0  0
    1.8028   -2.9837    0.7531 H   0  0  0  0  0  0  0  0  0  0  0  0
    1.3169   -4.5225   -0.9236 H   0  0  0  0  0  0  0  0  0  0  0  0
    1.5378   -5.9511    0.1930 H   0  0  0  0  0  0  0  0  0  0  0  0
   -0.0111   -5.0946    0.1312 H   0  0  0  0  0  0  0  0  0  0  0  0
    4.6971   -5.5795    1.3825 H   0  0  0  0  0  0  0  0  0  0  0  0
    3.5463   -3.6229   -0.6358 H   0  0  0  0  0  0  0  0  0  0  0  0
    5.0605   -6.2722   -0.9781 H   0  0  0  0  0  0  0  0  0  0  0  0
    3.5334   -5.6705   -1.7402 H   0  0  0  0  0  0  0  0  0  0  0  0
    5.1237   -4.9386   -2.2517 H   0  0  0  0  0  0  0  0  0  0  0  0
    6.9495   -3.5502    1.5315 H   0  0  0  0  0  0  0  0  0  0  0  0
    7.3410   -5.2428   -0.9994 H   0  0  0  0  0  0  0  0  0  0  0  0
    6.5435   -6.7311    0.8187 H   0  0  0  0  0  0  0  0  0  0  0  0
    8.2787   -6.9843    0.5542 H   0  0  0  0  0  0  0  0  0  0  0  0
    7.7562   -6.0023    1.9739 H   0  0  0  0  0  0  0  0  0  0  0  0
   10.2423   -3.5409    1.4821 H   0  0  0  0  0  0  0  0  0  0  0  0
    8.3871   -1.8654   -0.2257 H   0  0  0  0  0  0  0  0  0  0  0  0
   10.2599   -2.7938   -1.6264 H   0  0  0  0  0  0  0  0  0  0  0  0
   10.2785   -1.0153   -1.5297 H   0  0  0  0  0  0  0  0  0  0  0  0
   11.4568   -2.0066   -0.5195 H   0  0  0  0  0  0  0  0  0  0  0  0
   11.2831    0.0439    2.1000 H   0  0  0  0  0  0  0  0  0  0  0  0
    9.9688    0.9102   -0.4838 H   0  0  0  0  0  0  0  0  0  0  0  0
   12.6983    1.7912    0.6835 H   0  0  0  0  0  0  0  0  0  0  0  0
   12.0188    2.1140   -0.9653 H   0  0  0  0  0  0  0  0  0  0  0  0
   12.5223    0.4382   -0.4888 H   0  0  0  0  0  0  0  0  0  0  0  0
    8.2785    2.9739    1.7540 H   0  0  0  0  0  0  0  0  0  0  0  0
    7.5496    3.6882   -0.5191 H   0  0  0  0  0  0  0  0  0  0  0  0
   10.5333    3.9003   -1.0943 H   0  0  0  0  0  0  0  0  0  0  0  0
    9.1953    4.4911   -2.1347 H   0  0  0  0  0  0  0  0  0  0  0  0
    9.3368    2.7163   -1.8541 H   0  0  0  0  0  0  0  0  0  0  0  0
    9.0600    7.2002   -0.4421 H   0  0  0  0  0  0  0  0  0  0  0  0
    7.1110    7.3424   -1.8636 H   0  0  0  0  0  0  0  0  0  0  0  0
    7.0870    8.7197    0.0879 H   0  0  0  0  0  0  0  0  0  0  0  0
    6.3807    7.4185    1.0997 H   0  0  0  0  0  0  0  0  0  0  0  0
    5.4114    8.1950   -0.2869 H   0  0  0  0  0  0  0  0  0  0  0  0
    4.2443    6.0866   -0.2300 H   0  0  0  0  0  0  0  0  0  0  0  0
    4.5303    3.4279   -1.0368 H   0  0  0  0  0  0  0  0  0  0  0  0
    5.4918    5.0124    2.2513 H   0  0  0  0  0  0  0  0  0  0  0  0
    6.4488    3.6066    2.8133 H   0  0  0  0  0  0  0  0  0  0  0  0
    2.4750    4.3609   -0.3027 H   0  0  0  0  0  0  0  0  0  0  0  0
    3.1095    4.6558    1.3668 H   0  0  0  0  0  0  0  0  0  0  0  0
    2.3785    0.3454   -0.1702 H   0  0  0  0  0  0  0  0  0  0  0  0
    2.9385    1.7782   -1.1615 H   0  0  0  0  0  0  0  0  0  0  0  0
  1  2  1  0
  2  3  2  0
  2  4  1  0
  4  5  1  0
  5  6  1  0
  6  7  1  0
  7  8  1  0
  8  9  1  0
  9 10  2  0
 10 11  1  0
 11 12  2  0
 12 13  1  0
 13 14  2  0
 13 15  1  0
 15 16  1  0
 16 17  1  0
 17 18  1  0
 18 19  1  0
 19 20  1  0
 20 21  2  0
 20 22  1  0
 22 23  1  0
 22 24  1  0
 24 25  1  0
 25 26  2  0
 25 27  1  0
 27 28  1  0
 27 29  1  0
 29 30  1  0
 30 31  2  0
 30 32  1  0
 32 33  1  0
 32 34  1  0
 34 35  1  0
 35 36  2  0
 35 37  1  0
 37 38  1  0
 37 39  1  0
 39 40  1  0
 40 41  2  0
 40 42  1  0
 42 43  1  0
 42 44  1  0
 44 45  1  0
 45 46  2  0
 45 47  1  0
 47 48  1  0
 47 49  1  0
 49 50  1  0
 50 51  2  0
 18 52  1  0
 52 53  2  0
 52 54  1  0
 54 55  1  0
 55 56  1  0
 55 57  1  0
 57 58  2  0
 57 59  1  0
 59 60  1  0
 60 61  1  0
 60 62  1  0
 62 63  2  0
 62 64  1  0
 64 65  1  0
 65 66  1  0
 65 67  1  0
 67 68  2  0
 67 69  1  0
 69 70  1  0
 70 71  1  0
 70 72  1  0
 72 73  2  0
 72 74  1  0
 74 75  1  0
 75 76  1  0
 75 77  1  0
 77 78  2  0
 77 79  1  0
 79 80  1  0
 80 81  1  0
 80 82  1  0
 82 83  2  0
 82 84  1  0
 84 85  1  0
 85 86  1  0
 85 87  1  0
 87 88  2  0
 87 89  1  0
 89 90  1  0
 90 91  1  0
 91 92  1  0
 91 93  2  0
 90 94  1  0
 94 95  1  0
 95 96  1  0
 50  5  1  0
 14  9  1  0
 96 11  1  0
  1 97  1  0
  1 98  1  0
  1 99  1  0
  4100  1  0
  5101  1  6
  6102  1  0
  6103  1  0
  8104  1  0
  8105  1  0
 10106  1  0
 12107  1  0
 14108  1  0
 15109  1  0
 15110  1  0
 17111  1  0
 17112  1  0
 18113  1  6
 19114  1  0
 22115  1  1
 23116  1  0
 23117  1  0
 23118  1  0
 24119  1  0
 27120  1  1
 28121  1  0
 28122  1  0
 28123  1  0
 29124  1  0
 32125  1  1
 33126  1  0
 33127  1  0
 33128  1  0
 34129  1  0
 37130  1  1
 38131  1  0
 38132  1  0
 38133  1  0
 39134  1  0
 42135  1  1
 43136  1  0
 43137  1  0
 43138  1  0
 44139  1  0
 47140  1  6
 48141  1  0
 48142  1  0
 48143  1  0
 49144  1  0
 54145  1  0
 55146  1  6
 56147  1  0
 56148  1  0
 56149  1  0
 59150  1  0
 60151  1  6
 61152  1  0
 61153  1  0
 61154  1  0
 64155  1  0
 65156  1  6
 66157  1  0
 66158  1  0
 66159  1  0
 69160  1  0
 70161  1  6
 71162  1  0
 71163  1  0
 71164  1  0
 74165  1  0
 75166  1  6
 76167  1  0
 76168  1  0
 76169  1  0
 79170  1  0
 80171  1  6
 81172  1  0
 81173  1  0
 81174  1  0
 84175  1  0
 85176  1  6
 86177  1  0
 86178  1  0
 86179  1  0
 89180  1  0
 90181  1  6
 92182  1  0
 92183  1  0
 94184  1  0
 94185  1  0
 96186  1  0
 96187  1  0
M  END
