
     RDKit          3D

197199  0  0  0  0  0  0  0  0999 V2000
    9.4022    8.6915   -1.5944 C   0  0  0  0  0  0  0  0  0  0  0  0
    8.3294    7.8145   -1.0325 C   0  0  0  0  0  0  0  0  0  0  0  0
    7.3602    8.3510   -0.4344 O   0  0  0  0  0  0  0  0  0  0  0  0
    8.4295    6.3821   -1.1487 N   0  0  0  0  0  0  0  0  0  0  0  0
    7.4525    5.4261   -0.6140 C   0  0  2  0  0  0  0  0  0  0  0  0
    6.0824    5.5817   -1.2928 C   0  0  0  0  0  0  0  0  0  0  0  0
    4.9002    4.3393   -0.6486 S   0  0  0  0  0  0  0  0  0  0  0  0
    3.7090    4.4668   -2.0207 C   0  0  0  0  0  0  0  0  0  0  0  0
    2.3583    4.0101   -1.5426 C   0  0  0  0  0  0  0  0  0  0  0  0
    1.3287    4.9415   -1.3537 C   0  0  0  0  0  0  0  0  0  0  0  0
    0.0665    4.5326   -0.9012 C   0  0  0  0  0  0  0  0  0  0  0  0
   -0.1661    3.1642   -0.6670 C   0  0  0  0  0  0  0  0  0  0  0  0
    0.8695    2.2193   -0.8030 C   0  0  0  0  0  0  0  0  0  0  0  0
    2.1251    2.6503   -1.2695 C   0  0  0  0  0  0  0  0  0  0  0  0
    0.5628    0.7636   -0.5324 C   0  0  0  0  0  0  0  0  0  0  0  0
    1.9814   -0.1755    0.1678 S   0  0  0  0  0  0  0  0  0  0  0  0
    0.9785   -1.4857    0.9878 C   0  0  0  0  0  0  0  0  0  0  0  0
    1.5008   -2.9121    0.7183 C   0  0  2  0  0  0  0  0  0  0  0  0
    1.8258   -3.1245   -0.6974 N   0  0  0  0  0  0  0  0  0  0  0  0
    2.6783   -4.1702   -1.2038 C   0  0  0  0  0  0  0  0  0  0  0  0
    2.5853   -4.4656   -2.4293 O   0  0  0  0  0  0  0  0  0  0  0  0
    3.6426   -4.9615   -0.3260 C   0  0  1  0  0  0  0  0  0  0  0  0
    2.8967   -6.0701    0.4340 C   0  0  0  0  0  0  0  0  0  0  0  0
    4.7140   -5.5660   -1.1348 N   0  0  0  0  0  0  0  0  0  0  0  0
    5.8437   -6.2131   -0.5304 C   0  0  0  0  0  0  0  0  0  0  0  0
    6.0439   -7.4344   -0.7808 O   0  0  0  0  0  0  0  0  0  0  0  0
    6.7813   -5.4775    0.4054 C   0  0  1  0  0  0  0  0  0  0  0  0
    6.3960   -5.7645    1.8629 C   0  0  0  0  0  0  0  0  0  0  0  0
    8.1713   -5.8993    0.1615 N   0  0  0  0  0  0  0  0  0  0  0  0
    9.2996   -5.4215    0.9086 C   0  0  0  0  0  0  0  0  0  0  0  0
   10.1746   -6.2529    1.2804 O   0  0  0  0  0  0  0  0  0  0  0  0
    9.5628   -3.9462    1.1104 C   0  0  1  0  0  0  0  0  0  0  0  0
    9.9304   -3.6556    2.5656 C   0  0  0  0  0  0  0  0  0  0  0  0
   10.6675   -3.5486    0.2340 N   0  0  0  0  0  0  0  0  0  0  0  0
   10.5221   -2.6662   -0.8872 C   0  0  0  0  0  0  0  0  0  0  0  0
   11.0039   -3.0156   -1.9971 O   0  0  0  0  0  0  0  0  0  0  0  0
    9.8837   -1.3042   -0.7663 C   0  0  1  0  0  0  0  0  0  0  0  0
    8.4266   -1.3296   -1.2474 C   0  0  0  0  0  0  0  0  0  0  0  0
    9.9865   -0.7775    0.5983 N   0  0  0  0  0  0  0  0  0  0  0  0
   11.2446   -0.3072    1.1074 C   0  0  0  0  0  0  0  0  0  0  0  0
   12.2584   -1.0555    1.0600 O   0  0  0  0  0  0  0  0  0  0  0  0
   11.4054    1.1210    1.5598 C   0  0  1  0  0  0  0  0  0  0  0  0
   11.6774    2.0053    0.3347 C   0  0  0  0  0  0  0  0  0  0  0  0
   10.2317    1.5530    2.3352 N   0  0  0  0  0  0  0  0  0  0  0  0
    9.7542    2.9069    2.3508 C   0  0  0  0  0  0  0  0  0  0  0  0
   10.2097    3.7081    3.2122 O   0  0  0  0  0  0  0  0  0  0  0  0
    8.7662    3.3867    1.3086 C   0  0  1  0  0  0  0  0  0  0  0  0
    7.7633    2.2760    0.9709 C   0  0  0  0  0  0  0  0  0  0  0  0
    8.0395    4.5766    1.7715 N   0  0  0  0  0  0  0  0  0  0  0  0
    7.3835    5.5212    0.9027 C   0  0  0  0  0  0  0  0  0  0  0  0
    6.7204    6.4533    1.4277 O   0  0  0  0  0  0  0  0  0  0  0  0
    0.4662   -3.9082    1.2254 C   0  0  0  0  0  0  0  0  0  0  0  0
    0.2614   -3.9537    2.4677 O   0  0  0  0  0  0  0  0  0  0  0  0
   -0.2284   -4.8536    0.3908 N   0  0  0  0  0  0  0  0  0  0  0  0
   -0.9010   -4.5787   -0.8937 C   0  0  2  0  0  0  0  0  0  0  0  0
   -1.6142   -3.2197   -0.9046 C   0  0  0  0  0  0  0  0  0  0  0  0
   -1.9263   -5.6548   -1.1730 C   0  0  0  0  0  0  0  0  0  0  0  0
   -1.7921   -6.3918   -2.1853 O   0  0  0  0  0  0  0  0  0  0  0  0
   -3.0278   -5.8569   -0.2647 N   0  0  0  0  0  0  0  0  0  0  0  0
   -4.4416   -5.9869   -0.6611 C   0  0  2  0  0  0  0  0  0  0  0  0
   -4.6446   -6.7096   -1.9982 C   0  0  0  0  0  0  0  0  0  0  0  0
   -5.0876   -4.6168   -0.6712 C   0  0  0  0  0  0  0  0  0  0  0  0
   -4.8240   -3.8434   -1.6298 O   0  0  0  0  0  0  0  0  0  0  0  0
   -5.9362   -4.1220    0.3868 N   0  0  0  0  0  0  0  0  0  0  0  0
   -6.5260   -4.8888    1.4941 C   0  0  2  0  0  0  0  0  0  0  0  0
   -5.4656   -5.2816    2.5351 C   0  0  0  0  0  0  0  0  0  0  0  0
   -7.3487   -6.0467    0.9740 C   0  0  0  0  0  0  0  0  0  0  0  0
   -7.1069   -7.2204    1.3679 O   0  0  0  0  0  0  0  0  0  0  0  0
   -8.3880   -5.8413    0.0038 N   0  0  0  0  0  0  0  0  0  0  0  0
   -9.3023   -4.6881    0.0389 C   0  0  2  0  0  0  0  0  0  0  0  0
  -10.4979   -5.0471    0.9263 C   0  0  0  0  0  0  0  0  0  0  0  0
   -9.7493   -4.3155   -1.3627 C   0  0  0  0  0  0  0  0  0  0  0  0
   -9.3786   -5.0247   -2.3387 O   0  0  0  0  0  0  0  0  0  0  0  0
  -10.6079   -3.1905   -1.6308 N   0  0  0  0  0  0  0  0  0  0  0  0
  -10.8295   -2.0356   -0.7465 C   0  0  2  0  0  0  0  0  0  0  0  0
  -12.3351   -1.8804   -0.5177 C   0  0  0  0  0  0  0  0  0  0  0  0
  -10.2574   -0.7766   -1.3732 C   0  0  0  0  0  0  0  0  0  0  0  0
   -9.8865   -0.8116   -2.5799 O   0  0  0  0  0  0  0  0  0  0  0  0
  -10.1722    0.4829   -0.6761 N   0  0  0  0  0  0  0  0  0  0  0  0
  -10.3408    0.6875    0.7688 C   0  0  2  0  0  0  0  0  0  0  0  0
  -11.4655    1.6878    1.0655 C   0  0  0  0  0  0  0  0  0  0  0  0
   -9.0267    1.0595    1.4299 C   0  0  0  0  0  0  0  0  0  0  0  0
   -8.6329    0.3274    2.3799 O   0  0  0  0  0  0  0  0  0  0  0  0
   -8.1750    2.1536    1.0301 N   0  0  0  0  0  0  0  0  0  0  0  0
   -8.5273    3.3095    0.1993 C   0  0  2  0  0  0  0  0  0  0  0  0
   -7.5121    3.4507   -0.9406 C   0  0  0  0  0  0  0  0  0  0  0  0
   -8.6103    4.5476    1.0572 C   0  0  0  0  0  0  0  0  0  0  0  0
   -9.6053    4.6933    1.8214 O   0  0  0  0  0  0  0  0  0  0  0  0
   -7.5335    5.5011    1.1064 N   0  0  0  0  0  0  0  0  0  0  0  0
   -7.6559    6.9404    0.8257 C   0  0  2  0  0  0  0  0  0  0  0  0
   -9.1245    7.4042    0.7126 C   0  0  0  0  0  0  0  0  0  0  0  0
   -6.8831    7.2921   -0.4324 C   0  0  0  0  0  0  0  0  0  0  0  0
   -7.1985    8.3076   -1.1134 O   0  0  0  0  0  0  0  0  0  0  0  0
   -5.7577    6.5082   -0.8466 N   0  0  0  0  0  0  0  0  0  0  0  0
   -4.4826    6.5845   -0.1331 C   0  0  2  0  0  0  0  0  0  0  0  0
   -3.6667    7.7296   -0.6827 C   0  0  0  0  0  0  0  0  0  0  0  0
   -3.3053    7.7774   -2.0673 N   0  0  0  0  0  0  0  0  0  0  0  0
   -3.3122    8.6650    0.0825 O   0  0  0  0  0  0  0  0  0  0  0  0
   -3.7446    5.2366   -0.2471 C   0  0  0  0  0  0  0  0  0  0  0  0
   -2.1339    5.2576    0.6362 S   0  0  0  0  0  0  0  0  0  0  0  0
   -1.0555    5.5422   -0.8226 C   0  0  0  0  0  0  0  0  0  0  0  0
    8.9589    9.3851   -2.3352 H   0  0  0  0  0  0  0  0  0  0  0  0
    9.8678    9.2765   -0.7744 H   0  0  0  0  0  0  0  0  0  0  0  0
   10.1873    8.0897   -2.0981 H   0  0  0  0  0  0  0  0  0  0  0  0
    9.2703    5.9841   -1.6291 H   0  0  0  0  0  0  0  0  0  0  0  0
    7.7941    4.4161   -0.9107 H   0  0  0  0  0  0  0  0  0  0  0  0
    6.2160    5.4416   -2.3845 H   0  0  0  0  0  0  0  0  0  0  0  0
    5.6628    6.5941   -1.1226 H   0  0  0  0  0  0  0  0  0  0  0  0
    3.6573    5.5176   -2.3767 H   0  0  0  0  0  0  0  0  0  0  0  0
    4.0482    3.8337   -2.8699 H   0  0  0  0  0  0  0  0  0  0  0  0
    1.5113    5.9901   -1.5672 H   0  0  0  0  0  0  0  0  0  0  0  0
   -1.1572    2.8331   -0.3779 H   0  0  0  0  0  0  0  0  0  0  0  0
    2.9229    1.9337   -1.4189 H   0  0  0  0  0  0  0  0  0  0  0  0
    0.2443    0.2805   -1.4804 H   0  0  0  0  0  0  0  0  0  0  0  0
   -0.2869    0.7198    0.1833 H   0  0  0  0  0  0  0  0  0  0  0  0
   -0.0845   -1.4141    0.6926 H   0  0  0  0  0  0  0  0  0  0  0  0
    1.0047   -1.2899    2.0810 H   0  0  0  0  0  0  0  0  0  0  0  0
    2.4264   -3.0313    1.3177 H   0  0  0  0  0  0  0  0  0  0  0  0
    1.3525   -2.5269   -1.4134 H   0  0  0  0  0  0  0  0  0  0  0  0
    4.1093   -4.2632    0.3987 H   0  0  0  0  0  0  0  0  0  0  0  0
    2.1496   -6.5700   -0.2229 H   0  0  0  0  0  0  0  0  0  0  0  0
    2.3907   -5.6559    1.3283 H   0  0  0  0  0  0  0  0  0  0  0  0
    3.6044   -6.8413    0.8063 H   0  0  0  0  0  0  0  0  0  0  0  0
    4.4642   -5.9274   -2.0826 H   0  0  0  0  0  0  0  0  0  0  0  0
    6.6893   -4.3877    0.2108 H   0  0  0  0  0  0  0  0  0  0  0  0
    5.3413   -5.4777    2.0596 H   0  0  0  0  0  0  0  0  0  0  0  0
    6.5240   -6.8460    2.0890 H   0  0  0  0  0  0  0  0  0  0  0  0
    7.0377   -5.1751    2.5519 H   0  0  0  0  0  0  0  0  0  0  0  0
    8.3525   -6.7487   -0.4186 H   0  0  0  0  0  0  0  0  0  0  0  0
    8.6518   -3.3701    0.8730 H   0  0  0  0  0  0  0  0  0  0  0  0
    9.1174   -3.9913    3.2457 H   0  0  0  0  0  0  0  0  0  0  0  0
   10.0794   -2.5635    2.7100 H   0  0  0  0  0  0  0  0  0  0  0  0
   10.8674   -4.1790    2.8479 H   0  0  0  0  0  0  0  0  0  0  0  0
   11.5523   -4.0997    0.2898 H   0  0  0  0  0  0  0  0  0  0  0  0
   10.4291   -0.6083   -1.4424 H   0  0  0  0  0  0  0  0  0  0  0  0
    8.0293   -0.2972   -1.2741 H   0  0  0  0  0  0  0  0  0  0  0  0
    8.3743   -1.7432   -2.2774 H   0  0  0  0  0  0  0  0  0  0  0  0
    7.7836   -1.9341   -0.5804 H   0  0  0  0  0  0  0  0  0  0  0  0
    9.1204   -0.5575    1.1363 H   0  0  0  0  0  0  0  0  0  0  0  0
   12.2967    1.1813    2.2258 H   0  0  0  0  0  0  0  0  0  0  0  0
   11.8498    3.0586    0.6395 H   0  0  0  0  0  0  0  0  0  0  0  0
   12.5924    1.6531   -0.1908 H   0  0  0  0  0  0  0  0  0  0  0  0
   10.8249    1.9582   -0.3780 H   0  0  0  0  0  0  0  0  0  0  0  0
    9.9878    0.9727    3.1675 H   0  0  0  0  0  0  0  0  0  0  0  0
    9.3572    3.6448    0.4095 H   0  0  0  0  0  0  0  0  0  0  0  0
    8.2752    1.4539    0.4336 H   0  0  0  0  0  0  0  0  0  0  0  0
    6.9569    2.6523    0.3142 H   0  0  0  0  0  0  0  0  0  0  0  0
    7.2875    1.8850    1.8949 H   0  0  0  0  0  0  0  0  0  0  0  0
    7.8876    4.6967    2.7988 H   0  0  0  0  0  0  0  0  0  0  0  0
   -0.4157   -5.7775    0.8419 H   0  0  0  0  0  0  0  0  0  0  0  0
   -0.1504   -4.5899   -1.7092 H   0  0  0  0  0  0  0  0  0  0  0  0
   -2.3233   -3.1584   -1.7557 H   0  0  0  0  0  0  0  0  0  0  0  0
   -2.1682   -3.0536    0.0425 H   0  0  0  0  0  0  0  0  0  0  0  0
   -0.8929   -2.4046   -1.0692 H   0  0  0  0  0  0  0  0  0  0  0  0
   -2.8762   -5.5106    0.7072 H   0  0  0  0  0  0  0  0  0  0  0  0
   -4.9271   -6.6363    0.0875 H   0  0  0  0  0  0  0  0  0  0  0  0
   -4.2485   -6.1113   -2.8463 H   0  0  0  0  0  0  0  0  0  0  0  0
   -5.7298   -6.8787   -2.1692 H   0  0  0  0  0  0  0  0  0  0  0  0
   -4.1407   -7.7004   -1.9782 H   0  0  0  0  0  0  0  0  0  0  0  0
   -6.2406   -3.1245    0.3062 H   0  0  0  0  0  0  0  0  0  0  0  0
   -7.2240   -4.2163    2.0393 H   0  0  0  0  0  0  0  0  0  0  0  0
   -5.9634   -5.6314    3.4658 H   0  0  0  0  0  0  0  0  0  0  0  0
   -4.7959   -6.0915    2.1876 H   0  0  0  0  0  0  0  0  0  0  0  0
   -4.8390   -4.3999    2.7891 H   0  0  0  0  0  0  0  0  0  0  0  0
   -8.7134   -6.6941   -0.5063 H   0  0  0  0  0  0  0  0  0  0  0  0
   -8.7805   -3.8090    0.4667 H   0  0  0  0  0  0  0  0  0  0  0  0
  -11.1916   -4.1919    1.0431 H   0  0  0  0  0  0  0  0  0  0  0  0
  -10.1378   -5.3343    1.9382 H   0  0  0  0  0  0  0  0  0  0  0  0
  -11.0567   -5.9054    0.4947 H   0  0  0  0  0  0  0  0  0  0  0  0
  -11.0458   -3.1493   -2.5817 H   0  0  0  0  0  0  0  0  0  0  0  0
  -10.3293   -2.2003    0.2269 H   0  0  0  0  0  0  0  0  0  0  0  0
  -12.5503   -1.1405    0.2749 H   0  0  0  0  0  0  0  0  0  0  0  0
  -12.8401   -1.5575   -1.4529 H   0  0  0  0  0  0  0  0  0  0  0  0
  -12.7792   -2.8490   -0.2032 H   0  0  0  0  0  0  0  0  0  0  0  0
   -9.8845    1.2955   -1.2631 H   0  0  0  0  0  0  0  0  0  0  0  0
  -10.6691   -0.2571    1.2429 H   0  0  0  0  0  0  0  0  0  0  0  0
  -11.4606    1.9752    2.1390 H   0  0  0  0  0  0  0  0  0  0  0  0
  -12.4475    1.2168    0.8473 H   0  0  0  0  0  0  0  0  0  0  0  0
  -11.4118    2.6006    0.4426 H   0  0  0  0  0  0  0  0  0  0  0  0
   -7.2337    2.1902    1.4891 H   0  0  0  0  0  0  0  0  0  0  0  0
   -9.5046    3.1879   -0.2832 H   0  0  0  0  0  0  0  0  0  0  0  0
   -6.4793    3.5306   -0.5439 H   0  0  0  0  0  0  0  0  0  0  0  0
   -7.5674    2.5563   -1.5973 H   0  0  0  0  0  0  0  0  0  0  0  0
   -7.7415    4.3478   -1.5516 H   0  0  0  0  0  0  0  0  0  0  0  0
   -6.5781    5.1186    1.2844 H   0  0  0  0  0  0  0  0  0  0  0  0
   -7.1955    7.4980    1.6704 H   0  0  0  0  0  0  0  0  0  0  0  0
   -9.1768    8.4988    0.5294 H   0  0  0  0  0  0  0  0  0  0  0  0
   -9.6457    6.8745   -0.1139 H   0  0  0  0  0  0  0  0  0  0  0  0
   -9.6607    7.2117    1.6663 H   0  0  0  0  0  0  0  0  0  0  0  0
   -5.7373    6.2194   -1.8514 H   0  0  0  0  0  0  0  0  0  0  0  0
   -4.6784    6.7725    0.9494 H   0  0  0  0  0  0  0  0  0  0  0  0
   -2.7833    8.5968   -2.4419 H   0  0  0  0  0  0  0  0  0  0  0  0
   -3.5737    7.0097   -2.7202 H   0  0  0  0  0  0  0  0  0  0  0  0
   -4.3672    4.4587    0.2413 H   0  0  0  0  0  0  0  0  0  0  0  0
   -3.6412    4.9290   -1.3044 H   0  0  0  0  0  0  0  0  0  0  0  0
   -1.6065    5.5186   -1.7821 H   0  0  0  0  0  0  0  0  0  0  0  0
   -0.6394    6.5695   -0.7214 H   0  0  0  0  0  0  0  0  0  0  0  0
  1  2  1  0
  2  3  2  0
  2  4  1  0
  4  5  1  0
  5  6  1  0
  6  7  1  0
  7  8  1  0
  8  9  1  0
  9 10  2  0
 10 11  1  0
 11 12  2  0
 12 13  1  0
 13 14  2  0
 13 15  1  0
 15 16  1  0
 16 17  1  0
 17 18  1  0
 18 19  1  0
 19 20  1  0
 20 21  2  0
 20 22  1  0
 22 23  1  0
 22 24  1  0
 24 25  1  0
 25 26  2  0
 25 27  1  0
 27 28  1  0
 27 29  1  0
 29 30  1  0
 30 31  2  0
 30 32  1  0
 32 33  1  0
 32 34  1  0
 34 35  1  0
 35 36  2  0
 35 37  1  0
 37 38  1  0
 37 39  1  0
 39 40  1  0
 40 41  2  0
 40 42  1  0
 42 43  1  0
 42 44  1  0
 44 45  1  0
 45 46  2  0
 45 47  1  0
 47 48  1  0
 47 49  1  0
 49 50  1  0
 50 51  2  0
 18 52  1  0
 52 53  2  0
 52 54  1  0
 54 55  1  0
 55 56  1  0
 55 57  1  0
 57 58  2  0
 57 59  1  0
 59 60  1  0
 60 61  1  0
 60 62  1  0
 62 63  2  0
 62 64  1  0
 64 65  1  0
 65 66  1  0
 65 67  1  0
 67 68  2  0
 67 69  1  0
 69 70  1  0
 70 71  1  0
 70 72  1  0
 72 73  2  0
 72 74  1  0
 74 75  1  0
 75 76  1  0
 75 77  1  0
 77 78  2  0
 77 79  1  0
 79 80  1  0
 80 81  1  0
 80 82  1  0
 82 83  2  0
 82 84  1  0
 84 85  1  0
 85 86  1  0
 85 87  1  0
 87 88  2  0
 87 89  1  0
 89 90  1  0
 90 91  1  0
 90 92  1  0
 92 93  2  0
 92 94  1  0
 94 95  1  0
 95 96  1  0
 96 97  1  0
 96 98  2  0
 95 99  1  0
 99100  1  0
100101  1  0
 50  5  1  0
 14  9  1  0
101 11  1  0
  1102  1  0
  1103  1  0
  1104  1  0
  4105  1  0
  5106  1  1
  6107  1  0
  6108  1  0
  8109  1  0
  8110  1  0
 10111  1  0
 12112  1  0
 14113  1  0
 15114  1  0
 15115  1  0
 17116  1  0
 17117  1  0
 18118  1  1
 19119  1  0
 22120  1  1
 23121  1  0
 23122  1  0
 23123  1  0
 24124  1  0
 27125  1  6
 28126  1  0
 28127  1  0
 28128  1  0
 29129  1  0
 32130  1  6
 33131  1  0
 33132  1  0
 33133  1  0
 34134  1  0
 37135  1  6
 38136  1  0
 38137  1  0
 38138  1  0
 39139  1  0
 42140  1  1
 43141  1  0
 43142  1  0
 43143  1  0
 44144  1  0
 47145  1  6
 48146  1  0
 48147  1  0
 48148  1  0
 49149  1  0
 54150  1  0
 55151  1  6
 56152  1  0
 56153  1  0
 56154  1  0
 59155  1  0
 60156  1  1
 61157  1  0
 61158  1  0
 61159  1  0
 64160  1  0
 65161  1  1
 66162  1  0
 66163  1  0
 66164  1  0
 69165  1  0
 70166  1  1
 71167  1  0
 71168  1  0
 71169  1  0
 74170  1  0
 75171  1  1
 76172  1  0
 76173  1  0
 76174  1  0
 79175  1  0
 80176  1  1
 81177  1  0
 81178  1  0
 81179  1  0
 84180  1  0
 85181  1  6
 86182  1  0
 86183  1  0
 86184  1  0
 89185  1  0
 90186  1  1
 91187  1  0
 91188  1  0
 91189  1  0
 94190  1  0
 95191  1  1
 97192  1  0
 97193  1  0
 99194  1  0
 99195  1  0
101196  1  0
101197  1  0
M  END
