
     RDKit          3D

197199  0  0  0  0  0  0  0  0999 V2000
   -7.1515    7.6421   -1.2020 C   0  0  0  0  0  0  0  0  0  0  0  0
   -6.8950    7.9227    0.2461 C   0  0  0  0  0  0  0  0  0  0  0  0
   -7.1684    9.0696    0.6984 O   0  0  0  0  0  0  0  0  0  0  0  0
   -6.3364    6.9389    1.1314 N   0  0  0  0  0  0  0  0  0  0  0  0
   -6.2475    5.5023    0.8388 C   0  0  1  0  0  0  0  0  0  0  0  0
   -4.7899    5.0311    0.9701 C   0  0  0  0  0  0  0  0  0  0  0  0
   -3.7943    5.7316   -0.3958 S   0  0  0  0  0  0  0  0  0  0  0  0
   -3.6053    4.1933   -1.3737 C   0  0  0  0  0  0  0  0  0  0  0  0
   -2.3453    3.4672   -0.9846 C   0  0  0  0  0  0  0  0  0  0  0  0
   -1.1094    4.1355   -1.0303 C   0  0  0  0  0  0  0  0  0  0  0  0
    0.0822    3.4535   -0.7464 C   0  0  0  0  0  0  0  0  0  0  0  0
    0.0376    2.0831   -0.4487 C   0  0  0  0  0  0  0  0  0  0  0  0
   -1.1858    1.3966   -0.4019 C   0  0  0  0  0  0  0  0  0  0  0  0
   -2.3774    2.1003   -0.6468 C   0  0  0  0  0  0  0  0  0  0  0  0
   -1.2234   -0.0597   -0.0191 C   0  0  0  0  0  0  0  0  0  0  0  0
   -1.4223   -0.1988    1.7904 S   0  0  0  0  0  0  0  0  0  0  0  0
   -0.5229   -1.7792    2.0252 C   0  0  0  0  0  0  0  0  0  0  0  0
   -1.3657   -2.9945    1.5940 C   0  0  2  0  0  0  0  0  0  0  0  0
   -2.6293   -3.0280    2.3387 N   0  0  0  0  0  0  0  0  0  0  0  0
   -3.7644   -3.8156    1.9403 C   0  0  0  0  0  0  0  0  0  0  0  0
   -4.4092   -4.4340    2.8302 O   0  0  0  0  0  0  0  0  0  0  0  0
   -4.1854   -3.9312    0.4899 C   0  0  1  0  0  0  0  0  0  0  0  0
   -3.6396   -5.2049   -0.1471 C   0  0  0  0  0  0  0  0  0  0  0  0
   -5.6471   -3.8208    0.3415 N   0  0  0  0  0  0  0  0  0  0  0  0
   -6.6104   -4.6542    1.0135 C   0  0  0  0  0  0  0  0  0  0  0  0
   -7.3515   -4.1353    1.8899 O   0  0  0  0  0  0  0  0  0  0  0  0
   -6.8091   -6.1064    0.6336 C   0  0  1  0  0  0  0  0  0  0  0  0
   -6.7957   -7.0094    1.8633 C   0  0  0  0  0  0  0  0  0  0  0  0
   -8.0484   -6.3239   -0.1248 N   0  0  0  0  0  0  0  0  0  0  0  0
   -9.1459   -5.4138   -0.1495 C   0  0  0  0  0  0  0  0  0  0  0  0
   -9.9758   -5.4159    0.8038 O   0  0  0  0  0  0  0  0  0  0  0  0
   -9.3476   -4.5323   -1.3514 C   0  0  1  0  0  0  0  0  0  0  0  0
   -9.9802   -5.3261   -2.4931 C   0  0  0  0  0  0  0  0  0  0  0  0
  -10.2027   -3.3862   -1.0150 N   0  0  0  0  0  0  0  0  0  0  0  0
   -9.7202   -2.0320   -1.0258 C   0  0  0  0  0  0  0  0  0  0  0  0
   -8.4825   -1.8012   -0.9205 O   0  0  0  0  0  0  0  0  0  0  0  0
  -10.6722   -0.8784   -1.1799 C   0  0  1  0  0  0  0  0  0  0  0  0
  -11.5024   -1.0347   -2.4574 C   0  0  0  0  0  0  0  0  0  0  0  0
  -11.5596   -0.7959   -0.0136 N   0  0  0  0  0  0  0  0  0  0  0  0
  -11.9876    0.4432    0.5753 C   0  0  0  0  0  0  0  0  0  0  0  0
  -13.1786    0.5219    1.0003 O   0  0  0  0  0  0  0  0  0  0  0  0
  -11.0894    1.6652    0.6173 C   0  0  1  0  0  0  0  0  0  0  0  0
  -11.6829    2.7783    1.4990 C   0  0  0  0  0  0  0  0  0  0  0  0
   -9.7621    1.2928    1.1313 N   0  0  0  0  0  0  0  0  0  0  0  0
   -8.5185    1.6261    0.4897 C   0  0  0  0  0  0  0  0  0  0  0  0
   -7.6778    0.7046    0.2977 O   0  0  0  0  0  0  0  0  0  0  0  0
   -8.1137    3.0485    0.1707 C   0  0  1  0  0  0  0  0  0  0  0  0
   -8.9484    3.6646   -0.9577 C   0  0  0  0  0  0  0  0  0  0  0  0
   -8.1800    3.8756    1.3823 N   0  0  0  0  0  0  0  0  0  0  0  0
   -7.1270    4.7503    1.8128 C   0  0  0  0  0  0  0  0  0  0  0  0
   -6.9585    4.9320    3.0498 O   0  0  0  0  0  0  0  0  0  0  0  0
   -0.6015   -4.2733    1.8468 C   0  0  0  0  0  0  0  0  0  0  0  0
   -0.4755   -4.6905    3.0303 O   0  0  0  0  0  0  0  0  0  0  0  0
   -0.1166   -5.0792    0.7682 N   0  0  0  0  0  0  0  0  0  0  0  0
    0.7062   -4.5414   -0.3205 C   0  0  2  0  0  0  0  0  0  0  0  0
    0.2059   -5.0727   -1.6650 C   0  0  0  0  0  0  0  0  0  0  0  0
    2.1709   -4.8833   -0.1353 C   0  0  0  0  0  0  0  0  0  0  0  0
    3.0335   -4.1250   -0.6457 O   0  0  0  0  0  0  0  0  0  0  0  0
    2.5899   -6.1061    0.4999 N   0  0  0  0  0  0  0  0  0  0  0  0
    3.9079   -6.6994    0.2484 C   0  0  2  0  0  0  0  0  0  0  0  0
    3.8915   -8.1888    0.6088 C   0  0  0  0  0  0  0  0  0  0  0  0
    4.9765   -6.0048    1.0651 C   0  0  0  0  0  0  0  0  0  0  0  0
    4.7539   -5.7719    2.2833 O   0  0  0  0  0  0  0  0  0  0  0  0
    6.2818   -5.7020    0.5352 N   0  0  0  0  0  0  0  0  0  0  0  0
    6.5914   -5.5168   -0.8860 C   0  0  2  0  0  0  0  0  0  0  0  0
    7.0154   -6.8618   -1.4942 C   0  0  0  0  0  0  0  0  0  0  0  0
    7.6993   -4.4986   -1.0899 C   0  0  0  0  0  0  0  0  0  0  0  0
    8.1266   -4.2854   -2.2611 O   0  0  0  0  0  0  0  0  0  0  0  0
    8.2954   -3.7949    0.0103 N   0  0  0  0  0  0  0  0  0  0  0  0
    9.7521   -3.6958    0.1381 C   0  0  2  0  0  0  0  0  0  0  0  0
   10.3533   -5.1074    0.2749 C   0  0  0  0  0  0  0  0  0  0  0  0
   10.1191   -2.8771    1.3612 C   0  0  0  0  0  0  0  0  0  0  0  0
    9.6297   -3.2086    2.4771 O   0  0  0  0  0  0  0  0  0  0  0  0
   11.0082   -1.7440    1.3171 N   0  0  0  0  0  0  0  0  0  0  0  0
   11.8348   -1.3250    0.1726 C   0  0  2  0  0  0  0  0  0  0  0  0
   12.9168   -2.3788   -0.1199 C   0  0  0  0  0  0  0  0  0  0  0  0
   12.4571    0.0295    0.4753 C   0  0  0  0  0  0  0  0  0  0  0  0
   13.6936    0.1069    0.7301 O   0  0  0  0  0  0  0  0  0  0  0  0
   11.6686    1.2301    0.5335 N   0  0  0  0  0  0  0  0  0  0  0  0
   10.3386    1.3734   -0.0707 C   0  0  2  0  0  0  0  0  0  0  0  0
   10.4877    1.7636   -1.5438 C   0  0  0  0  0  0  0  0  0  0  0  0
    9.5179    2.4209    0.6430 C   0  0  0  0  0  0  0  0  0  0  0  0
    8.2716    2.2740    0.7375 O   0  0  0  0  0  0  0  0  0  0  0  0
   10.1137    3.6490    1.0828 N   0  0  0  0  0  0  0  0  0  0  0  0
    9.7096    4.9398    0.5192 C   0  0  2  0  0  0  0  0  0  0  0  0
   10.9526    5.6728    0.0061 C   0  0  0  0  0  0  0  0  0  0  0  0
    9.0101    5.7736    1.5706 C   0  0  0  0  0  0  0  0  0  0  0  0
    9.6267    6.0240    2.6417 O   0  0  0  0  0  0  0  0  0  0  0  0
    7.6773    6.3014    1.4105 N   0  0  0  0  0  0  0  0  0  0  0  0
    6.8565    6.1718    0.1983 C   0  0  2  0  0  0  0  0  0  0  0  0
    7.3776    7.1091   -0.8965 C   0  0  0  0  0  0  0  0  0  0  0  0
    5.3967    6.4286    0.5156 C   0  0  0  0  0  0  0  0  0  0  0  0
    4.8398    5.7724    1.4399 O   0  0  0  0  0  0  0  0  0  0  0  0
    4.6274    7.3606   -0.2458 N   0  0  0  0  0  0  0  0  0  0  0  0
    3.3131    7.0262   -0.8075 C   0  0  1  0  0  0  0  0  0  0  0  0
    2.8163    8.1799   -1.6496 C   0  0  0  0  0  0  0  0  0  0  0  0
    1.6955    8.9644   -1.2333 N   0  0  0  0  0  0  0  0  0  0  0  0
    3.4163    8.4723   -2.7207 O   0  0  0  0  0  0  0  0  0  0  0  0
    3.3960    5.7360   -1.6497 C   0  0  0  0  0  0  0  0  0  0  0  0
    1.7398    5.1377   -2.1784 S   0  0  0  0  0  0  0  0  0  0  0  0
    1.3819    4.2121   -0.6397 C   0  0  0  0  0  0  0  0  0  0  0  0
   -7.9274    6.8565   -1.3027 H   0  0  0  0  0  0  0  0  0  0  0  0
   -7.5236    8.5569   -1.7119 H   0  0  0  0  0  0  0  0  0  0  0  0
   -6.2150    7.3183   -1.7108 H   0  0  0  0  0  0  0  0  0  0  0  0
   -6.1287    7.2438    2.1106 H   0  0  0  0  0  0  0  0  0  0  0  0
   -6.5714    5.2890   -0.1972 H   0  0  0  0  0  0  0  0  0  0  0  0
   -4.3650    5.3811    1.9346 H   0  0  0  0  0  0  0  0  0  0  0  0
   -4.7398    3.9195    0.9774 H   0  0  0  0  0  0  0  0  0  0  0  0
   -4.5084    3.5496   -1.2813 H   0  0  0  0  0  0  0  0  0  0  0  0
   -3.5235    4.4780   -2.4430 H   0  0  0  0  0  0  0  0  0  0  0  0
   -1.0761    5.1917   -1.2817 H   0  0  0  0  0  0  0  0  0  0  0  0
    0.9593    1.5485   -0.2467 H   0  0  0  0  0  0  0  0  0  0  0  0
   -3.3273    1.5821   -0.6064 H   0  0  0  0  0  0  0  0  0  0  0  0
   -2.0808   -0.5665   -0.5123 H   0  0  0  0  0  0  0  0  0  0  0  0
   -0.2917   -0.5641   -0.3543 H   0  0  0  0  0  0  0  0  0  0  0  0
   -0.2816   -1.8652    3.1089 H   0  0  0  0  0  0  0  0  0  0  0  0
    0.4425   -1.7655    1.4716 H   0  0  0  0  0  0  0  0  0  0  0  0
   -1.5665   -2.9094    0.5071 H   0  0  0  0  0  0  0  0  0  0  0  0
   -2.5974   -2.7484    3.3454 H   0  0  0  0  0  0  0  0  0  0  0  0
   -3.7435   -3.0730   -0.0654 H   0  0  0  0  0  0  0  0  0  0  0  0
   -4.1018   -5.3703   -1.1440 H   0  0  0  0  0  0  0  0  0  0  0  0
   -2.5450   -5.1132   -0.2920 H   0  0  0  0  0  0  0  0  0  0  0  0
   -3.8153   -6.0882    0.5032 H   0  0  0  0  0  0  0  0  0  0  0  0
   -6.0093   -2.9061   -0.0008 H   0  0  0  0  0  0  0  0  0  0  0  0
   -5.9786   -6.4239   -0.0243 H   0  0  0  0  0  0  0  0  0  0  0  0
   -6.8859   -8.0742    1.5544 H   0  0  0  0  0  0  0  0  0  0  0  0
   -5.8413   -6.8866    2.4172 H   0  0  0  0  0  0  0  0  0  0  0  0
   -7.6419   -6.7654    2.5439 H   0  0  0  0  0  0  0  0  0  0  0  0
   -8.1380   -7.2039   -0.6815 H   0  0  0  0  0  0  0  0  0  0  0  0
   -8.3446   -4.1799   -1.6852 H   0  0  0  0  0  0  0  0  0  0  0  0
   -9.3238   -6.1696   -2.7951 H   0  0  0  0  0  0  0  0  0  0  0  0
  -10.9653   -5.7378   -2.1833 H   0  0  0  0  0  0  0  0  0  0  0  0
  -10.1283   -4.6659   -3.3725 H   0  0  0  0  0  0  0  0  0  0  0  0
  -11.2139   -3.5639   -0.8251 H   0  0  0  0  0  0  0  0  0  0  0  0
  -10.0846    0.0559   -1.2888 H   0  0  0  0  0  0  0  0  0  0  0  0
  -12.1383   -0.1347   -2.6113 H   0  0  0  0  0  0  0  0  0  0  0  0
  -12.1638   -1.9287   -2.3974 H   0  0  0  0  0  0  0  0  0  0  0  0
  -10.8345   -1.1438   -3.3410 H   0  0  0  0  0  0  0  0  0  0  0  0
  -12.1202   -1.6472    0.2310 H   0  0  0  0  0  0  0  0  0  0  0  0
  -11.0188    2.0436   -0.4206 H   0  0  0  0  0  0  0  0  0  0  0  0
  -11.0838    3.7015    1.4160 H   0  0  0  0  0  0  0  0  0  0  0  0
  -11.7101    2.4600    2.5610 H   0  0  0  0  0  0  0  0  0  0  0  0
  -12.7130    3.0307    1.1634 H   0  0  0  0  0  0  0  0  0  0  0  0
   -9.7252    0.5760    1.8913 H   0  0  0  0  0  0  0  0  0  0  0  0
   -7.0629    3.0148   -0.1911 H   0  0  0  0  0  0  0  0  0  0  0  0
   -9.1268    2.9188   -1.7656 H   0  0  0  0  0  0  0  0  0  0  0  0
   -9.9193    4.0487   -0.5848 H   0  0  0  0  0  0  0  0  0  0  0  0
   -8.4082    4.5217   -1.4076 H   0  0  0  0  0  0  0  0  0  0  0  0
   -8.9151    3.6579    2.0937 H   0  0  0  0  0  0  0  0  0  0  0  0
   -0.2293   -6.1162    0.8539 H   0  0  0  0  0  0  0  0  0  0  0  0
    0.6124   -3.4329   -0.3428 H   0  0  0  0  0  0  0  0  0  0  0  0
    0.8564   -4.7110   -2.4895 H   0  0  0  0  0  0  0  0  0  0  0  0
   -0.8236   -4.7089   -1.8620 H   0  0  0  0  0  0  0  0  0  0  0  0
    0.2004   -6.1828   -1.6746 H   0  0  0  0  0  0  0  0  0  0  0  0
    1.8975   -6.6531    1.0577 H   0  0  0  0  0  0  0  0  0  0  0  0
    4.1239   -6.6300   -0.8385 H   0  0  0  0  0  0  0  0  0  0  0  0
    3.6771   -8.3335    1.6898 H   0  0  0  0  0  0  0  0  0  0  0  0
    4.8732   -8.6530    0.3798 H   0  0  0  0  0  0  0  0  0  0  0  0
    3.1049   -8.7061    0.0168 H   0  0  0  0  0  0  0  0  0  0  0  0
    7.0723   -5.7046    1.2208 H   0  0  0  0  0  0  0  0  0  0  0  0
    5.7026   -5.1337   -1.4221 H   0  0  0  0  0  0  0  0  0  0  0  0
    7.9331   -7.2411   -0.9892 H   0  0  0  0  0  0  0  0  0  0  0  0
    7.2227   -6.7538   -2.5806 H   0  0  0  0  0  0  0  0  0  0  0  0
    6.2119   -7.6153   -1.3800 H   0  0  0  0  0  0  0  0  0  0  0  0
    7.6776   -3.4804    0.7929 H   0  0  0  0  0  0  0  0  0  0  0  0
   10.1575   -3.2214   -0.7803 H   0  0  0  0  0  0  0  0  0  0  0  0
   11.4345   -5.0605    0.5103 H   0  0  0  0  0  0  0  0  0  0  0  0
    9.8375   -5.6657    1.0879 H   0  0  0  0  0  0  0  0  0  0  0  0
   10.2264   -5.6686   -0.6732 H   0  0  0  0  0  0  0  0  0  0  0  0
   11.0920   -1.1975    2.2036 H   0  0  0  0  0  0  0  0  0  0  0  0
   11.2059   -1.2239   -0.7324 H   0  0  0  0  0  0  0  0  0  0  0  0
   13.4519   -2.6614    0.8152 H   0  0  0  0  0  0  0  0  0  0  0  0
   13.6562   -1.9981   -0.8573 H   0  0  0  0  0  0  0  0  0  0  0  0
   12.4757   -3.2931   -0.5614 H   0  0  0  0  0  0  0  0  0  0  0  0
   12.1899    2.1012    0.7810 H   0  0  0  0  0  0  0  0  0  0  0  0
    9.7837    0.4108   -0.0103 H   0  0  0  0  0  0  0  0  0  0  0  0
   11.0718    2.7052   -1.6321 H   0  0  0  0  0  0  0  0  0  0  0  0
   11.0222    0.9637   -2.0985 H   0  0  0  0  0  0  0  0  0  0  0  0
    9.4911    1.9129   -2.0049 H   0  0  0  0  0  0  0  0  0  0  0  0
   10.8550    3.6207    1.8199 H   0  0  0  0  0  0  0  0  0  0  0  0
    9.0560    4.7644   -0.3570 H   0  0  0  0  0  0  0  0  0  0  0  0
   11.6850    5.8244    0.8251 H   0  0  0  0  0  0  0  0  0  0  0  0
   10.6805    6.6646   -0.4141 H   0  0  0  0  0  0  0  0  0  0  0  0
   11.4388    5.0752   -0.7943 H   0  0  0  0  0  0  0  0  0  0  0  0
    7.2531    6.7568    2.2546 H   0  0  0  0  0  0  0  0  0  0  0  0
    6.8987    5.1234   -0.1649 H   0  0  0  0  0  0  0  0  0  0  0  0
    7.3230    8.1690   -0.5521 H   0  0  0  0  0  0  0  0  0  0  0  0
    8.4288    6.8848   -1.1576 H   0  0  0  0  0  0  0  0  0  0  0  0
    6.7664    6.9992   -1.8173 H   0  0  0  0  0  0  0  0  0  0  0  0
    4.8709    8.3775   -0.1220 H   0  0  0  0  0  0  0  0  0  0  0  0
    2.6145    6.8625    0.0431 H   0  0  0  0  0  0  0  0  0  0  0  0
    1.3924    9.7843   -1.8069 H   0  0  0  0  0  0  0  0  0  0  0  0
    1.1788    8.7487   -0.3500 H   0  0  0  0  0  0  0  0  0  0  0  0
    3.9137    4.9268   -1.0928 H   0  0  0  0  0  0  0  0  0  0  0  0
    4.0051    5.9296   -2.5626 H   0  0  0  0  0  0  0  0  0  0  0  0
    1.3057    4.9223    0.2080 H   0  0  0  0  0  0  0  0  0  0  0  0
    2.2234    3.5131   -0.4399 H   0  0  0  0  0  0  0  0  0  0  0  0
  1  2  1  0
  2  3  2  0
  2  4  1  0
  4  5  1  0
  5  6  1  0
  6  7  1  0
  7  8  1  0
  8  9  1  0
  9 10  2  0
 10 11  1  0
 11 12  2  0
 12 13  1  0
 13 14  2  0
 13 15  1  0
 15 16  1  0
 16 17  1  0
 17 18  1  0
 18 19  1  0
 19 20  1  0
 20 21  2  0
 20 22  1  0
 22 23  1  0
 22 24  1  0
 24 25  1  0
 25 26  2  0
 25 27  1  0
 27 28  1  0
 27 29  1  0
 29 30  1  0
 30 31  2  0
 30 32  1  0
 32 33  1  0
 32 34  1  0
 34 35  1  0
 35 36  2  0
 35 37  1  0
 37 38  1  0
 37 39  1  0
 39 40  1  0
 40 41  2  0
 40 42  1  0
 42 43  1  0
 42 44  1  0
 44 45  1  0
 45 46  2  0
 45 47  1  0
 47 48  1  0
 47 49  1  0
 49 50  1  0
 50 51  2  0
 18 52  1  0
 52 53  2  0
 52 54  1  0
 54 55  1  0
 55 56  1  0
 55 57  1  0
 57 58  2  0
 57 59  1  0
 59 60  1  0
 60 61  1  0
 60 62  1  0
 62 63  2  0
 62 64  1  0
 64 65  1  0
 65 66  1  0
 65 67  1  0
 67 68  2  0
 67 69  1  0
 69 70  1  0
 70 71  1  0
 70 72  1  0
 72 73  2  0
 72 74  1  0
 74 75  1  0
 75 76  1  0
 75 77  1  0
 77 78  2  0
 77 79  1  0
 79 80  1  0
 80 81  1  0
 80 82  1  0
 82 83  2  0
 82 84  1  0
 84 85  1  0
 85 86  1  0
 85 87  1  0
 87 88  2  0
 87 89  1  0
 89 90  1  0
 90 91  1  0
 90 92  1  0
 92 93  2  0
 92 94  1  0
 94 95  1  0
 95 96  1  0
 96 97  1  0
 96 98  2  0
 95 99  1  0
 99100  1  0
100101  1  0
 50  5  1  0
 14  9  1  0
101 11  1  0
  1102  1  0
  1103  1  0
  1104  1  0
  4105  1  0
  5106  1  6
  6107  1  0
  6108  1  0
  8109  1  0
  8110  1  0
 10111  1  0
 12112  1  0
 14113  1  0
 15114  1  0
 15115  1  0
 17116  1  0
 17117  1  0
 18118  1  6
 19119  1  0
 22120  1  6
 23121  1  0
 23122  1  0
 23123  1  0
 24124  1  0
 27125  1  6
 28126  1  0
 28127  1  0
 28128  1  0
 29129  1  0
 32130  1  6
 33131  1  0
 33132  1  0
 33133  1  0
 34134  1  0
 37135  1  6
 38136  1  0
 38137  1  0
 38138  1  0
 39139  1  0
 42140  1  6
 43141  1  0
 43142  1  0
 43143  1  0
 44144  1  0
 47145  1  6
 48146  1  0
 48147  1  0
 48148  1  0
 49149  1  0
 54150  1  0
 55151  1  6
 56152  1  0
 56153  1  0
 56154  1  0
 59155  1  0
 60156  1  6
 61157  1  0
 61158  1  0
 61159  1  0
 64160  1  0
 65161  1  6
 66162  1  0
 66163  1  0
 66164  1  0
 69165  1  0
 70166  1  6
 71167  1  0
 71168  1  0
 71169  1  0
 74170  1  0
 75171  1  6
 76172  1  0
 76173  1  0
 76174  1  0
 79175  1  0
 80176  1  6
 81177  1  0
 81178  1  0
 81179  1  0
 84180  1  0
 85181  1  6
 86182  1  0
 86183  1  0
 86184  1  0
 89185  1  0
 90186  1  6
 91187  1  0
 91188  1  0
 91189  1  0
 94190  1  0
 95191  1  1
 97192  1  0
 97193  1  0
 99194  1  0
 99195  1  0
101196  1  0
101197  1  0
M  END
