
     RDKit          3D

107109  0  0  0  0  0  0  0  0999 V2000
   -8.0302    3.8262    0.5358 C   0  0  0  0  0  0  0  0  0  0  0  0
   -7.0544    2.8362    1.0614 C   0  0  0  0  0  0  0  0  0  0  0  0
   -6.8837    2.7712    2.3160 O   0  0  0  0  0  0  0  0  0  0  0  0
   -6.2965    1.9513    0.2154 N   0  0  0  0  0  0  0  0  0  0  0  0
   -6.3372    1.8639   -1.2626 C   0  0  1  0  0  0  0  0  0  0  0  0
   -5.6368    3.0822   -1.9591 C   0  0  0  0  0  0  0  0  0  0  0  0
   -4.2091    3.6632   -0.9985 S   0  0  0  0  0  0  0  0  0  0  0  0
   -3.0200    4.0405   -2.3783 C   0  0  0  0  0  0  0  0  0  0  0  0
   -1.6743    3.6568   -1.8429 C   0  0  0  0  0  0  0  0  0  0  0  0
   -1.0427    4.5517   -0.9718 C   0  0  0  0  0  0  0  0  0  0  0  0
   -0.6952    4.1071    0.3320 C   0  0  0  0  0  0  0  0  0  0  0  0
   -0.9117    2.7617    0.6409 C   0  0  0  0  0  0  0  0  0  0  0  0
   -1.0453    1.8244   -0.3956 C   0  0  0  0  0  0  0  0  0  0  0  0
   -1.4256    2.2825   -1.6738 C   0  0  0  0  0  0  0  0  0  0  0  0
   -1.0023    0.3326   -0.1621 C   0  0  0  0  0  0  0  0  0  0  0  0
   -0.8806   -0.1767    1.5877 S   0  0  0  0  0  0  0  0  0  0  0  0
   -0.6036   -1.9618    1.1879 C   0  0  0  0  0  0  0  0  0  0  0  0
   -1.7823   -2.6510    0.4357 C   0  0  2  0  0  0  0  0  0  0  0  0
   -3.0328   -2.3681    1.1786 N   0  0  0  0  0  0  0  0  0  0  0  0
   -3.9593   -1.3213    0.8285 C   0  0  0  0  0  0  0  0  0  0  0  0
   -4.3182   -0.5131    1.7326 O   0  0  0  0  0  0  0  0  0  0  0  0
   -4.7231   -1.3770   -0.4733 C   0  0  1  0  0  0  0  0  0  0  0  0
   -6.1809   -1.7830   -0.1780 C   0  0  0  0  0  0  0  0  0  0  0  0
   -4.6267   -0.0883   -1.1860 N   0  0  0  0  0  0  0  0  0  0  0  0
   -5.7243    0.5654   -1.7932 C   0  0  0  0  0  0  0  0  0  0  0  0
   -6.1508    0.1304   -2.9112 O   0  0  0  0  0  0  0  0  0  0  0  0
   -1.5676   -4.1612    0.2858 C   0  0  0  0  0  0  0  0  0  0  0  0
   -2.2982   -4.9408    0.9628 O   0  0  0  0  0  0  0  0  0  0  0  0
   -0.5839   -4.7290   -0.6179 N   0  0  0  0  0  0  0  0  0  0  0  0
    0.8304   -4.2954   -0.6603 C   0  0  2  0  0  0  0  0  0  0  0  0
    1.0626   -3.2449   -1.7307 C   0  0  0  0  0  0  0  0  0  0  0  0
    1.8162   -5.4026   -0.9168 C   0  0  0  0  0  0  0  0  0  0  0  0
    1.4756   -6.4433   -1.5622 O   0  0  0  0  0  0  0  0  0  0  0  0
    3.2088   -5.1836   -0.6110 N   0  0  0  0  0  0  0  0  0  0  0  0
    3.7531   -5.0422    0.7647 C   0  0  2  0  0  0  0  0  0  0  0  0
    3.1226   -6.0450    1.7442 C   0  0  0  0  0  0  0  0  0  0  0  0
    3.6493   -3.6176    1.3087 C   0  0  0  0  0  0  0  0  0  0  0  0
    2.6651   -3.2786    2.0201 O   0  0  0  0  0  0  0  0  0  0  0  0
    4.7344   -2.6836    1.1673 N   0  0  0  0  0  0  0  0  0  0  0  0
    5.5885   -2.6036   -0.0259 C   0  0  2  0  0  0  0  0  0  0  0  0
    7.0215   -3.0035    0.3570 C   0  0  0  0  0  0  0  0  0  0  0  0
    5.5883   -1.2006   -0.5892 C   0  0  0  0  0  0  0  0  0  0  0  0
    6.2439   -0.9448   -1.6167 O   0  0  0  0  0  0  0  0  0  0  0  0
    4.7871   -0.1569    0.0184 N   0  0  0  0  0  0  0  0  0  0  0  0
    5.2544    1.1777    0.4126 C   0  0  2  0  0  0  0  0  0  0  0  0
    6.7600    1.2311    0.6692 C   0  0  0  0  0  0  0  0  0  0  0  0
    4.5813    1.6099    1.7059 C   0  0  0  0  0  0  0  0  0  0  0  0
    4.6267    0.8517    2.7127 O   0  0  0  0  0  0  0  0  0  0  0  0
    3.9810    2.9270    1.8282 N   0  0  0  0  0  0  0  0  0  0  0  0
    3.3860    3.7130    0.7237 C   0  0  1  0  0  0  0  0  0  0  0  0
    2.5305    2.8228   -0.1453 C   0  0  0  0  0  0  0  0  0  0  0  0
    2.6280    2.9003   -1.5617 N   0  0  0  0  0  0  0  0  0  0  0  0
    1.7837    1.9386    0.3833 O   0  0  0  0  0  0  0  0  0  0  0  0
    2.5538    4.9260    1.2288 C   0  0  0  0  0  0  0  0  0  0  0  0
    1.1706    4.4037    2.3313 S   0  0  0  0  0  0  0  0  0  0  0  0
   -0.2706    5.0782    1.4038 C   0  0  0  0  0  0  0  0  0  0  0  0
   -7.8635    4.0475   -0.5273 H   0  0  0  0  0  0  0  0  0  0  0  0
   -8.0042    4.7547    1.1295 H   0  0  0  0  0  0  0  0  0  0  0  0
   -9.0532    3.3935    0.6322 H   0  0  0  0  0  0  0  0  0  0  0  0
   -5.4953    1.5152    0.7346 H   0  0  0  0  0  0  0  0  0  0  0  0
   -7.4200    1.8638   -1.5880 H   0  0  0  0  0  0  0  0  0  0  0  0
   -5.3322    2.8020   -2.9879 H   0  0  0  0  0  0  0  0  0  0  0  0
   -6.3237    3.9481   -2.0882 H   0  0  0  0  0  0  0  0  0  0  0  0
   -3.2356    3.4871   -3.3212 H   0  0  0  0  0  0  0  0  0  0  0  0
   -3.0248    5.1323   -2.6021 H   0  0  0  0  0  0  0  0  0  0  0  0
   -1.1015    5.6133   -1.1538 H   0  0  0  0  0  0  0  0  0  0  0  0
   -0.9353    2.4601    1.6699 H   0  0  0  0  0  0  0  0  0  0  0  0
   -1.7880    1.5806   -2.4265 H   0  0  0  0  0  0  0  0  0  0  0  0
   -0.1625   -0.1180   -0.7287 H   0  0  0  0  0  0  0  0  0  0  0  0
   -1.9715   -0.0600   -0.5677 H   0  0  0  0  0  0  0  0  0  0  0  0
    0.3251   -1.9789    0.5915 H   0  0  0  0  0  0  0  0  0  0  0  0
   -0.4022   -2.5039    2.1293 H   0  0  0  0  0  0  0  0  0  0  0  0
   -1.8627   -2.2737   -0.6069 H   0  0  0  0  0  0  0  0  0  0  0  0
   -3.1267   -2.7260    2.1600 H   0  0  0  0  0  0  0  0  0  0  0  0
   -4.2608   -2.1511   -1.1302 H   0  0  0  0  0  0  0  0  0  0  0  0
   -6.2018   -2.7108    0.4470 H   0  0  0  0  0  0  0  0  0  0  0  0
   -6.6873   -2.0011   -1.1498 H   0  0  0  0  0  0  0  0  0  0  0  0
   -6.7022   -0.9642    0.3583 H   0  0  0  0  0  0  0  0  0  0  0  0
   -3.8051   -0.0399   -1.8288 H   0  0  0  0  0  0  0  0  0  0  0  0
   -0.8098   -5.6578   -1.0210 H   0  0  0  0  0  0  0  0  0  0  0  0
    1.0936   -3.8928    0.3189 H   0  0  0  0  0  0  0  0  0  0  0  0
    2.0405   -2.7439   -1.5504 H   0  0  0  0  0  0  0  0  0  0  0  0
    1.0948   -3.6719   -2.7710 H   0  0  0  0  0  0  0  0  0  0  0  0
    0.2516   -2.4701   -1.6970 H   0  0  0  0  0  0  0  0  0  0  0  0
    3.8842   -5.4937   -1.3554 H   0  0  0  0  0  0  0  0  0  0  0  0
    4.8464   -5.3046    0.7335 H   0  0  0  0  0  0  0  0  0  0  0  0
    2.0458   -5.8573    1.8584 H   0  0  0  0  0  0  0  0  0  0  0  0
    3.6107   -5.9377    2.7343 H   0  0  0  0  0  0  0  0  0  0  0  0
    3.2819   -7.0798    1.4093 H   0  0  0  0  0  0  0  0  0  0  0  0
    4.9296   -2.0201    1.9707 H   0  0  0  0  0  0  0  0  0  0  0  0
    5.2533   -3.3021   -0.8254 H   0  0  0  0  0  0  0  0  0  0  0  0
    7.0838   -4.0449    0.7175 H   0  0  0  0  0  0  0  0  0  0  0  0
    7.4187   -2.3686    1.1695 H   0  0  0  0  0  0  0  0  0  0  0  0
    7.7103   -2.9161   -0.5109 H   0  0  0  0  0  0  0  0  0  0  0  0
    3.7678   -0.3514    0.1063 H   0  0  0  0  0  0  0  0  0  0  0  0
    5.0499    1.9127   -0.4109 H   0  0  0  0  0  0  0  0  0  0  0  0
    7.3127    1.1137   -0.3005 H   0  0  0  0  0  0  0  0  0  0  0  0
    7.1314    0.4672    1.3821 H   0  0  0  0  0  0  0  0  0  0  0  0
    7.0370    2.2361    1.0930 H   0  0  0  0  0  0  0  0  0  0  0  0
    3.7782    3.2483    2.8200 H   0  0  0  0  0  0  0  0  0  0  0  0
    4.2168    4.1461    0.1281 H   0  0  0  0  0  0  0  0  0  0  0  0
    2.0492    2.3022   -2.1732 H   0  0  0  0  0  0  0  0  0  0  0  0
    3.3186    3.5484   -2.0290 H   0  0  0  0  0  0  0  0  0  0  0  0
    3.1997    5.6324    1.8323 H   0  0  0  0  0  0  0  0  0  0  0  0
    2.1669    5.5192    0.3271 H   0  0  0  0  0  0  0  0  0  0  0  0
   -1.1206    5.2198    2.0901 H   0  0  0  0  0  0  0  0  0  0  0  0
   -0.0430    6.0867    0.9514 H   0  0  0  0  0  0  0  0  0  0  0  0
  1  2  1  0
  2  3  2  0
  2  4  1  0
  4  5  1  0
  5  6  1  0
  6  7  1  0
  7  8  1  0
  8  9  1  0
  9 10  1  0
 10 11  2  0
 11 12  1  0
 12 13  2  0
 13 14  1  0
 13 15  1  0
 15 16  1  0
 16 17  1  0
 17 18  1  0
 18 19  1  0
 19 20  1  0
 20 21  2  0
 20 22  1  0
 22 23  1  0
 22 24  1  0
 24 25  1  0
 25 26  2  0
 18 27  1  0
 27 28  2  0
 27 29  1  0
 29 30  1  0
 30 31  1  0
 30 32  1  0
 32 33  2  0
 32 34  1  0
 34 35  1  0
 35 36  1  0
 35 37  1  0
 37 38  2  0
 37 39  1  0
 39 40  1  0
 40 41  1  0
 40 42  1  0
 42 43  2  0
 42 44  1  0
 44 45  1  0
 45 46  1  0
 45 47  1  0
 47 48  2  0
 47 49  1  0
 49 50  1  0
 50 51  1  0
 51 52  1  0
 51 53  2  0
 50 54  1  0
 54 55  1  0
 55 56  1  0
 25  5  1  0
 14  9  2  0
 56 11  1  0
  1 57  1  0
  1 58  1  0
  1 59  1  0
  4 60  1  0
  5 61  1  6
  6 62  1  0
  6 63  1  0
  8 64  1  0
  8 65  1  0
 10 66  1  0
 12 67  1  0
 14 68  1  0
 15 69  1  0
 15 70  1  0
 17 71  1  0
 17 72  1  0
 18 73  1  6
 19 74  1  0
 22 75  1  6
 23 76  1  0
 23 77  1  0
 23 78  1  0
 24 79  1  0
 29 80  1  0
 30 81  1  1
 31 82  1  0
 31 83  1  0
 31 84  1  0
 34 85  1  0
 35 86  1  6
 36 87  1  0
 36 88  1  0
 36 89  1  0
 39 90  1  0
 40 91  1  6
 41 92  1  0
 41 93  1  0
 41 94  1  0
 44 95  1  0
 45 96  1  6
 46 97  1  0
 46 98  1  0
 46 99  1  0
 49100  1  0
 50101  1  6
 52102  1  0
 52103  1  0
 54104  1  0
 54105  1  0
 56106  1  0
 56107  1  0
M  END
