
     RDKit          3D

197199  0  0  0  0  0  0  0  0999 V2000
   -7.3192    5.2156   -1.3111 C   0  0  0  0  0  0  0  0  0  0  0  0
   -6.8243    5.7805   -0.0137 C   0  0  0  0  0  0  0  0  0  0  0  0
   -6.8723    7.0307    0.1472 O   0  0  0  0  0  0  0  0  0  0  0  0
   -6.3481    4.9578    1.0728 N   0  0  0  0  0  0  0  0  0  0  0  0
   -5.6685    3.6589    0.9627 C   0  0  2  0  0  0  0  0  0  0  0  0
   -4.4880    3.7349   -0.0223 C   0  0  0  0  0  0  0  0  0  0  0  0
   -3.3452    5.0848    0.4666 S   0  0  0  0  0  0  0  0  0  0  0  0
   -2.3481    5.0888   -1.0715 C   0  0  0  0  0  0  0  0  0  0  0  0
   -1.1590    4.1838   -0.9326 C   0  0  0  0  0  0  0  0  0  0  0  0
   -0.1863    4.4474    0.0459 C   0  0  0  0  0  0  0  0  0  0  0  0
    0.9448    3.6277    0.1691 C   0  0  0  0  0  0  0  0  0  0  0  0
    1.0704    2.5035   -0.6660 C   0  0  0  0  0  0  0  0  0  0  0  0
    0.1149    2.2390   -1.6571 C   0  0  0  0  0  0  0  0  0  0  0  0
   -0.9856    3.0989   -1.8023 C   0  0  0  0  0  0  0  0  0  0  0  0
    0.2967    1.0852   -2.6028 C   0  0  0  0  0  0  0  0  0  0  0  0
   -1.1561   -0.0178   -2.6194 S   0  0  0  0  0  0  0  0  0  0  0  0
   -0.8191   -0.8578   -1.0239 C   0  0  0  0  0  0  0  0  0  0  0  0
   -1.6384   -2.1607   -0.9558 C   0  0  2  0  0  0  0  0  0  0  0  0
   -3.0795   -1.8530   -0.9421 N   0  0  0  0  0  0  0  0  0  0  0  0
   -4.1856   -2.7812   -0.9566 C   0  0  0  0  0  0  0  0  0  0  0  0
   -5.3212   -2.3386   -0.6262 O   0  0  0  0  0  0  0  0  0  0  0  0
   -4.0965   -4.2532   -1.3011 C   0  0  1  0  0  0  0  0  0  0  0  0
   -3.0970   -4.6207   -2.4084 C   0  0  0  0  0  0  0  0  0  0  0  0
   -3.8559   -5.0552   -0.0990 N   0  0  0  0  0  0  0  0  0  0  0  0
   -4.8363   -5.9047    0.5207 C   0  0  0  0  0  0  0  0  0  0  0  0
   -4.4371   -6.8971    1.1916 O   0  0  0  0  0  0  0  0  0  0  0  0
   -6.3199   -5.6567    0.3706 C   0  0  1  0  0  0  0  0  0  0  0  0
   -6.9091   -6.6269   -0.6558 C   0  0  0  0  0  0  0  0  0  0  0  0
   -7.0048   -5.8170    1.6612 N   0  0  0  0  0  0  0  0  0  0  0  0
   -8.1735   -5.0925    2.0813 C   0  0  0  0  0  0  0  0  0  0  0  0
   -8.5074   -5.1532    3.2975 O   0  0  0  0  0  0  0  0  0  0  0  0
   -9.0709   -4.3329    1.1205 C   0  0  1  0  0  0  0  0  0  0  0  0
  -10.3663   -5.1208    0.9145 C   0  0  0  0  0  0  0  0  0  0  0  0
   -9.3695   -2.9933    1.6472 N   0  0  0  0  0  0  0  0  0  0  0  0
  -10.0749   -1.9715    0.9149 C   0  0  0  0  0  0  0  0  0  0  0  0
  -10.8520   -1.2050    1.5497 O   0  0  0  0  0  0  0  0  0  0  0  0
   -9.8236   -1.7006   -0.5517 C   0  0  1  0  0  0  0  0  0  0  0  0
  -11.1507   -1.7587   -1.3300 C   0  0  0  0  0  0  0  0  0  0  0  0
   -9.1456   -0.4005   -0.6696 N   0  0  0  0  0  0  0  0  0  0  0  0
   -9.5704    0.6729   -1.5191 C   0  0  0  0  0  0  0  0  0  0  0  0
   -9.5857    0.5085   -2.7717 O   0  0  0  0  0  0  0  0  0  0  0  0
   -9.8770    2.0213   -0.9174 C   0  0  1  0  0  0  0  0  0  0  0  0
  -10.7906    2.8547   -1.8251 C   0  0  0  0  0  0  0  0  0  0  0  0
  -10.5253    1.8382    0.3850 N   0  0  0  0  0  0  0  0  0  0  0  0
  -10.1864    2.5641    1.5831 C   0  0  0  0  0  0  0  0  0  0  0  0
  -11.0752    2.6877    2.4759 O   0  0  0  0  0  0  0  0  0  0  0  0
   -8.8252    3.2107    1.7884 C   0  0  1  0  0  0  0  0  0  0  0  0
   -8.6667    3.7375    3.2203 C   0  0  0  0  0  0  0  0  0  0  0  0
   -7.7522    2.2474    1.5202 N   0  0  0  0  0  0  0  0  0  0  0  0
   -6.6368    2.5312    0.6564 C   0  0  0  0  0  0  0  0  0  0  0  0
   -6.4019    1.7471   -0.3055 O   0  0  0  0  0  0  0  0  0  0  0  0
   -1.2530   -2.9450    0.2709 C   0  0  0  0  0  0  0  0  0  0  0  0
   -1.7376   -2.6249    1.3932 O   0  0  0  0  0  0  0  0  0  0  0  0
   -0.3997   -4.0991    0.1785 N   0  0  0  0  0  0  0  0  0  0  0  0
    0.8639   -4.0859   -0.5625 C   0  0  2  0  0  0  0  0  0  0  0  0
    1.0100   -5.3853   -1.3603 C   0  0  0  0  0  0  0  0  0  0  0  0
    1.9960   -3.7337    0.3826 C   0  0  0  0  0  0  0  0  0  0  0  0
    1.9142   -2.6249    0.9747 O   0  0  0  0  0  0  0  0  0  0  0  0
    3.1776   -4.5291    0.6137 N   0  0  0  0  0  0  0  0  0  0  0  0
    3.2235   -5.9812    0.8395 C   0  0  2  0  0  0  0  0  0  0  0  0
    2.2683   -6.3588    1.9857 C   0  0  0  0  0  0  0  0  0  0  0  0
    4.6495   -6.4177    1.1430 C   0  0  0  0  0  0  0  0  0  0  0  0
    4.9456   -6.8274    2.2991 O   0  0  0  0  0  0  0  0  0  0  0  0
    5.6772   -6.4199    0.1336 N   0  0  0  0  0  0  0  0  0  0  0  0
    5.5356   -5.8609   -1.2203 C   0  0  2  0  0  0  0  0  0  0  0  0
    6.5746   -6.4591   -2.1794 C   0  0  0  0  0  0  0  0  0  0  0  0
    5.6204   -4.3474   -1.2401 C   0  0  0  0  0  0  0  0  0  0  0  0
    4.8267   -3.7302   -2.0045 O   0  0  0  0  0  0  0  0  0  0  0  0
    6.5455   -3.5639   -0.4492 N   0  0  0  0  0  0  0  0  0  0  0  0
    7.6670   -4.0874    0.3361 C   0  0  2  0  0  0  0  0  0  0  0  0
    7.3583   -3.9836    1.8298 C   0  0  0  0  0  0  0  0  0  0  0  0
    8.9378   -3.3418    0.0270 C   0  0  0  0  0  0  0  0  0  0  0  0
    9.9371   -3.9763   -0.4089 O   0  0  0  0  0  0  0  0  0  0  0  0
    9.0517   -1.9358    0.2917 N   0  0  0  0  0  0  0  0  0  0  0  0
   10.1783   -1.4084    1.0627 C   0  0  2  0  0  0  0  0  0  0  0  0
    9.6838   -0.3095    2.0133 C   0  0  0  0  0  0  0  0  0  0  0  0
   11.2966   -0.9635    0.1404 C   0  0  0  0  0  0  0  0  0  0  0  0
   11.7166   -1.7628   -0.7369 O   0  0  0  0  0  0  0  0  0  0  0  0
   11.9848    0.2771    0.3275 N   0  0  0  0  0  0  0  0  0  0  0  0
   11.4338    1.5444   -0.1569 C   0  0  2  0  0  0  0  0  0  0  0  0
   11.9786    1.8430   -1.5562 C   0  0  0  0  0  0  0  0  0  0  0  0
   11.8056    2.6537    0.8016 C   0  0  0  0  0  0  0  0  0  0  0  0
   13.0071    2.7707    1.1773 O   0  0  0  0  0  0  0  0  0  0  0  0
   10.8303    3.5675    1.3229 N   0  0  0  0  0  0  0  0  0  0  0  0
    9.7869    4.1763    0.4887 C   0  0  2  0  0  0  0  0  0  0  0  0
   10.3789    5.3595   -0.2831 C   0  0  0  0  0  0  0  0  0  0  0  0
    8.6254    4.6548    1.3270 C   0  0  0  0  0  0  0  0  0  0  0  0
    8.7260    4.7325    2.5827 O   0  0  0  0  0  0  0  0  0  0  0  0
    7.4230    5.0837    0.6861 N   0  0  0  0  0  0  0  0  0  0  0  0
    6.9464    6.4619    0.8205 C   0  0  2  0  0  0  0  0  0  0  0  0
    6.1666    6.6398    2.1308 C   0  0  0  0  0  0  0  0  0  0  0  0
    6.2246    6.8774   -0.4478 C   0  0  0  0  0  0  0  0  0  0  0  0
    6.9205    6.9906   -1.4988 O   0  0  0  0  0  0  0  0  0  0  0  0
    4.8372    7.2596   -0.5126 N   0  0  0  0  0  0  0  0  0  0  0  0
    3.7135    6.4623    0.0028 C   0  0  1  0  0  0  0  0  0  0  0  0
    2.4140    7.2025   -0.2279 C   0  0  0  0  0  0  0  0  0  0  0  0
    1.8822    7.3547   -1.5507 N   0  0  0  0  0  0  0  0  0  0  0  0
    1.8487    7.7708    0.7415 O   0  0  0  0  0  0  0  0  0  0  0  0
    3.6878    5.0467   -0.6244 C   0  0  0  0  0  0  0  0  0  0  0  0
    3.7003    3.7252    0.6447 S   0  0  0  0  0  0  0  0  0  0  0  0
    1.9767    3.9264    1.2301 C   0  0  0  0  0  0  0  0  0  0  0  0
   -6.6992    5.6140   -2.1403 H   0  0  0  0  0  0  0  0  0  0  0  0
   -8.3770    5.5180   -1.4657 H   0  0  0  0  0  0  0  0  0  0  0  0
   -7.2587    4.1138   -1.3341 H   0  0  0  0  0  0  0  0  0  0  0  0
   -6.2627    5.4298    2.0034 H   0  0  0  0  0  0  0  0  0  0  0  0
   -5.2374    3.4176    1.9593 H   0  0  0  0  0  0  0  0  0  0  0  0
   -4.8662    3.9178   -1.0521 H   0  0  0  0  0  0  0  0  0  0  0  0
   -3.9256    2.7700   -0.0375 H   0  0  0  0  0  0  0  0  0  0  0  0
   -2.9660    4.8062   -1.9550 H   0  0  0  0  0  0  0  0  0  0  0  0
   -1.9902    6.1275   -1.2515 H   0  0  0  0  0  0  0  0  0  0  0  0
   -0.3041    5.3040    0.6953 H   0  0  0  0  0  0  0  0  0  0  0  0
    1.9215    1.8467   -0.5601 H   0  0  0  0  0  0  0  0  0  0  0  0
   -1.7039    2.9191   -2.5863 H   0  0  0  0  0  0  0  0  0  0  0  0
    0.4358    1.4867   -3.6284 H   0  0  0  0  0  0  0  0  0  0  0  0
    1.2090    0.4979   -2.3535 H   0  0  0  0  0  0  0  0  0  0  0  0
    0.2637   -1.0908   -0.9534 H   0  0  0  0  0  0  0  0  0  0  0  0
   -1.0855   -0.1819   -0.1836 H   0  0  0  0  0  0  0  0  0  0  0  0
   -1.3888   -2.7298   -1.8633 H   0  0  0  0  0  0  0  0  0  0  0  0
   -3.3520   -0.8506   -0.8102 H   0  0  0  0  0  0  0  0  0  0  0  0
   -5.0841   -4.5245   -1.7318 H   0  0  0  0  0  0  0  0  0  0  0  0
   -2.0866   -4.8020   -1.9862 H   0  0  0  0  0  0  0  0  0  0  0  0
   -3.4168   -5.5683   -2.9012 H   0  0  0  0  0  0  0  0  0  0  0  0
   -3.0603   -3.8280   -3.1866 H   0  0  0  0  0  0  0  0  0  0  0  0
   -2.8908   -5.0910    0.2876 H   0  0  0  0  0  0  0  0  0  0  0  0
   -6.4598   -4.6141    0.0292 H   0  0  0  0  0  0  0  0  0  0  0  0
   -6.8368   -7.6729   -0.2906 H   0  0  0  0  0  0  0  0  0  0  0  0
   -6.3567   -6.5570   -1.6174 H   0  0  0  0  0  0  0  0  0  0  0  0
   -7.9765   -6.3886   -0.8534 H   0  0  0  0  0  0  0  0  0  0  0  0
   -6.6012   -6.4792    2.3623 H   0  0  0  0  0  0  0  0  0  0  0  0
   -8.5818   -4.2346    0.1385 H   0  0  0  0  0  0  0  0  0  0  0  0
  -11.0285   -4.5943    0.2026 H   0  0  0  0  0  0  0  0  0  0  0  0
  -10.9051   -5.2403    1.8775 H   0  0  0  0  0  0  0  0  0  0  0  0
  -10.1362   -6.1258    0.5048 H   0  0  0  0  0  0  0  0  0  0  0  0
   -9.2584   -2.8215    2.6747 H   0  0  0  0  0  0  0  0  0  0  0  0
   -9.1528   -2.4761   -0.9777 H   0  0  0  0  0  0  0  0  0  0  0  0
  -11.6516   -2.7334   -1.1661 H   0  0  0  0  0  0  0  0  0  0  0  0
  -10.9614   -1.6564   -2.4234 H   0  0  0  0  0  0  0  0  0  0  0  0
  -11.8353   -0.9466   -1.0055 H   0  0  0  0  0  0  0  0  0  0  0  0
   -8.3098   -0.2335   -0.0656 H   0  0  0  0  0  0  0  0  0  0  0  0
   -8.9298    2.5764   -0.8093 H   0  0  0  0  0  0  0  0  0  0  0  0
  -10.2715    3.0928   -2.7783 H   0  0  0  0  0  0  0  0  0  0  0  0
  -11.0450    3.8093   -1.3236 H   0  0  0  0  0  0  0  0  0  0  0  0
  -11.7293    2.3027   -2.0448 H   0  0  0  0  0  0  0  0  0  0  0  0
  -11.4181    1.2921    0.3971 H   0  0  0  0  0  0  0  0  0  0  0  0
   -8.7634    4.0705    1.0902 H   0  0  0  0  0  0  0  0  0  0  0  0
   -8.7573    2.9122    3.9542 H   0  0  0  0  0  0  0  0  0  0  0  0
   -9.4306    4.5162    3.4347 H   0  0  0  0  0  0  0  0  0  0  0  0
   -7.6689    4.2012    3.3550 H   0  0  0  0  0  0  0  0  0  0  0  0
   -7.8986    1.2505    1.8058 H   0  0  0  0  0  0  0  0  0  0  0  0
   -0.5265   -4.8413    0.9031 H   0  0  0  0  0  0  0  0  0  0  0  0
    0.8402   -3.2859   -1.3318 H   0  0  0  0  0  0  0  0  0  0  0  0
    2.0109   -5.4349   -1.8410 H   0  0  0  0  0  0  0  0  0  0  0  0
    0.2518   -5.4041   -2.1722 H   0  0  0  0  0  0  0  0  0  0  0  0
    0.8228   -6.2705   -0.7203 H   0  0  0  0  0  0  0  0  0  0  0  0
    4.0090   -3.9823    0.9359 H   0  0  0  0  0  0  0  0  0  0  0  0
    2.9206   -6.5362   -0.0612 H   0  0  0  0  0  0  0  0  0  0  0  0
    2.4805   -5.7459    2.8865 H   0  0  0  0  0  0  0  0  0  0  0  0
    2.3738   -7.4378    2.2397 H   0  0  0  0  0  0  0  0  0  0  0  0
    1.2122   -6.1990    1.6815 H   0  0  0  0  0  0  0  0  0  0  0  0
    6.5470   -6.9487    0.3653 H   0  0  0  0  0  0  0  0  0  0  0  0
    4.5476   -6.1617   -1.6197 H   0  0  0  0  0  0  0  0  0  0  0  0
    6.5752   -7.5666   -2.1008 H   0  0  0  0  0  0  0  0  0  0  0  0
    6.3192   -6.1913   -3.2264 H   0  0  0  0  0  0  0  0  0  0  0  0
    7.5965   -6.0855   -1.9747 H   0  0  0  0  0  0  0  0  0  0  0  0
    6.3543   -2.5419   -0.3938 H   0  0  0  0  0  0  0  0  0  0  0  0
    7.8510   -5.1491    0.0882 H   0  0  0  0  0  0  0  0  0  0  0  0
    6.3986   -4.4939    2.0603 H   0  0  0  0  0  0  0  0  0  0  0  0
    7.2766   -2.9229    2.1476 H   0  0  0  0  0  0  0  0  0  0  0  0
    8.1608   -4.4808    2.4136 H   0  0  0  0  0  0  0  0  0  0  0  0
    8.3099   -1.2900   -0.0638 H   0  0  0  0  0  0  0  0  0  0  0  0
   10.5939   -2.2205    1.7011 H   0  0  0  0  0  0  0  0  0  0  0  0
    9.1494    0.4918    1.4615 H   0  0  0  0  0  0  0  0  0  0  0  0
   10.5283    0.1338    2.5816 H   0  0  0  0  0  0  0  0  0  0  0  0
    8.9735   -0.7466    2.7488 H   0  0  0  0  0  0  0  0  0  0  0  0
   13.0228    0.2180    0.4490 H   0  0  0  0  0  0  0  0  0  0  0  0
   10.3335    1.4553   -0.2269 H   0  0  0  0  0  0  0  0  0  0  0  0
   11.6966    1.0239   -2.2552 H   0  0  0  0  0  0  0  0  0  0  0  0
   13.0844    1.9228   -1.5405 H   0  0  0  0  0  0  0  0  0  0  0  0
   11.5459    2.7906   -1.9388 H   0  0  0  0  0  0  0  0  0  0  0  0
   11.1150    4.0921    2.1809 H   0  0  0  0  0  0  0  0  0  0  0  0
    9.3967    3.4419   -0.2447 H   0  0  0  0  0  0  0  0  0  0  0  0
   11.2629    5.0301   -0.8687 H   0  0  0  0  0  0  0  0  0  0  0  0
   10.6986    6.1618    0.4208 H   0  0  0  0  0  0  0  0  0  0  0  0
    9.6278    5.7739   -0.9874 H   0  0  0  0  0  0  0  0  0  0  0  0
    6.8478    4.3681    0.1828 H   0  0  0  0  0  0  0  0  0  0  0  0
    7.8325    7.1311    0.8925 H   0  0  0  0  0  0  0  0  0  0  0  0
    6.8862    6.7158    2.9785 H   0  0  0  0  0  0  0  0  0  0  0  0
    5.5741    7.5742    2.1158 H   0  0  0  0  0  0  0  0  0  0  0  0
    5.5244    5.7582    2.3307 H   0  0  0  0  0  0  0  0  0  0  0  0
    4.6139    8.0312   -1.1851 H   0  0  0  0  0  0  0  0  0  0  0  0
    3.8167    6.3754    1.0955 H   0  0  0  0  0  0  0  0  0  0  0  0
    0.9162    7.7223   -1.6792 H   0  0  0  0  0  0  0  0  0  0  0  0
    2.3843    6.9752   -2.3882 H   0  0  0  0  0  0  0  0  0  0  0  0
    2.8131    4.8949   -1.2988 H   0  0  0  0  0  0  0  0  0  0  0  0
    4.5847    4.8872   -1.2611 H   0  0  0  0  0  0  0  0  0  0  0  0
    1.8527    4.9652    1.6069 H   0  0  0  0  0  0  0  0  0  0  0  0
    1.8202    3.2438    2.0915 H   0  0  0  0  0  0  0  0  0  0  0  0
  1  2  1  0
  2  3  2  0
  2  4  1  0
  4  5  1  0
  5  6  1  0
  6  7  1  0
  7  8  1  0
  8  9  1  0
  9 10  2  0
 10 11  1  0
 11 12  2  0
 12 13  1  0
 13 14  2  0
 13 15  1  0
 15 16  1  0
 16 17  1  0
 17 18  1  0
 18 19  1  0
 19 20  1  0
 20 21  2  0
 20 22  1  0
 22 23  1  0
 22 24  1  0
 24 25  1  0
 25 26  2  0
 25 27  1  0
 27 28  1  0
 27 29  1  0
 29 30  1  0
 30 31  2  0
 30 32  1  0
 32 33  1  0
 32 34  1  0
 34 35  1  0
 35 36  2  0
 35 37  1  0
 37 38  1  0
 37 39  1  0
 39 40  1  0
 40 41  2  0
 40 42  1  0
 42 43  1  0
 42 44  1  0
 44 45  1  0
 45 46  2  0
 45 47  1  0
 47 48  1  0
 47 49  1  0
 49 50  1  0
 50 51  2  0
 18 52  1  0
 52 53  2  0
 52 54  1  0
 54 55  1  0
 55 56  1  0
 55 57  1  0
 57 58  2  0
 57 59  1  0
 59 60  1  0
 60 61  1  0
 60 62  1  0
 62 63  2  0
 62 64  1  0
 64 65  1  0
 65 66  1  0
 65 67  1  0
 67 68  2  0
 67 69  1  0
 69 70  1  0
 70 71  1  0
 70 72  1  0
 72 73  2  0
 72 74  1  0
 74 75  1  0
 75 76  1  0
 75 77  1  0
 77 78  2  0
 77 79  1  0
 79 80  1  0
 80 81  1  0
 80 82  1  0
 82 83  2  0
 82 84  1  0
 84 85  1  0
 85 86  1  0
 85 87  1  0
 87 88  2  0
 87 89  1  0
 89 90  1  0
 90 91  1  0
 90 92  1  0
 92 93  2  0
 92 94  1  0
 94 95  1  0
 95 96  1  0
 96 97  1  0
 96 98  2  0
 95 99  1  0
 99100  1  0
100101  1  0
 50  5  1  0
 14  9  1  0
101 11  1  0
  1102  1  0
  1103  1  0
  1104  1  0
  4105  1  0
  5106  1  1
  6107  1  0
  6108  1  0
  8109  1  0
  8110  1  0
 10111  1  0
 12112  1  0
 14113  1  0
 15114  1  0
 15115  1  0
 17116  1  0
 17117  1  0
 18118  1  6
 19119  1  0
 22120  1  6
 23121  1  0
 23122  1  0
 23123  1  0
 24124  1  0
 27125  1  6
 28126  1  0
 28127  1  0
 28128  1  0
 29129  1  0
 32130  1  6
 33131  1  0
 33132  1  0
 33133  1  0
 34134  1  0
 37135  1  6
 38136  1  0
 38137  1  0
 38138  1  0
 39139  1  0
 42140  1  1
 43141  1  0
 43142  1  0
 43143  1  0
 44144  1  0
 47145  1  6
 48146  1  0
 48147  1  0
 48148  1  0
 49149  1  0
 54150  1  0
 55151  1  6
 56152  1  0
 56153  1  0
 56154  1  0
 59155  1  0
 60156  1  6
 61157  1  0
 61158  1  0
 61159  1  0
 64160  1  0
 65161  1  6
 66162  1  0
 66163  1  0
 66164  1  0
 69165  1  0
 70166  1  6
 71167  1  0
 71168  1  0
 71169  1  0
 74170  1  0
 75171  1  1
 76172  1  0
 76173  1  0
 76174  1  0
 79175  1  0
 80176  1  6
 81177  1  0
 81178  1  0
 81179  1  0
 84180  1  0
 85181  1  6
 86182  1  0
 86183  1  0
 86184  1  0
 89185  1  0
 90186  1  1
 91187  1  0
 91188  1  0
 91189  1  0
 94190  1  0
 95191  1  1
 97192  1  0
 97193  1  0
 99194  1  0
 99195  1  0
101196  1  0
101197  1  0
M  END
