
     RDKit          3D

207209  0  0  0  0  0  0  0  0999 V2000
    4.7662   -7.3885   -0.2447 C   0  0  0  0  0  0  0  0  0  0  0  0
    4.8615   -6.2746    0.7796 C   0  0  0  0  0  0  0  0  0  0  0  0
    3.8696   -5.5892    1.0445 O   0  0  0  0  0  0  0  0  0  0  0  0
    6.1165   -5.8673    1.2745 N   0  0  0  0  0  0  0  0  0  0  0  0
    6.2692   -4.7011    2.1453 C   0  0  2  0  0  0  0  0  0  0  0  0
    5.6164   -3.3628    1.5989 C   0  0  0  0  0  0  0  0  0  0  0  0
    5.9613   -2.9326   -0.1375 S   0  0  0  0  0  0  0  0  0  0  0  0
    4.5332   -3.5854   -1.1142 C   0  0  0  0  0  0  0  0  0  0  0  0
    3.1350   -3.2992   -0.6074 C   0  0  0  0  0  0  0  0  0  0  0  0
    2.1552   -4.2920   -0.7681 C   0  0  0  0  0  0  0  0  0  0  0  0
    0.8129   -4.0695   -0.5010 C   0  0  0  0  0  0  0  0  0  0  0  0
    0.4152   -2.7862   -0.0040 C   0  0  0  0  0  0  0  0  0  0  0  0
    1.3563   -1.7081    0.0208 C   0  0  0  0  0  0  0  0  0  0  0  0
    2.7161   -2.0098   -0.2385 C   0  0  0  0  0  0  0  0  0  0  0  0
    0.8042   -0.2872   -0.2102 C   0  0  0  0  0  0  0  0  0  0  0  0
    1.9489    0.8390   -1.1757 S   0  0  0  0  0  0  0  0  0  0  0  0
    2.3957    2.0633    0.1454 C   0  0  0  0  0  0  0  0  0  0  0  0
    1.8062    3.4944   -0.0530 C   0  0  2  0  0  0  0  0  0  0  0  0
    2.5644    4.2930   -1.0712 N   0  0  0  0  0  0  0  0  0  0  0  0
    3.9663    4.6430   -1.0763 C   0  0  0  0  0  0  0  0  0  0  0  0
    4.7144    4.0864   -1.9431 O   0  0  0  0  0  0  0  0  0  0  0  0
    4.5867    5.7564   -0.2053 C   0  0  1  0  0  0  0  0  0  0  0  0
    3.5845    6.4971    0.6585 C   0  0  0  0  0  0  0  0  0  0  0  0
    5.7074    5.2076    0.5932 N   0  0  0  0  0  0  0  0  0  0  0  0
    6.8720    4.7225   -0.0826 C   0  0  0  0  0  0  0  0  0  0  0  0
    7.2659    3.5333    0.1306 O   0  0  0  0  0  0  0  0  0  0  0  0
    7.9121    5.7410   -0.5743 C   0  0  1  0  0  0  0  0  0  0  0  0
    8.5577    6.4653    0.6065 C   0  0  0  0  0  0  0  0  0  0  0  0
    8.8937    5.1066   -1.5053 N   0  0  0  0  0  0  0  0  0  0  0  0
   10.3153    5.0873   -1.3517 C   0  0  0  0  0  0  0  0  0  0  0  0
   11.0228    5.9789   -1.9445 O   0  0  0  0  0  0  0  0  0  0  0  0
   11.0286    3.9459   -0.6635 C   0  0  1  0  0  0  0  0  0  0  0  0
   10.9754    4.0451    0.8573 C   0  0  0  0  0  0  0  0  0  0  0  0
   10.4795    2.6890   -1.1318 N   0  0  0  0  0  0  0  0  0  0  0  0
   11.1069    1.8400   -2.0999 C   0  0  0  0  0  0  0  0  0  0  0  0
   10.4559    1.5323   -3.1349 O   0  0  0  0  0  0  0  0  0  0  0  0
   12.4399    1.2013   -1.8906 C   0  0  1  0  0  0  0  0  0  0  0  0
   13.6305    2.1582   -2.2193 C   0  0  0  0  0  0  0  0  0  0  0  0
   12.5681    0.7344   -0.5158 N   0  0  0  0  0  0  0  0  0  0  0  0
   12.6798   -0.6393   -0.1433 C   0  0  0  0  0  0  0  0  0  0  0  0
   13.6172   -0.9734    0.6589 O   0  0  0  0  0  0  0  0  0  0  0  0
   11.6592   -1.6922   -0.5670 C   0  0  1  0  0  0  0  0  0  0  0  0
   11.8516   -2.1456   -2.0228 C   0  0  0  0  0  0  0  0  0  0  0  0
   11.7743   -2.8558    0.3208 N   0  0  0  0  0  0  0  0  0  0  0  0
   10.8094   -3.2364    1.2758 C   0  0  0  0  0  0  0  0  0  0  0  0
   11.2102   -3.6464    2.4043 O   0  0  0  0  0  0  0  0  0  0  0  0
    9.3491   -3.3917    0.9070 C   0  0  1  0  0  0  0  0  0  0  0  0
    9.2229   -4.6867    0.0843 C   0  0  0  0  0  0  0  0  0  0  0  0
    8.5286   -3.4184    2.1463 N   0  0  0  0  0  0  0  0  0  0  0  0
    7.7164   -4.5006    2.5873 C   0  0  0  0  0  0  0  0  0  0  0  0
    8.1755   -5.2943    3.4729 O   0  0  0  0  0  0  0  0  0  0  0  0
    1.7158    4.2079    1.2887 C   0  0  0  0  0  0  0  0  0  0  0  0
    2.6357    3.9995    2.1502 O   0  0  0  0  0  0  0  0  0  0  0  0
    0.6089    5.0626    1.6589 N   0  0  0  0  0  0  0  0  0  0  0  0
   -0.3460    5.7385    0.7336 C   0  0  2  0  0  0  0  0  0  0  0  0
   -0.1937    7.2539    0.8032 C   0  0  0  0  0  0  0  0  0  0  0  0
   -1.7926    5.4260    1.1715 C   0  0  0  0  0  0  0  0  0  0  0  0
   -1.9442    4.5626    2.0911 O   0  0  0  0  0  0  0  0  0  0  0  0
   -2.8019    6.4578    1.1423 N   0  0  0  0  0  0  0  0  0  0  0  0
   -3.8848    6.5737    0.1479 C   0  0  2  0  0  0  0  0  0  0  0  0
   -3.3189    7.0488   -1.1792 C   0  0  0  0  0  0  0  0  0  0  0  0
   -4.9136    7.5889    0.5698 C   0  0  0  0  0  0  0  0  0  0  0  0
   -4.5626    8.5469    1.3429 O   0  0  0  0  0  0  0  0  0  0  0  0
   -6.3059    7.4994    0.2298 N   0  0  0  0  0  0  0  0  0  0  0  0
   -6.9649    6.3355   -0.3536 C   0  0  2  0  0  0  0  0  0  0  0  0
   -8.2872    6.7662   -0.9887 C   0  0  0  0  0  0  0  0  0  0  0  0
   -7.1844    5.3276    0.7502 C   0  0  0  0  0  0  0  0  0  0  0  0
   -6.2530    4.5061    1.0184 O   0  0  0  0  0  0  0  0  0  0  0  0
   -8.2429    5.4747    1.7097 N   0  0  0  0  0  0  0  0  0  0  0  0
   -9.5344    4.8415    1.4989 C   0  0  2  0  0  0  0  0  0  0  0  0
  -10.5688    5.5227    2.4334 C   0  0  0  0  0  0  0  0  0  0  0  0
   -9.4330    3.3882    1.8511 C   0  0  0  0  0  0  0  0  0  0  0  0
   -9.1421    3.0491    3.0471 O   0  0  0  0  0  0  0  0  0  0  0  0
   -9.4724    2.3643    0.8524 N   0  0  0  0  0  0  0  0  0  0  0  0
  -10.6365    1.9993    0.0273 C   0  0  2  0  0  0  0  0  0  0  0  0
  -11.1313    3.1634   -0.8700 C   0  0  0  0  0  0  0  0  0  0  0  0
  -11.7444    1.4414    0.8890 C   0  0  0  0  0  0  0  0  0  0  0  0
  -12.1950    2.1971    1.8030 O   0  0  0  0  0  0  0  0  0  0  0  0
  -12.2233    0.1087    0.7764 N   0  0  0  0  0  0  0  0  0  0  0  0
  -11.9234   -0.8156   -0.3223 C   0  0  2  0  0  0  0  0  0  0  0  0
  -12.7704   -0.4446   -1.5531 C   0  0  0  0  0  0  0  0  0  0  0  0
  -12.2421   -2.2060    0.1228 C   0  0  0  0  0  0  0  0  0  0  0  0
  -13.4326   -2.5187    0.4362 O   0  0  0  0  0  0  0  0  0  0  0  0
  -11.2005   -3.1418    0.3998 N   0  0  0  0  0  0  0  0  0  0  0  0
  -10.3208   -3.7729   -0.6066 C   0  0  2  0  0  0  0  0  0  0  0  0
  -10.5752   -3.2883   -2.0298 C   0  0  0  0  0  0  0  0  0  0  0  0
  -10.5115   -5.2598   -0.5696 C   0  0  0  0  0  0  0  0  0  0  0  0
  -11.6295   -5.7336   -0.9438 O   0  0  0  0  0  0  0  0  0  0  0  0
   -9.5122   -6.2062   -0.1337 N   0  0  0  0  0  0  0  0  0  0  0  0
   -8.1350   -5.9237    0.2436 C   0  0  2  0  0  0  0  0  0  0  0  0
   -8.0596   -4.9336    1.4426 C   0  0  0  0  0  0  0  0  0  0  0  0
   -7.2886   -5.4669   -0.9322 C   0  0  0  0  0  0  0  0  0  0  0  0
   -7.8167   -4.7655   -1.8490 O   0  0  0  0  0  0  0  0  0  0  0  0
   -5.8606   -5.6369   -0.9537 N   0  0  0  0  0  0  0  0  0  0  0  0
   -5.1334   -6.8969   -0.7050 C   0  0  2  0  0  0  0  0  0  0  0  0
   -5.9842   -8.1318   -1.0670 C   0  0  0  0  0  0  0  0  0  0  0  0
   -4.6816   -6.9949    0.7259 C   0  0  0  0  0  0  0  0  0  0  0  0
   -5.4181   -6.5063    1.6404 O   0  0  0  0  0  0  0  0  0  0  0  0
   -3.6085   -7.8518    1.1602 N   0  0  0  0  0  0  0  0  0  0  0  0
   -2.2240   -7.7752    0.7260 C   0  0  1  0  0  0  0  0  0  0  0  0
   -2.0026   -8.3987   -0.6402 C   0  0  0  0  0  0  0  0  0  0  0  0
   -2.8274   -9.4800   -1.0710 N   0  0  0  0  0  0  0  0  0  0  0  0
   -1.0859   -7.9562   -1.4125 O   0  0  0  0  0  0  0  0  0  0  0  0
   -1.6637   -6.3178    0.9586 C   0  0  0  0  0  0  0  0  0  0  0  0
   -1.8866   -5.0897   -0.4110 S   0  0  0  0  0  0  0  0  0  0  0  0
   -0.1745   -5.0637   -1.1458 C   0  0  0  0  0  0  0  0  0  0  0  0
    5.7705   -7.9009   -0.3199 H   0  0  0  0  0  0  0  0  0  0  0  0
    4.5560   -6.9412   -1.2104 H   0  0  0  0  0  0  0  0  0  0  0  0
    3.9888   -8.0862    0.0696 H   0  0  0  0  0  0  0  0  0  0  0  0
    6.9609   -6.4192    1.0550 H   0  0  0  0  0  0  0  0  0  0  0  0
    5.7302   -4.9289    3.0753 H   0  0  0  0  0  0  0  0  0  0  0  0
    6.1035   -2.5113    2.1513 H   0  0  0  0  0  0  0  0  0  0  0  0
    4.5305   -3.2639    1.8938 H   0  0  0  0  0  0  0  0  0  0  0  0
    4.6673   -4.6674   -1.2908 H   0  0  0  0  0  0  0  0  0  0  0  0
    4.5697   -3.1254   -2.1253 H   0  0  0  0  0  0  0  0  0  0  0  0
    2.4339   -5.2488   -1.1559 H   0  0  0  0  0  0  0  0  0  0  0  0
   -0.6313   -2.6109    0.2237 H   0  0  0  0  0  0  0  0  0  0  0  0
    3.4274   -1.2150   -0.3052 H   0  0  0  0  0  0  0  0  0  0  0  0
   -0.1049   -0.3896   -0.8294 H   0  0  0  0  0  0  0  0  0  0  0  0
    0.4482    0.1304    0.7791 H   0  0  0  0  0  0  0  0  0  0  0  0
    3.4988    2.1213    0.2025 H   0  0  0  0  0  0  0  0  0  0  0  0
    2.0628    1.7087    1.1601 H   0  0  0  0  0  0  0  0  0  0  0  0
    0.7487    3.3198   -0.4156 H   0  0  0  0  0  0  0  0  0  0  0  0
    2.1033    4.2767   -2.0186 H   0  0  0  0  0  0  0  0  0  0  0  0
    4.9778    6.5015   -0.9060 H   0  0  0  0  0  0  0  0  0  0  0  0
    3.6048    6.2789    1.7936 H   0  0  0  0  0  0  0  0  0  0  0  0
    2.6177    6.3230    0.1215 H   0  0  0  0  0  0  0  0  0  0  0  0
    3.6980    7.5855    0.5273 H   0  0  0  0  0  0  0  0  0  0  0  0
    5.4246    4.7353    1.4905 H   0  0  0  0  0  0  0  0  0  0  0  0
    7.3291    6.4932   -1.1341 H   0  0  0  0  0  0  0  0  0  0  0  0
    8.0617    7.4509    0.7627 H   0  0  0  0  0  0  0  0  0  0  0  0
    9.6445    6.6437    0.4998 H   0  0  0  0  0  0  0  0  0  0  0  0
    8.4113    5.9091    1.5747 H   0  0  0  0  0  0  0  0  0  0  0  0
    8.5827    5.1757   -2.5189 H   0  0  0  0  0  0  0  0  0  0  0  0
   12.1008    3.9985   -0.9475 H   0  0  0  0  0  0  0  0  0  0  0  0
   11.3708    5.0286    1.1876 H   0  0  0  0  0  0  0  0  0  0  0  0
   11.6096    3.2458    1.3030 H   0  0  0  0  0  0  0  0  0  0  0  0
    9.9388    3.8997    1.2178 H   0  0  0  0  0  0  0  0  0  0  0  0
    9.4563    2.5150   -0.9535 H   0  0  0  0  0  0  0  0  0  0  0  0
   12.5510    0.3630   -2.5879 H   0  0  0  0  0  0  0  0  0  0  0  0
   14.5135    1.5517   -2.5258 H   0  0  0  0  0  0  0  0  0  0  0  0
   13.3648    2.8470   -3.0400 H   0  0  0  0  0  0  0  0  0  0  0  0
   13.9356    2.7349   -1.3204 H   0  0  0  0  0  0  0  0  0  0  0  0
   12.8294    1.4188    0.2191 H   0  0  0  0  0  0  0  0  0  0  0  0
   10.6521   -1.2294   -0.4603 H   0  0  0  0  0  0  0  0  0  0  0  0
   12.9240   -2.0484   -2.3241 H   0  0  0  0  0  0  0  0  0  0  0  0
   11.2108   -1.5259   -2.7041 H   0  0  0  0  0  0  0  0  0  0  0  0
   11.5330   -3.1958   -2.1426 H   0  0  0  0  0  0  0  0  0  0  0  0
   12.6982   -3.3407    0.3378 H   0  0  0  0  0  0  0  0  0  0  0  0
    9.0211   -2.5321    0.2928 H   0  0  0  0  0  0  0  0  0  0  0  0
    9.9710   -4.6798   -0.7277 H   0  0  0  0  0  0  0  0  0  0  0  0
    8.2107   -4.7283   -0.3830 H   0  0  0  0  0  0  0  0  0  0  0  0
    9.3862   -5.5823    0.7322 H   0  0  0  0  0  0  0  0  0  0  0  0
    8.7513   -2.6929    2.8612 H   0  0  0  0  0  0  0  0  0  0  0  0
    0.5848    5.3781    2.6601 H   0  0  0  0  0  0  0  0  0  0  0  0
   -0.1664    5.4162   -0.3191 H   0  0  0  0  0  0  0  0  0  0  0  0
   -0.7332    7.7018    1.7097 H   0  0  0  0  0  0  0  0  0  0  0  0
   -0.5441    7.6351   -0.1447 H   0  0  0  0  0  0  0  0  0  0  0  0
    0.8984    7.4772    0.8603 H   0  0  0  0  0  0  0  0  0  0  0  0
   -2.7955    7.1261    1.9682 H   0  0  0  0  0  0  0  0  0  0  0  0
   -4.3126    5.5611    0.0118 H   0  0  0  0  0  0  0  0  0  0  0  0
   -2.6790    6.2592   -1.6395 H   0  0  0  0  0  0  0  0  0  0  0  0
   -2.7296    7.9877   -1.0456 H   0  0  0  0  0  0  0  0  0  0  0  0
   -4.1553    7.2653   -1.8850 H   0  0  0  0  0  0  0  0  0  0  0  0
   -6.9241    8.2227    0.6468 H   0  0  0  0  0  0  0  0  0  0  0  0
   -6.3336    5.8870   -1.1592 H   0  0  0  0  0  0  0  0  0  0  0  0
   -8.0973    7.6353   -1.6634 H   0  0  0  0  0  0  0  0  0  0  0  0
   -9.0092    7.1221   -0.2067 H   0  0  0  0  0  0  0  0  0  0  0  0
   -8.7445    5.9379   -1.5823 H   0  0  0  0  0  0  0  0  0  0  0  0
   -7.9266    5.6353    2.6793 H   0  0  0  0  0  0  0  0  0  0  0  0
   -9.8742    4.9805    0.4684 H   0  0  0  0  0  0  0  0  0  0  0  0
  -10.1804    5.5361    3.4774 H   0  0  0  0  0  0  0  0  0  0  0  0
  -11.5456    5.0040    2.4003 H   0  0  0  0  0  0  0  0  0  0  0  0
  -10.6962    6.5747    2.0997 H   0  0  0  0  0  0  0  0  0  0  0  0
   -8.7892    1.5699    1.0062 H   0  0  0  0  0  0  0  0  0  0  0  0
  -10.2862    1.2276   -0.6936 H   0  0  0  0  0  0  0  0  0  0  0  0
  -10.2544    3.6402   -1.3701 H   0  0  0  0  0  0  0  0  0  0  0  0
  -11.7193    3.8931   -0.2802 H   0  0  0  0  0  0  0  0  0  0  0  0
  -11.7770    2.7509   -1.6560 H   0  0  0  0  0  0  0  0  0  0  0  0
  -12.9249   -0.1847    1.4937 H   0  0  0  0  0  0  0  0  0  0  0  0
  -10.8399   -0.7871   -0.5757 H   0  0  0  0  0  0  0  0  0  0  0  0
  -12.6685    0.6331   -1.7618 H   0  0  0  0  0  0  0  0  0  0  0  0
  -12.4025   -0.9968   -2.4491 H   0  0  0  0  0  0  0  0  0  0  0  0
  -13.8452   -0.6817   -1.3782 H   0  0  0  0  0  0  0  0  0  0  0  0
  -11.1523   -3.5099    1.3695 H   0  0  0  0  0  0  0  0  0  0  0  0
   -9.2674   -3.4871   -0.3390 H   0  0  0  0  0  0  0  0  0  0  0  0
  -10.0646   -3.9589   -2.7445 H   0  0  0  0  0  0  0  0  0  0  0  0
  -11.6600   -3.3062   -2.2682 H   0  0  0  0  0  0  0  0  0  0  0  0
  -10.1508   -2.2760   -2.1817 H   0  0  0  0  0  0  0  0  0  0  0  0
   -9.8578   -7.1512    0.1033 H   0  0  0  0  0  0  0  0  0  0  0  0
   -7.6972   -6.8746    0.6266 H   0  0  0  0  0  0  0  0  0  0  0  0
   -9.0747   -4.6042    1.7569 H   0  0  0  0  0  0  0  0  0  0  0  0
   -7.4525   -4.0201    1.1924 H   0  0  0  0  0  0  0  0  0  0  0  0
   -7.6059   -5.4318    2.3286 H   0  0  0  0  0  0  0  0  0  0  0  0
   -5.2854   -4.9016   -1.4295 H   0  0  0  0  0  0  0  0  0  0  0  0
   -4.2227   -6.8964   -1.3475 H   0  0  0  0  0  0  0  0  0  0  0  0
   -5.3635   -8.8795   -1.5881 H   0  0  0  0  0  0  0  0  0  0  0  0
   -6.8119   -7.8680   -1.7483 H   0  0  0  0  0  0  0  0  0  0  0  0
   -6.3901   -8.6135   -0.1298 H   0  0  0  0  0  0  0  0  0  0  0  0
   -3.7962   -8.4991    1.9722 H   0  0  0  0  0  0  0  0  0  0  0  0
   -1.6218   -8.4750    1.3471 H   0  0  0  0  0  0  0  0  0  0  0  0
   -2.5828  -10.0661   -1.8749 H   0  0  0  0  0  0  0  0  0  0  0  0
   -3.5787   -9.8488   -0.4385 H   0  0  0  0  0  0  0  0  0  0  0  0
   -0.5974   -6.3425    1.3188 H   0  0  0  0  0  0  0  0  0  0  0  0
   -2.2204   -5.9052    1.8469 H   0  0  0  0  0  0  0  0  0  0  0  0
   -0.2823   -4.7294   -2.2154 H   0  0  0  0  0  0  0  0  0  0  0  0
    0.2675   -6.0576   -1.0337 H   0  0  0  0  0  0  0  0  0  0  0  0
  1  2  1  0
  2  3  2  0
  2  4  1  0
  4  5  1  0
  5  6  1  0
  6  7  1  0
  7  8  1  0
  8  9  1  0
  9 10  2  0
 10 11  1  0
 11 12  2  0
 12 13  1  0
 13 14  2  0
 13 15  1  0
 15 16  1  0
 16 17  1  0
 17 18  1  0
 18 19  1  0
 19 20  1  0
 20 21  2  0
 20 22  1  0
 22 23  1  0
 22 24  1  0
 24 25  1  0
 25 26  2  0
 25 27  1  0
 27 28  1  0
 27 29  1  0
 29 30  1  0
 30 31  2  0
 30 32  1  0
 32 33  1  0
 32 34  1  0
 34 35  1  0
 35 36  2  0
 35 37  1  0
 37 38  1  0
 37 39  1  0
 39 40  1  0
 40 41  2  0
 40 42  1  0
 42 43  1  0
 42 44  1  0
 44 45  1  0
 45 46  2  0
 45 47  1  0
 47 48  1  0
 47 49  1  0
 49 50  1  0
 50 51  2  0
 18 52  1  0
 52 53  2  0
 52 54  1  0
 54 55  1  0
 55 56  1  0
 55 57  1  0
 57 58  2  0
 57 59  1  0
 59 60  1  0
 60 61  1  0
 60 62  1  0
 62 63  2  0
 62 64  1  0
 64 65  1  0
 65 66  1  0
 65 67  1  0
 67 68  2  0
 67 69  1  0
 69 70  1  0
 70 71  1  0
 70 72  1  0
 72 73  2  0
 72 74  1  0
 74 75  1  0
 75 76  1  0
 75 77  1  0
 77 78  2  0
 77 79  1  0
 79 80  1  0
 80 81  1  0
 80 82  1  0
 82 83  2  0
 82 84  1  0
 84 85  1  0
 85 86  1  0
 85 87  1  0
 87 88  2  0
 87 89  1  0
 89 90  1  0
 90 91  1  0
 90 92  1  0
 92 93  2  0
 92 94  1  0
 94 95  1  0
 95 96  1  0
 95 97  1  0
 97 98  2  0
 97 99  1  0
 99100  1  0
100101  1  0
101102  1  0
101103  2  0
100104  1  0
104105  1  0
105106  1  0
 50  5  1  0
 14  9  1  0
106 11  1  0
  1107  1  0
  1108  1  0
  1109  1  0
  4110  1  0
  5111  1  1
  6112  1  0
  6113  1  0
  8114  1  0
  8115  1  0
 10116  1  0
 12117  1  0
 14118  1  0
 15119  1  0
 15120  1  0
 17121  1  0
 17122  1  0
 18123  1  6
 19124  1  0
 22125  1  6
 23126  1  0
 23127  1  0
 23128  1  0
 24129  1  0
 27130  1  6
 28131  1  0
 28132  1  0
 28133  1  0
 29134  1  0
 32135  1  6
 33136  1  0
 33137  1  0
 33138  1  0
 34139  1  0
 37140  1  6
 38141  1  0
 38142  1  0
 38143  1  0
 39144  1  0
 42145  1  6
 43146  1  0
 43147  1  0
 43148  1  0
 44149  1  0
 47150  1  6
 48151  1  0
 48152  1  0
 48153  1  0
 49154  1  0
 54155  1  0
 55156  1  6
 56157  1  0
 56158  1  0
 56159  1  0
 59160  1  0
 60161  1  6
 61162  1  0
 61163  1  0
 61164  1  0
 64165  1  0
 65166  1  6
 66167  1  0
 66168  1  0
 66169  1  0
 69170  1  0
 70171  1  6
 71172  1  0
 71173  1  0
 71174  1  0
 74175  1  0
 75176  1  6
 76177  1  0
 76178  1  0
 76179  1  0
 79180  1  0
 80181  1  6
 81182  1  0
 81183  1  0
 81184  1  0
 84185  1  0
 85186  1  1
 86187  1  0
 86188  1  0
 86189  1  0
 89190  1  0
 90191  1  1
 91192  1  0
 91193  1  0
 91194  1  0
 94195  1  0
 95196  1  6
 96197  1  0
 96198  1  0
 96199  1  0
 99200  1  0
100201  1  1
102202  1  0
102203  1  0
104204  1  0
104205  1  0
106206  1  0
106207  1  0
M  END
