
     RDKit          3D

167169  0  0  0  0  0  0  0  0999 V2000
    2.9936   -8.3521   -0.1652 C   0  0  0  0  0  0  0  0  0  0  0  0
    1.8744   -7.7447    0.6248 C   0  0  0  0  0  0  0  0  0  0  0  0
    1.1754   -8.4852    1.3698 O   0  0  0  0  0  0  0  0  0  0  0  0
    1.5696   -6.3437    0.5591 N   0  0  0  0  0  0  0  0  0  0  0  0
    2.1209   -5.4284   -0.4476 C   0  0  1  0  0  0  0  0  0  0  0  0
    1.2859   -5.4071   -1.7572 C   0  0  0  0  0  0  0  0  0  0  0  0
   -0.3602   -6.2191   -1.6179 S   0  0  0  0  0  0  0  0  0  0  0  0
   -1.3191   -4.9490   -2.5199 C   0  0  0  0  0  0  0  0  0  0  0  0
   -1.6386   -3.8058   -1.5947 C   0  0  0  0  0  0  0  0  0  0  0  0
   -2.4906   -4.0072   -0.4972 C   0  0  0  0  0  0  0  0  0  0  0  0
   -2.7594   -2.9591    0.3936 C   0  0  0  0  0  0  0  0  0  0  0  0
   -2.1646   -1.7053    0.1846 C   0  0  0  0  0  0  0  0  0  0  0  0
   -1.3005   -1.4983   -0.9035 C   0  0  0  0  0  0  0  0  0  0  0  0
   -1.0650   -2.5430   -1.8043 C   0  0  0  0  0  0  0  0  0  0  0  0
   -0.6276   -0.1720   -1.1071 C   0  0  0  0  0  0  0  0  0  0  0  0
   -1.5392    0.8393   -2.3279 S   0  0  0  0  0  0  0  0  0  0  0  0
   -2.5999    1.7452   -1.1406 C   0  0  0  0  0  0  0  0  0  0  0  0
   -1.8403    2.9156   -0.4862 C   0  0  1  0  0  0  0  0  0  0  0  0
   -1.4773    3.9385   -1.4725 N   0  0  0  0  0  0  0  0  0  0  0  0
   -0.6601    5.0840   -1.1882 C   0  0  0  0  0  0  0  0  0  0  0  0
   -1.0116    6.2010   -1.6635 O   0  0  0  0  0  0  0  0  0  0  0  0
    0.6440    5.0039   -0.4167 C   0  0  1  0  0  0  0  0  0  0  0  0
    0.4150    4.8975    1.0938 C   0  0  0  0  0  0  0  0  0  0  0  0
    1.4914    3.9105   -0.9121 N   0  0  0  0  0  0  0  0  0  0  0  0
    2.8226    3.6300   -0.4388 C   0  0  0  0  0  0  0  0  0  0  0  0
    3.0723    2.4688   -0.0183 O   0  0  0  0  0  0  0  0  0  0  0  0
    3.9770    4.6166   -0.5013 C   0  0  1  0  0  0  0  0  0  0  0  0
    3.6700    5.9020   -1.2847 C   0  0  0  0  0  0  0  0  0  0  0  0
    4.4173    4.9506    0.8579 N   0  0  0  0  0  0  0  0  0  0  0  0
    5.6999    5.5111    1.1793 C   0  0  0  0  0  0  0  0  0  0  0  0
    5.7627    6.3488    2.1262 O   0  0  0  0  0  0  0  0  0  0  0  0
    6.9801    5.1060    0.4711 C   0  0  1  0  0  0  0  0  0  0  0  0
    7.2803    6.0452   -0.7021 C   0  0  0  0  0  0  0  0  0  0  0  0
    8.0973    5.1490    1.4198 N   0  0  0  0  0  0  0  0  0  0  0  0
    8.7657    3.9868    1.9291 C   0  0  0  0  0  0  0  0  0  0  0  0
    9.0195    3.9413    3.1636 O   0  0  0  0  0  0  0  0  0  0  0  0
    9.2323    2.8626    1.0220 C   0  0  1  0  0  0  0  0  0  0  0  0
   10.1771    3.4048   -0.0520 C   0  0  0  0  0  0  0  0  0  0  0  0
    9.9386    1.8336    1.7960 N   0  0  0  0  0  0  0  0  0  0  0  0
    9.7903    0.4226    1.5829 C   0  0  0  0  0  0  0  0  0  0  0  0
    9.8882   -0.3535    2.5742 O   0  0  0  0  0  0  0  0  0  0  0  0
    9.7135   -0.1664    0.1916 C   0  0  1  0  0  0  0  0  0  0  0  0
   11.1231   -0.5923   -0.2429 C   0  0  0  0  0  0  0  0  0  0  0  0
    8.8020   -1.3162    0.1604 N   0  0  0  0  0  0  0  0  0  0  0  0
    8.4370   -1.9803   -1.0610 C   0  0  0  0  0  0  0  0  0  0  0  0
    8.6771   -1.4386   -2.1778 O   0  0  0  0  0  0  0  0  0  0  0  0
    7.7876   -3.3402   -1.0210 C   0  0  1  0  0  0  0  0  0  0  0  0
    8.7676   -4.3385   -0.3862 C   0  0  0  0  0  0  0  0  0  0  0  0
    6.5357   -3.2757   -0.2594 N   0  0  0  0  0  0  0  0  0  0  0  0
    5.7121   -4.4270   -0.0201 C   0  0  0  0  0  0  0  0  0  0  0  0
    5.8593   -5.4723   -0.7109 O   0  0  0  0  0  0  0  0  0  0  0  0
    4.6390   -4.3905    1.0378 C   0  0  1  0  0  0  0  0  0  0  0  0
    5.1976   -3.8903    2.3733 C   0  0  0  0  0  0  0  0  0  0  0  0
    3.5301   -3.5402    0.5958 N   0  0  0  0  0  0  0  0  0  0  0  0
    2.2609   -4.0517    0.1600 C   0  0  0  0  0  0  0  0  0  0  0  0
    1.2396   -3.3240    0.2916 O   0  0  0  0  0  0  0  0  0  0  0  0
   -2.6507    3.4834    0.6628 C   0  0  0  0  0  0  0  0  0  0  0  0
   -2.2330    3.2782    1.8364 O   0  0  0  0  0  0  0  0  0  0  0  0
   -3.9014    4.1777    0.5126 N   0  0  0  0  0  0  0  0  0  0  0  0
   -4.4537    4.7539   -0.7145 C   0  0  2  0  0  0  0  0  0  0  0  0
   -4.3994    6.2835   -0.6126 C   0  0  0  0  0  0  0  0  0  0  0  0
   -5.8495    4.2181   -0.9198 C   0  0  0  0  0  0  0  0  0  0  0  0
   -5.9823    2.9982   -1.2073 O   0  0  0  0  0  0  0  0  0  0  0  0
   -7.0172    5.0386   -0.7528 N   0  0  0  0  0  0  0  0  0  0  0  0
   -8.1407    4.6394    0.0984 C   0  0  2  0  0  0  0  0  0  0  0  0
   -7.6860    4.5197    1.5613 C   0  0  0  0  0  0  0  0  0  0  0  0
   -8.8006    3.3846   -0.4179 C   0  0  0  0  0  0  0  0  0  0  0  0
   -9.5744    3.4732   -1.4131 O   0  0  0  0  0  0  0  0  0  0  0  0
   -8.5744    2.1095    0.2053 N   0  0  0  0  0  0  0  0  0  0  0  0
   -9.5535    1.0165    0.1905 C   0  0  2  0  0  0  0  0  0  0  0  0
  -10.9373    1.5100    0.6325 C   0  0  0  0  0  0  0  0  0  0  0  0
   -9.1019   -0.0652    1.1462 C   0  0  0  0  0  0  0  0  0  0  0  0
   -8.7922    0.2667    2.3219 O   0  0  0  0  0  0  0  0  0  0  0  0
   -9.0230   -1.4526    0.7893 N   0  0  0  0  0  0  0  0  0  0  0  0
   -9.8036   -2.1001   -0.2688 C   0  0  2  0  0  0  0  0  0  0  0  0
  -10.7601   -3.1337    0.3287 C   0  0  0  0  0  0  0  0  0  0  0  0
   -8.9055   -2.7267   -1.3149 C   0  0  0  0  0  0  0  0  0  0  0  0
   -9.3061   -2.7401   -2.5141 O   0  0  0  0  0  0  0  0  0  0  0  0
   -7.6039   -3.2565   -1.0174 N   0  0  0  0  0  0  0  0  0  0  0  0
   -7.3706   -4.2901   -0.0028 C   0  0  1  0  0  0  0  0  0  0  0  0
   -7.7558   -5.6353   -0.5519 C   0  0  0  0  0  0  0  0  0  0  0  0
   -8.7327   -6.4416    0.1135 N   0  0  0  0  0  0  0  0  0  0  0  0
   -7.2019   -6.0679   -1.6002 O   0  0  0  0  0  0  0  0  0  0  0  0
   -5.8950   -4.2990    0.4227 C   0  0  0  0  0  0  0  0  0  0  0  0
   -5.4037   -2.6832    1.1301 S   0  0  0  0  0  0  0  0  0  0  0  0
   -3.6910   -3.1737    1.5580 C   0  0  0  0  0  0  0  0  0  0  0  0
    3.0357   -9.4471    0.0089 H   0  0  0  0  0  0  0  0  0  0  0  0
    2.8266   -8.1724   -1.2478 H   0  0  0  0  0  0  0  0  0  0  0  0
    3.9543   -7.9038    0.1447 H   0  0  0  0  0  0  0  0  0  0  0  0
    0.7992   -5.9857    1.1720 H   0  0  0  0  0  0  0  0  0  0  0  0
    3.1392   -5.7628   -0.7333 H   0  0  0  0  0  0  0  0  0  0  0  0
    1.8433   -5.9445   -2.5512 H   0  0  0  0  0  0  0  0  0  0  0  0
    1.1883   -4.3645   -2.1270 H   0  0  0  0  0  0  0  0  0  0  0  0
   -2.2645   -5.3988   -2.8909 H   0  0  0  0  0  0  0  0  0  0  0  0
   -0.7423   -4.6059   -3.4117 H   0  0  0  0  0  0  0  0  0  0  0  0
   -2.9224   -4.9924   -0.3308 H   0  0  0  0  0  0  0  0  0  0  0  0
   -2.3663   -0.8971    0.8762 H   0  0  0  0  0  0  0  0  0  0  0  0
   -0.4140   -2.3834   -2.6541 H   0  0  0  0  0  0  0  0  0  0  0  0
    0.3928   -0.3348   -1.5087 H   0  0  0  0  0  0  0  0  0  0  0  0
   -0.5000    0.3444   -0.1372 H   0  0  0  0  0  0  0  0  0  0  0  0
   -2.9777    1.0420   -0.3686 H   0  0  0  0  0  0  0  0  0  0  0  0
   -3.4787    2.1216   -1.7044 H   0  0  0  0  0  0  0  0  0  0  0  0
   -0.9033    2.5036   -0.0683 H   0  0  0  0  0  0  0  0  0  0  0  0
   -1.8946    3.8887   -2.4321 H   0  0  0  0  0  0  0  0  0  0  0  0
    1.1488    5.9669   -0.5939 H   0  0  0  0  0  0  0  0  0  0  0  0
    1.3276    5.2099    1.6361 H   0  0  0  0  0  0  0  0  0  0  0  0
   -0.4170    5.5644    1.4124 H   0  0  0  0  0  0  0  0  0  0  0  0
    0.1942    3.8586    1.3945 H   0  0  0  0  0  0  0  0  0  0  0  0
    1.0358    3.1417   -1.4559 H   0  0  0  0  0  0  0  0  0  0  0  0
    4.7997    4.0940   -1.0307 H   0  0  0  0  0  0  0  0  0  0  0  0
    4.6042    6.3594   -1.6598 H   0  0  0  0  0  0  0  0  0  0  0  0
    3.0302    5.6938   -2.1683 H   0  0  0  0  0  0  0  0  0  0  0  0
    3.1977    6.6611   -0.6279 H   0  0  0  0  0  0  0  0  0  0  0  0
    3.6764    5.0418    1.5892 H   0  0  0  0  0  0  0  0  0  0  0  0
    6.8566    4.0722    0.0792 H   0  0  0  0  0  0  0  0  0  0  0  0
    8.3560    6.0182   -0.9604 H   0  0  0  0  0  0  0  0  0  0  0  0
    6.7275    5.7231   -1.6048 H   0  0  0  0  0  0  0  0  0  0  0  0
    7.0190    7.0932   -0.4510 H   0  0  0  0  0  0  0  0  0  0  0  0
    8.3067    6.0627    1.8858 H   0  0  0  0  0  0  0  0  0  0  0  0
    8.3441    2.4132    0.5355 H   0  0  0  0  0  0  0  0  0  0  0  0
   11.0682    3.8765    0.4132 H   0  0  0  0  0  0  0  0  0  0  0  0
    9.6656    4.1522   -0.6931 H   0  0  0  0  0  0  0  0  0  0  0  0
   10.5261    2.5836   -0.7131 H   0  0  0  0  0  0  0  0  0  0  0  0
   10.6106    2.1326    2.5366 H   0  0  0  0  0  0  0  0  0  0  0  0
    9.3385    0.5932   -0.5227 H   0  0  0  0  0  0  0  0  0  0  0  0
   11.1088   -1.0312   -1.2612 H   0  0  0  0  0  0  0  0  0  0  0  0
   11.7949    0.2901   -0.2586 H   0  0  0  0  0  0  0  0  0  0  0  0
   11.5365   -1.3452    0.4611 H   0  0  0  0  0  0  0  0  0  0  0  0
    8.3390   -1.6385    1.0426 H   0  0  0  0  0  0  0  0  0  0  0  0
    7.5546   -3.6614   -2.0568 H   0  0  0  0  0  0  0  0  0  0  0  0
    9.7643   -4.2652   -0.8733 H   0  0  0  0  0  0  0  0  0  0  0  0
    8.8892   -4.1384    0.7006 H   0  0  0  0  0  0  0  0  0  0  0  0
    8.4070   -5.3807   -0.5196 H   0  0  0  0  0  0  0  0  0  0  0  0
    6.1807   -2.3468    0.0675 H   0  0  0  0  0  0  0  0  0  0  0  0
    4.2826   -5.4282    1.2140 H   0  0  0  0  0  0  0  0  0  0  0  0
    5.5201   -2.8300    2.3027 H   0  0  0  0  0  0  0  0  0  0  0  0
    6.0701   -4.5096    2.6818 H   0  0  0  0  0  0  0  0  0  0  0  0
    4.4185   -3.9683    3.1598 H   0  0  0  0  0  0  0  0  0  0  0  0
    3.6461   -2.4999    0.6402 H   0  0  0  0  0  0  0  0  0  0  0  0
   -4.4259    4.3827    1.3938 H   0  0  0  0  0  0  0  0  0  0  0  0
   -3.8750    4.4605   -1.6048 H   0  0  0  0  0  0  0  0  0  0  0  0
   -4.7552    6.7503   -1.5553 H   0  0  0  0  0  0  0  0  0  0  0  0
   -3.3521    6.6077   -0.4380 H   0  0  0  0  0  0  0  0  0  0  0  0
   -5.0160    6.6419    0.2386 H   0  0  0  0  0  0  0  0  0  0  0  0
   -7.0092    6.0166   -1.1124 H   0  0  0  0  0  0  0  0  0  0  0  0
   -8.9053    5.4450    0.0739 H   0  0  0  0  0  0  0  0  0  0  0  0
   -6.8764    3.7654    1.6757 H   0  0  0  0  0  0  0  0  0  0  0  0
   -8.5428    4.2212    2.2027 H   0  0  0  0  0  0  0  0  0  0  0  0
   -7.3028    5.4967    1.9216 H   0  0  0  0  0  0  0  0  0  0  0  0
   -7.6004    1.9028    0.5428 H   0  0  0  0  0  0  0  0  0  0  0  0
   -9.6185    0.6375   -0.8477 H   0  0  0  0  0  0  0  0  0  0  0  0
  -10.8720    2.0115    1.6252 H   0  0  0  0  0  0  0  0  0  0  0  0
  -11.6445    0.6564    0.7040 H   0  0  0  0  0  0  0  0  0  0  0  0
  -11.3576    2.2298   -0.0979 H   0  0  0  0  0  0  0  0  0  0  0  0
   -8.5064   -2.0588    1.4592 H   0  0  0  0  0  0  0  0  0  0  0  0
  -10.4514   -1.3577   -0.7811 H   0  0  0  0  0  0  0  0  0  0  0  0
  -10.2201   -3.9238    0.8831 H   0  0  0  0  0  0  0  0  0  0  0  0
  -11.4622   -2.6295    1.0279 H   0  0  0  0  0  0  0  0  0  0  0  0
  -11.3614   -3.6052   -0.4784 H   0  0  0  0  0  0  0  0  0  0  0  0
   -6.8965   -3.1826   -1.7812 H   0  0  0  0  0  0  0  0  0  0  0  0
   -7.9706   -4.0883    0.9021 H   0  0  0  0  0  0  0  0  0  0  0  0
   -9.1789   -6.1209    0.9999 H   0  0  0  0  0  0  0  0  0  0  0  0
   -8.9193   -7.4145   -0.2124 H   0  0  0  0  0  0  0  0  0  0  0  0
   -5.7518   -5.0832    1.1935 H   0  0  0  0  0  0  0  0  0  0  0  0
   -5.2528   -4.5260   -0.4510 H   0  0  0  0  0  0  0  0  0  0  0  0
   -3.6521   -4.2312    1.9011 H   0  0  0  0  0  0  0  0  0  0  0  0
   -3.3564   -2.5538    2.4179 H   0  0  0  0  0  0  0  0  0  0  0  0
  1  2  1  0
  2  3  2  0
  2  4  1  0
  4  5  1  0
  5  6  1  0
  6  7  1  0
  7  8  1  0
  8  9  1  0
  9 10  1  0
 10 11  2  0
 11 12  1  0
 12 13  2  0
 13 14  1  0
 13 15  1  0
 15 16  1  0
 16 17  1  0
 17 18  1  0
 18 19  1  0
 19 20  1  0
 20 21  2  0
 20 22  1  0
 22 23  1  0
 22 24  1  0
 24 25  1  0
 25 26  2  0
 25 27  1  0
 27 28  1  0
 27 29  1  0
 29 30  1  0
 30 31  2  0
 30 32  1  0
 32 33  1  0
 32 34  1  0
 34 35  1  0
 35 36  2  0
 35 37  1  0
 37 38  1  0
 37 39  1  0
 39 40  1  0
 40 41  2  0
 40 42  1  0
 42 43  1  0
 42 44  1  0
 44 45  1  0
 45 46  2  0
 45 47  1  0
 47 48  1  0
 47 49  1  0
 49 50  1  0
 50 51  2  0
 50 52  1  0
 52 53  1  0
 52 54  1  0
 54 55  1  0
 55 56  2  0
 18 57  1  0
 57 58  2  0
 57 59  1  0
 59 60  1  0
 60 61  1  0
 60 62  1  0
 62 63  2  0
 62 64  1  0
 64 65  1  0
 65 66  1  0
 65 67  1  0
 67 68  2  0
 67 69  1  0
 69 70  1  0
 70 71  1  0
 70 72  1  0
 72 73  2  0
 72 74  1  0
 74 75  1  0
 75 76  1  0
 75 77  1  0
 77 78  2  0
 77 79  1  0
 79 80  1  0
 80 81  1  0
 81 82  1  0
 81 83  2  0
 80 84  1  0
 84 85  1  0
 85 86  1  0
 55  5  1  0
 14  9  2  0
 86 11  1  0
  1 87  1  0
  1 88  1  0
  1 89  1  0
  4 90  1  0
  5 91  1  6
  6 92  1  0
  6 93  1  0
  8 94  1  0
  8 95  1  0
 10 96  1  0
 12 97  1  0
 14 98  1  0
 15 99  1  0
 15100  1  0
 17101  1  0
 17102  1  0
 18103  1  1
 19104  1  0
 22105  1  1
 23106  1  0
 23107  1  0
 23108  1  0
 24109  1  0
 27110  1  6
 28111  1  0
 28112  1  0
 28113  1  0
 29114  1  0
 32115  1  6
 33116  1  0
 33117  1  0
 33118  1  0
 34119  1  0
 37120  1  6
 38121  1  0
 38122  1  0
 38123  1  0
 39124  1  0
 42125  1  6
 43126  1  0
 43127  1  0
 43128  1  0
 44129  1  0
 47130  1  6
 48131  1  0
 48132  1  0
 48133  1  0
 49134  1  0
 52135  1  1
 53136  1  0
 53137  1  0
 53138  1  0
 54139  1  0
 59140  1  0
 60141  1  6
 61142  1  0
 61143  1  0
 61144  1  0
 64145  1  0
 65146  1  1
 66147  1  0
 66148  1  0
 66149  1  0
 69150  1  0
 70151  1  6
 71152  1  0
 71153  1  0
 71154  1  0
 74155  1  0
 75156  1  6
 76157  1  0
 76158  1  0
 76159  1  0
 79160  1  0
 80161  1  1
 82162  1  0
 82163  1  0
 84164  1  0
 84165  1  0
 86166  1  0
 86167  1  0
M  END
