
     RDKit          3D

217219  0  0  0  0  0  0  0  0999 V2000
   -7.8367    6.2924   -1.7619 C   0  0  0  0  0  0  0  0  0  0  0  0
   -8.0242    4.8104   -1.6451 C   0  0  0  0  0  0  0  0  0  0  0  0
   -8.1072    4.1244   -2.7015 O   0  0  0  0  0  0  0  0  0  0  0  0
   -8.1225    4.1510   -0.3734 N   0  0  0  0  0  0  0  0  0  0  0  0
   -7.8224    4.8010    0.9061 C   0  0  2  0  0  0  0  0  0  0  0  0
   -6.3186    4.6781    1.2174 C   0  0  0  0  0  0  0  0  0  0  0  0
   -5.7899    2.9227    1.3178 S   0  0  0  0  0  0  0  0  0  0  0  0
   -4.1565    3.2498    2.0776 C   0  0  0  0  0  0  0  0  0  0  0  0
   -3.0887    3.2138    1.0281 C   0  0  0  0  0  0  0  0  0  0  0  0
   -2.4576    4.3949    0.6202 C   0  0  0  0  0  0  0  0  0  0  0  0
   -1.4280    4.3565   -0.3343 C   0  0  0  0  0  0  0  0  0  0  0  0
   -1.0832    3.1334   -0.9319 C   0  0  0  0  0  0  0  0  0  0  0  0
   -1.7472    1.9503   -0.5673 C   0  0  0  0  0  0  0  0  0  0  0  0
   -2.7505    1.9977    0.4127 C   0  0  0  0  0  0  0  0  0  0  0  0
   -1.5202    0.6917   -1.3553 C   0  0  0  0  0  0  0  0  0  0  0  0
   -1.2893   -0.7642   -0.2610 S   0  0  0  0  0  0  0  0  0  0  0  0
   -2.5196   -1.8164   -1.1176 C   0  0  0  0  0  0  0  0  0  0  0  0
   -2.6376   -3.2310   -0.5232 C   0  0  2  0  0  0  0  0  0  0  0  0
   -3.0570   -3.1592    0.8762 N   0  0  0  0  0  0  0  0  0  0  0  0
   -3.9939   -4.0961    1.4166 C   0  0  0  0  0  0  0  0  0  0  0  0
   -3.6119   -5.2636    1.7051 O   0  0  0  0  0  0  0  0  0  0  0  0
   -5.4515   -3.7399    1.5651 C   0  0  1  0  0  0  0  0  0  0  0  0
   -5.6559   -2.2334    1.7705 C   0  0  0  0  0  0  0  0  0  0  0  0
   -6.1753   -4.1773    0.3699 N   0  0  0  0  0  0  0  0  0  0  0  0
   -7.1222   -5.2587    0.3430 C   0  0  0  0  0  0  0  0  0  0  0  0
   -7.1794   -5.9736   -0.6932 O   0  0  0  0  0  0  0  0  0  0  0  0
   -8.0201   -5.5901    1.5204 C   0  0  1  0  0  0  0  0  0  0  0  0
   -8.7070   -4.3567    2.1317 C   0  0  0  0  0  0  0  0  0  0  0  0
   -9.0185   -6.6103    1.1639 N   0  0  0  0  0  0  0  0  0  0  0  0
  -10.1280   -6.4600    0.2491 C   0  0  0  0  0  0  0  0  0  0  0  0
  -10.9825   -7.3846    0.1905 O   0  0  0  0  0  0  0  0  0  0  0  0
  -10.3539   -5.2185   -0.5961 C   0  0  1  0  0  0  0  0  0  0  0  0
  -10.5959   -5.6191   -2.0592 C   0  0  0  0  0  0  0  0  0  0  0  0
  -11.5078   -4.4672   -0.0736 N   0  0  0  0  0  0  0  0  0  0  0  0
  -11.9968   -3.2284   -0.6219 C   0  0  0  0  0  0  0  0  0  0  0  0
  -13.2368   -3.0170   -0.5906 O   0  0  0  0  0  0  0  0  0  0  0  0
  -11.0798   -2.1703   -1.1997 C   0  0  1  0  0  0  0  0  0  0  0  0
  -11.5626   -1.7104   -2.5798 C   0  0  0  0  0  0  0  0  0  0  0  0
  -10.9403   -1.0247   -0.2859 N   0  0  0  0  0  0  0  0  0  0  0  0
  -11.9816   -0.0609   -0.0507 C   0  0  0  0  0  0  0  0  0  0  0  0
  -13.1736   -0.4503    0.0933 O   0  0  0  0  0  0  0  0  0  0  0  0
  -11.6746    1.4176   -0.0248 C   0  0  1  0  0  0  0  0  0  0  0  0
  -12.1688    2.0373   -1.3401 C   0  0  0  0  0  0  0  0  0  0  0  0
  -12.3329    2.0607    1.1278 N   0  0  0  0  0  0  0  0  0  0  0  0
  -12.1431    3.4256    1.5547 C   0  0  0  0  0  0  0  0  0  0  0  0
  -12.8994    3.8782    2.4587 O   0  0  0  0  0  0  0  0  0  0  0  0
  -11.0392    4.3151    1.0282 C   0  0  1  0  0  0  0  0  0  0  0  0
  -11.6121    5.6296    0.4943 C   0  0  0  0  0  0  0  0  0  0  0  0
  -10.0860    4.5973    2.1037 N   0  0  0  0  0  0  0  0  0  0  0  0
   -8.6988    4.2563    2.0246 C   0  0  0  0  0  0  0  0  0  0  0  0
   -8.1959    3.5695    2.9590 O   0  0  0  0  0  0  0  0  0  0  0  0
   -1.3722   -4.0358   -0.7008 C   0  0  0  0  0  0  0  0  0  0  0  0
   -0.9313   -4.2260   -1.8641 O   0  0  0  0  0  0  0  0  0  0  0  0
   -0.6997   -4.6415    0.4144 N   0  0  0  0  0  0  0  0  0  0  0  0
    0.1129   -5.8535    0.2475 C   0  0  2  0  0  0  0  0  0  0  0  0
   -0.8001   -7.0147   -0.1730 C   0  0  0  0  0  0  0  0  0  0  0  0
    0.8445   -6.2254    1.5259 C   0  0  0  0  0  0  0  0  0  0  0  0
    0.3621   -5.8686    2.6344 O   0  0  0  0  0  0  0  0  0  0  0  0
    2.0298   -7.0516    1.5346 N   0  0  0  0  0  0  0  0  0  0  0  0
    2.6202   -7.7138    0.3614 C   0  0  2  0  0  0  0  0  0  0  0  0
    2.4616   -9.2305    0.4884 C   0  0  0  0  0  0  0  0  0  0  0  0
    4.0738   -7.3387    0.2317 C   0  0  0  0  0  0  0  0  0  0  0  0
    4.9299   -7.8301    1.0135 O   0  0  0  0  0  0  0  0  0  0  0  0
    4.4886   -6.4155   -0.7841 N   0  0  0  0  0  0  0  0  0  0  0  0
    5.5064   -6.7608   -1.7875 C   0  0  2  0  0  0  0  0  0  0  0  0
    4.9554   -7.8602   -2.7104 C   0  0  0  0  0  0  0  0  0  0  0  0
    6.8139   -7.1623   -1.1413 C   0  0  0  0  0  0  0  0  0  0  0  0
    7.1750   -8.3759   -1.1709 O   0  0  0  0  0  0  0  0  0  0  0  0
    7.6585   -6.2236   -0.4463 N   0  0  0  0  0  0  0  0  0  0  0  0
    7.4297   -4.7759   -0.3559 C   0  0  2  0  0  0  0  0  0  0  0  0
    7.8014   -4.0441   -1.6575 C   0  0  0  0  0  0  0  0  0  0  0  0
    8.1805   -4.1908    0.8313 C   0  0  0  0  0  0  0  0  0  0  0  0
    7.5197   -3.5369    1.6818 O   0  0  0  0  0  0  0  0  0  0  0  0
    9.5890   -4.3839    1.0630 N   0  0  0  0  0  0  0  0  0  0  0  0
   10.5850   -4.7897    0.0690 C   0  0  2  0  0  0  0  0  0  0  0  0
   11.5966   -5.7275    0.7300 C   0  0  0  0  0  0  0  0  0  0  0  0
   11.3068   -3.5884   -0.4970 C   0  0  0  0  0  0  0  0  0  0  0  0
   12.1951   -3.7612   -1.3802 O   0  0  0  0  0  0  0  0  0  0  0  0
   11.0220   -2.2600   -0.0257 N   0  0  0  0  0  0  0  0  0  0  0  0
   12.0613   -1.2414    0.1364 C   0  0  2  0  0  0  0  0  0  0  0  0
   13.2141   -1.7822    0.9977 C   0  0  0  0  0  0  0  0  0  0  0  0
   11.4603   -0.0288    0.8142 C   0  0  0  0  0  0  0  0  0  0  0  0
   10.9835   -0.1715    1.9736 O   0  0  0  0  0  0  0  0  0  0  0  0
   11.3626    1.2622    0.1908 N   0  0  0  0  0  0  0  0  0  0  0  0
   12.1109    1.7012   -0.9997 C   0  0  2  0  0  0  0  0  0  0  0  0
   13.5859    1.8993   -0.6432 C   0  0  0  0  0  0  0  0  0  0  0  0
   11.5406    2.9872   -1.5733 C   0  0  0  0  0  0  0  0  0  0  0  0
   12.1431    3.5771   -2.5091 O   0  0  0  0  0  0  0  0  0  0  0  0
   10.3058    3.5260   -1.0946 N   0  0  0  0  0  0  0  0  0  0  0  0
   10.2226    4.8092   -0.3787 C   0  0  2  0  0  0  0  0  0  0  0  0
   11.4559    5.0281    0.5113 C   0  0  0  0  0  0  0  0  0  0  0  0
    8.9798    4.8113    0.4854 C   0  0  0  0  0  0  0  0  0  0  0  0
    8.8141    3.8578    1.2971 O   0  0  0  0  0  0  0  0  0  0  0  0
    7.9648    5.8256    0.4167 N   0  0  0  0  0  0  0  0  0  0  0  0
    8.0509    7.0735   -0.3638 C   0  0  2  0  0  0  0  0  0  0  0  0
    9.0920    8.0238    0.2492 C   0  0  0  0  0  0  0  0  0  0  0  0
    6.6840    7.7223   -0.4166 C   0  0  0  0  0  0  0  0  0  0  0  0
    5.9231    7.4631   -1.3840 O   0  0  0  0  0  0  0  0  0  0  0  0
    6.2166    8.5664    0.6471 N   0  0  0  0  0  0  0  0  0  0  0  0
    4.8175    8.5495    1.0739 C   0  0  2  0  0  0  0  0  0  0  0  0
    4.4918    9.7746    1.9336 C   0  0  0  0  0  0  0  0  0  0  0  0
    4.5396    7.2788    1.8433 C   0  0  0  0  0  0  0  0  0  0  0  0
    5.3039    6.9715    2.7980 O   0  0  0  0  0  0  0  0  0  0  0  0
    3.4453    6.4003    1.5254 N   0  0  0  0  0  0  0  0  0  0  0  0
    2.3175    6.7804    0.6758 C   0  0  1  0  0  0  0  0  0  0  0  0
    2.6488    6.5107   -0.7672 C   0  0  0  0  0  0  0  0  0  0  0  0
    2.5054    7.5354   -1.7505 N   0  0  0  0  0  0  0  0  0  0  0  0
    3.0523    5.3665   -1.1179 O   0  0  0  0  0  0  0  0  0  0  0  0
    1.0535    6.0206    1.1008 C   0  0  0  0  0  0  0  0  0  0  0  0
   -0.4443    6.8522    0.4527 S   0  0  0  0  0  0  0  0  0  0  0  0
   -0.8320    5.6375   -0.8646 C   0  0  0  0  0  0  0  0  0  0  0  0
   -8.6910    6.8231   -1.2941 H   0  0  0  0  0  0  0  0  0  0  0  0
   -7.7821    6.5992   -2.8325 H   0  0  0  0  0  0  0  0  0  0  0  0
   -6.8909    6.5938   -1.2720 H   0  0  0  0  0  0  0  0  0  0  0  0
   -8.2861    3.1151   -0.3758 H   0  0  0  0  0  0  0  0  0  0  0  0
   -8.0569    5.8885    0.8473 H   0  0  0  0  0  0  0  0  0  0  0  0
   -5.7338    5.1730    0.4174 H   0  0  0  0  0  0  0  0  0  0  0  0
   -6.1162    5.2074    2.1699 H   0  0  0  0  0  0  0  0  0  0  0  0
   -3.9581    2.4661    2.8373 H   0  0  0  0  0  0  0  0  0  0  0  0
   -4.1469    4.2187    2.6186 H   0  0  0  0  0  0  0  0  0  0  0  0
   -2.7888    5.3505    1.0295 H   0  0  0  0  0  0  0  0  0  0  0  0
   -0.3333    3.1093   -1.7128 H   0  0  0  0  0  0  0  0  0  0  0  0
   -3.2830    1.0908    0.6872 H   0  0  0  0  0  0  0  0  0  0  0  0
   -2.3879    0.5564   -2.0371 H   0  0  0  0  0  0  0  0  0  0  0  0
   -0.6161    0.7687   -2.0013 H   0  0  0  0  0  0  0  0  0  0  0  0
   -2.2248   -1.9034   -2.1885 H   0  0  0  0  0  0  0  0  0  0  0  0
   -3.5203   -1.3325   -1.0744 H   0  0  0  0  0  0  0  0  0  0  0  0
   -3.4266   -3.7598   -1.1041 H   0  0  0  0  0  0  0  0  0  0  0  0
   -2.5289   -2.5682    1.5572 H   0  0  0  0  0  0  0  0  0  0  0  0
   -5.8246   -4.2646    2.4691 H   0  0  0  0  0  0  0  0  0  0  0  0
   -6.7406   -2.0176    1.8875 H   0  0  0  0  0  0  0  0  0  0  0  0
   -5.2817   -1.6596    0.8994 H   0  0  0  0  0  0  0  0  0  0  0  0
   -5.1327   -1.8944    2.6893 H   0  0  0  0  0  0  0  0  0  0  0  0
   -5.8772   -3.7841   -0.5485 H   0  0  0  0  0  0  0  0  0  0  0  0
   -7.3695   -6.0307    2.3125 H   0  0  0  0  0  0  0  0  0  0  0  0
   -8.0526   -3.8842    2.8870 H   0  0  0  0  0  0  0  0  0  0  0  0
   -9.6466   -4.6513    2.6464 H   0  0  0  0  0  0  0  0  0  0  0  0
   -8.9486   -3.5930    1.3583 H   0  0  0  0  0  0  0  0  0  0  0  0
   -8.9333   -7.5395    1.6352 H   0  0  0  0  0  0  0  0  0  0  0  0
   -9.4562   -4.5797   -0.5778 H   0  0  0  0  0  0  0  0  0  0  0  0
   -9.7659   -6.2651   -2.4203 H   0  0  0  0  0  0  0  0  0  0  0  0
  -11.5539   -6.1790   -2.1576 H   0  0  0  0  0  0  0  0  0  0  0  0
  -10.6382   -4.7203   -2.7071 H   0  0  0  0  0  0  0  0  0  0  0  0
  -12.1327   -4.9403    0.6173 H   0  0  0  0  0  0  0  0  0  0  0  0
  -10.0712   -2.6027   -1.3543 H   0  0  0  0  0  0  0  0  0  0  0  0
  -11.5944   -2.5690   -3.2823 H   0  0  0  0  0  0  0  0  0  0  0  0
  -12.5782   -1.2586   -2.5263 H   0  0  0  0  0  0  0  0  0  0  0  0
  -10.8611   -0.9471   -2.9891 H   0  0  0  0  0  0  0  0  0  0  0  0
   -9.9835   -0.8130    0.0771 H   0  0  0  0  0  0  0  0  0  0  0  0
  -10.5749    1.5542    0.0575 H   0  0  0  0  0  0  0  0  0  0  0  0
  -11.6496    1.5599   -2.1951 H   0  0  0  0  0  0  0  0  0  0  0  0
  -13.2627    1.8970   -1.4580 H   0  0  0  0  0  0  0  0  0  0  0  0
  -11.9537    3.1211   -1.3875 H   0  0  0  0  0  0  0  0  0  0  0  0
  -13.0140    1.5023    1.6947 H   0  0  0  0  0  0  0  0  0  0  0  0
  -10.5148    3.8189    0.1936 H   0  0  0  0  0  0  0  0  0  0  0  0
  -12.2904    5.4238   -0.3617 H   0  0  0  0  0  0  0  0  0  0  0  0
  -10.7906    6.2923    0.1517 H   0  0  0  0  0  0  0  0  0  0  0  0
  -12.1818    6.1638    1.2857 H   0  0  0  0  0  0  0  0  0  0  0  0
  -10.4540    4.8894    3.0421 H   0  0  0  0  0  0  0  0  0  0  0  0
   -0.6398   -4.0817    1.3039 H   0  0  0  0  0  0  0  0  0  0  0  0
    0.8531   -5.6534   -0.5528 H   0  0  0  0  0  0  0  0  0  0  0  0
   -1.5781   -7.1923    0.6039 H   0  0  0  0  0  0  0  0  0  0  0  0
   -0.2212   -7.9524   -0.3120 H   0  0  0  0  0  0  0  0  0  0  0  0
   -1.3095   -6.7916   -1.1336 H   0  0  0  0  0  0  0  0  0  0  0  0
    2.4621   -7.2587    2.4646 H   0  0  0  0  0  0  0  0  0  0  0  0
    2.1086   -7.4149   -0.5690 H   0  0  0  0  0  0  0  0  0  0  0  0
    2.9075   -9.7354   -0.3945 H   0  0  0  0  0  0  0  0  0  0  0  0
    1.3905   -9.5043    0.5449 H   0  0  0  0  0  0  0  0  0  0  0  0
    2.9650   -9.6059    1.4033 H   0  0  0  0  0  0  0  0  0  0  0  0
    3.8283   -5.6473   -1.0413 H   0  0  0  0  0  0  0  0  0  0  0  0
    5.6832   -5.8818   -2.4324 H   0  0  0  0  0  0  0  0  0  0  0  0
    4.7434   -8.7847   -2.1341 H   0  0  0  0  0  0  0  0  0  0  0  0
    4.0133   -7.5146   -3.1864 H   0  0  0  0  0  0  0  0  0  0  0  0
    5.6964   -8.0914   -3.5104 H   0  0  0  0  0  0  0  0  0  0  0  0
    8.4341   -6.6423    0.1166 H   0  0  0  0  0  0  0  0  0  0  0  0
    6.3519   -4.5915   -0.1695 H   0  0  0  0  0  0  0  0  0  0  0  0
    6.9674   -4.0900   -2.3851 H   0  0  0  0  0  0  0  0  0  0  0  0
    7.9929   -2.9668   -1.4613 H   0  0  0  0  0  0  0  0  0  0  0  0
    8.6917   -4.4827   -2.1497 H   0  0  0  0  0  0  0  0  0  0  0  0
    9.9621   -3.9859    1.9613 H   0  0  0  0  0  0  0  0  0  0  0  0
   10.1251   -5.3562   -0.7593 H   0  0  0  0  0  0  0  0  0  0  0  0
   12.2771   -6.1606   -0.0346 H   0  0  0  0  0  0  0  0  0  0  0  0
   11.0660   -6.5621    1.2317 H   0  0  0  0  0  0  0  0  0  0  0  0
   12.1999   -5.1791    1.4851 H   0  0  0  0  0  0  0  0  0  0  0  0
   10.0230   -2.0222    0.1856 H   0  0  0  0  0  0  0  0  0  0  0  0
   12.4678   -0.9956   -0.8646 H   0  0  0  0  0  0  0  0  0  0  0  0
   13.9341   -0.9731    1.2344 H   0  0  0  0  0  0  0  0  0  0  0  0
   13.7652   -2.5803    0.4553 H   0  0  0  0  0  0  0  0  0  0  0  0
   12.8236   -2.2070    1.9512 H   0  0  0  0  0  0  0  0  0  0  0  0
   10.7757    1.9575    0.7075 H   0  0  0  0  0  0  0  0  0  0  0  0
   12.0270    0.9370   -1.8053 H   0  0  0  0  0  0  0  0  0  0  0  0
   13.6968    2.7532    0.0631 H   0  0  0  0  0  0  0  0  0  0  0  0
   14.1868    2.1109   -1.5530 H   0  0  0  0  0  0  0  0  0  0  0  0
   13.9937    0.9941   -0.1622 H   0  0  0  0  0  0  0  0  0  0  0  0
    9.4229    3.0978   -1.4636 H   0  0  0  0  0  0  0  0  0  0  0  0
   10.1849    5.6196   -1.1309 H   0  0  0  0  0  0  0  0  0  0  0  0
   11.3165    5.9204    1.1625 H   0  0  0  0  0  0  0  0  0  0  0  0
   11.6382    4.1497    1.1685 H   0  0  0  0  0  0  0  0  0  0  0  0
   12.3602    5.2017   -0.1146 H   0  0  0  0  0  0  0  0  0  0  0  0
    7.0853    5.6369    0.9479 H   0  0  0  0  0  0  0  0  0  0  0  0
    8.3507    6.8406   -1.4119 H   0  0  0  0  0  0  0  0  0  0  0  0
    8.9150    8.1605    1.3375 H   0  0  0  0  0  0  0  0  0  0  0  0
   10.1143    7.6299    0.1126 H   0  0  0  0  0  0  0  0  0  0  0  0
    9.0542    9.0122   -0.2573 H   0  0  0  0  0  0  0  0  0  0  0  0
    6.8546    9.3170    1.0015 H   0  0  0  0  0  0  0  0  0  0  0  0
    4.1789    8.6130    0.1703 H   0  0  0  0  0  0  0  0  0  0  0  0
    4.7083   10.7065    1.3661 H   0  0  0  0  0  0  0  0  0  0  0  0
    5.0952    9.7787    2.8665 H   0  0  0  0  0  0  0  0  0  0  0  0
    3.4159    9.7823    2.1953 H   0  0  0  0  0  0  0  0  0  0  0  0
    3.4261    5.4618    1.9902 H   0  0  0  0  0  0  0  0  0  0  0  0
    2.1113    7.8644    0.8244 H   0  0  0  0  0  0  0  0  0  0  0  0
    2.1890    8.4886   -1.4832 H   0  0  0  0  0  0  0  0  0  0  0  0
    2.7625    7.3457   -2.7464 H   0  0  0  0  0  0  0  0  0  0  0  0
    0.9797    6.0502    2.2074 H   0  0  0  0  0  0  0  0  0  0  0  0
    1.1099    4.9487    0.8034 H   0  0  0  0  0  0  0  0  0  0  0  0
   -1.5719    6.0950   -1.5572 H   0  0  0  0  0  0  0  0  0  0  0  0
    0.0910    5.4320   -1.4542 H   0  0  0  0  0  0  0  0  0  0  0  0
  1  2  1  0
  2  3  2  0
  2  4  1  0
  4  5  1  0
  5  6  1  0
  6  7  1  0
  7  8  1  0
  8  9  1  0
  9 10  2  0
 10 11  1  0
 11 12  2  0
 12 13  1  0
 13 14  2  0
 13 15  1  0
 15 16  1  0
 16 17  1  0
 17 18  1  0
 18 19  1  0
 19 20  1  0
 20 21  2  0
 20 22  1  0
 22 23  1  0
 22 24  1  0
 24 25  1  0
 25 26  2  0
 25 27  1  0
 27 28  1  0
 27 29  1  0
 29 30  1  0
 30 31  2  0
 30 32  1  0
 32 33  1  0
 32 34  1  0
 34 35  1  0
 35 36  2  0
 35 37  1  0
 37 38  1  0
 37 39  1  0
 39 40  1  0
 40 41  2  0
 40 42  1  0
 42 43  1  0
 42 44  1  0
 44 45  1  0
 45 46  2  0
 45 47  1  0
 47 48  1  0
 47 49  1  0
 49 50  1  0
 50 51  2  0
 18 52  1  0
 52 53  2  0
 52 54  1  0
 54 55  1  0
 55 56  1  0
 55 57  1  0
 57 58  2  0
 57 59  1  0
 59 60  1  0
 60 61  1  0
 60 62  1  0
 62 63  2  0
 62 64  1  0
 64 65  1  0
 65 66  1  0
 65 67  1  0
 67 68  2  0
 67 69  1  0
 69 70  1  0
 70 71  1  0
 70 72  1  0
 72 73  2  0
 72 74  1  0
 74 75  1  0
 75 76  1  0
 75 77  1  0
 77 78  2  0
 77 79  1  0
 79 80  1  0
 80 81  1  0
 80 82  1  0
 82 83  2  0
 82 84  1  0
 84 85  1  0
 85 86  1  0
 85 87  1  0
 87 88  2  0
 87 89  1  0
 89 90  1  0
 90 91  1  0
 90 92  1  0
 92 93  2  0
 92 94  1  0
 94 95  1  0
 95 96  1  0
 95 97  1  0
 97 98  2  0
 97 99  1  0
 99100  1  0
100101  1  0
100102  1  0
102103  2  0
102104  1  0
104105  1  0
105106  1  0
106107  1  0
106108  2  0
105109  1  0
109110  1  0
110111  1  0
 50  5  1  0
 14  9  1  0
111 11  1  0
  1112  1  0
  1113  1  0
  1114  1  0
  4115  1  0
  5116  1  6
  6117  1  0
  6118  1  0
  8119  1  0
  8120  1  0
 10121  1  0
 12122  1  0
 14123  1  0
 15124  1  0
 15125  1  0
 17126  1  0
 17127  1  0
 18128  1  6
 19129  1  0
 22130  1  1
 23131  1  0
 23132  1  0
 23133  1  0
 24134  1  0
 27135  1  1
 28136  1  0
 28137  1  0
 28138  1  0
 29139  1  0
 32140  1  6
 33141  1  0
 33142  1  0
 33143  1  0
 34144  1  0
 37145  1  6
 38146  1  0
 38147  1  0
 38148  1  0
 39149  1  0
 42150  1  1
 43151  1  0
 43152  1  0
 43153  1  0
 44154  1  0
 47155  1  6
 48156  1  0
 48157  1  0
 48158  1  0
 49159  1  0
 54160  1  0
 55161  1  6
 56162  1  0
 56163  1  0
 56164  1  0
 59165  1  0
 60166  1  6
 61167  1  0
 61168  1  0
 61169  1  0
 64170  1  0
 65171  1  6
 66172  1  0
 66173  1  0
 66174  1  0
 69175  1  0
 70176  1  1
 71177  1  0
 71178  1  0
 71179  1  0
 74180  1  0
 75181  1  6
 76182  1  0
 76183  1  0
 76184  1  0
 79185  1  0
 80186  1  6
 81187  1  0
 81188  1  0
 81189  1  0
 84190  1  0
 85191  1  6
 86192  1  0
 86193  1  0
 86194  1  0
 89195  1  0
 90196  1  6
 91197  1  0
 91198  1  0
 91199  1  0
 94200  1  0
 95201  1  6
 96202  1  0
 96203  1  0
 96204  1  0
 99205  1  0
100206  1  6
101207  1  0
101208  1  0
101209  1  0
104210  1  0
105211  1  6
107212  1  0
107213  1  0
109214  1  0
109215  1  0
111216  1  0
111217  1  0
M  END
