
     RDKit          3D

217219  0  0  0  0  0  0  0  0999 V2000
   -7.0477   -7.2072   -0.1856 C   0  0  0  0  0  0  0  0  0  0  0  0
   -7.6695   -6.6317    1.0518 C   0  0  0  0  0  0  0  0  0  0  0  0
   -7.8332   -7.4044    2.0339 O   0  0  0  0  0  0  0  0  0  0  0  0
   -8.0778   -5.2570    1.1862 N   0  0  0  0  0  0  0  0  0  0  0  0
   -8.1127   -4.2252    0.1442 C   0  0  1  0  0  0  0  0  0  0  0  0
   -6.6964   -3.7486   -0.2394 C   0  0  0  0  0  0  0  0  0  0  0  0
   -5.9826   -2.7295    1.1055 S   0  0  0  0  0  0  0  0  0  0  0  0
   -4.8910   -1.6890    0.0582 C   0  0  0  0  0  0  0  0  0  0  0  0
   -3.4434   -2.0010    0.2996 C   0  0  0  0  0  0  0  0  0  0  0  0
   -2.9386   -3.2724   -0.0077 C   0  0  0  0  0  0  0  0  0  0  0  0
   -1.5618   -3.5289    0.0749 C   0  0  0  0  0  0  0  0  0  0  0  0
   -0.6917   -2.4960    0.4530 C   0  0  0  0  0  0  0  0  0  0  0  0
   -1.1838   -1.2212    0.7959 C   0  0  0  0  0  0  0  0  0  0  0  0
   -2.5717   -0.9926    0.7426 C   0  0  0  0  0  0  0  0  0  0  0  0
   -0.1767   -0.1604    1.1878 C   0  0  0  0  0  0  0  0  0  0  0  0
   -0.8677    1.4570    1.7201 S   0  0  0  0  0  0  0  0  0  0  0  0
   -1.2039    2.1353    0.0507 C   0  0  0  0  0  0  0  0  0  0  0  0
   -1.2629    3.6753    0.0914 C   0  0  2  0  0  0  0  0  0  0  0  0
   -1.7732    4.1750   -1.1876 N   0  0  0  0  0  0  0  0  0  0  0  0
   -2.9891    4.9275   -1.3651 C   0  0  0  0  0  0  0  0  0  0  0  0
   -3.1591    5.5484   -2.4456 O   0  0  0  0  0  0  0  0  0  0  0  0
   -4.0460    5.0358   -0.2896 C   0  0  1  0  0  0  0  0  0  0  0  0
   -3.7718    6.2467    0.6076 C   0  0  0  0  0  0  0  0  0  0  0  0
   -5.3771    5.1606   -0.8876 N   0  0  0  0  0  0  0  0  0  0  0  0
   -6.2789    4.0461   -0.9346 C   0  0  0  0  0  0  0  0  0  0  0  0
   -5.8438    2.9122   -1.2705 O   0  0  0  0  0  0  0  0  0  0  0  0
   -7.7040    4.1658   -0.4485 C   0  0  1  0  0  0  0  0  0  0  0  0
   -7.7275    4.0614    1.0741 C   0  0  0  0  0  0  0  0  0  0  0  0
   -8.3218    5.4243   -0.8770 N   0  0  0  0  0  0  0  0  0  0  0  0
   -9.6625    5.5271   -1.3824 C   0  0  0  0  0  0  0  0  0  0  0  0
   -9.9277    6.4369   -2.2176 O   0  0  0  0  0  0  0  0  0  0  0  0
  -10.7950    4.6947   -0.8201 C   0  0  1  0  0  0  0  0  0  0  0  0
  -11.6360    5.5531    0.1222 C   0  0  0  0  0  0  0  0  0  0  0  0
  -11.6346    4.1733   -1.9063 N   0  0  0  0  0  0  0  0  0  0  0  0
  -12.1113    2.8160   -2.0217 C   0  0  0  0  0  0  0  0  0  0  0  0
  -12.4444    2.3977   -3.1629 O   0  0  0  0  0  0  0  0  0  0  0  0
  -12.3595    1.9299   -0.8220 C   0  0  1  0  0  0  0  0  0  0  0  0
  -13.7654    2.1734   -0.2698 C   0  0  0  0  0  0  0  0  0  0  0  0
  -12.2260    0.5220   -1.1869 N   0  0  0  0  0  0  0  0  0  0  0  0
  -11.0556   -0.2282   -0.8511 C   0  0  0  0  0  0  0  0  0  0  0  0
   -9.9224    0.1953   -1.2157 O   0  0  0  0  0  0  0  0  0  0  0  0
  -11.1320   -1.4732    0.0040 C   0  0  1  0  0  0  0  0  0  0  0  0
  -11.1291   -1.0760    1.4780 C   0  0  0  0  0  0  0  0  0  0  0  0
  -12.3285   -2.2677   -0.2938 N   0  0  0  0  0  0  0  0  0  0  0  0
  -12.3595   -3.7066   -0.3247 C   0  0  0  0  0  0  0  0  0  0  0  0
  -13.3742   -4.2714   -0.8160 O   0  0  0  0  0  0  0  0  0  0  0  0
  -11.2218   -4.5631    0.1921 C   0  0  1  0  0  0  0  0  0  0  0  0
  -11.7418   -5.8242    0.8891 C   0  0  0  0  0  0  0  0  0  0  0  0
  -10.3562   -4.9526   -0.9302 N   0  0  0  0  0  0  0  0  0  0  0  0
   -8.9548   -4.6582   -1.0488 C   0  0  0  0  0  0  0  0  0  0  0  0
   -8.4211   -4.7583   -2.1889 O   0  0  0  0  0  0  0  0  0  0  0  0
    0.0819    4.3031    0.3871 C   0  0  0  0  0  0  0  0  0  0  0  0
    1.1427    3.6297    0.3008 O   0  0  0  0  0  0  0  0  0  0  0  0
    0.1591    5.6741    0.7866 N   0  0  0  0  0  0  0  0  0  0  0  0
    0.1076    6.7626   -0.1940 C   0  0  2  0  0  0  0  0  0  0  0  0
    1.2039    6.6092   -1.2575 C   0  0  0  0  0  0  0  0  0  0  0  0
    0.1804    8.1201    0.4849 C   0  0  0  0  0  0  0  0  0  0  0  0
   -0.8837    8.7860    0.5968 O   0  0  0  0  0  0  0  0  0  0  0  0
    1.4113    8.7129    0.9331 N   0  0  0  0  0  0  0  0  0  0  0  0
    2.4955    7.9781    1.5997 C   0  0  2  0  0  0  0  0  0  0  0  0
    2.5795    8.4101    3.0648 C   0  0  0  0  0  0  0  0  0  0  0  0
    3.8108    8.2215    0.9025 C   0  0  0  0  0  0  0  0  0  0  0  0
    3.9413    9.1931    0.1080 O   0  0  0  0  0  0  0  0  0  0  0  0
    4.9136    7.3311    1.1387 N   0  0  0  0  0  0  0  0  0  0  0  0
    6.0480    7.2198    0.2113 C   0  0  2  0  0  0  0  0  0  0  0  0
    5.5584    6.6905   -1.1440 C   0  0  0  0  0  0  0  0  0  0  0  0
    7.0992    6.2941    0.7806 C   0  0  0  0  0  0  0  0  0  0  0  0
    6.7802    5.1285    1.1271 O   0  0  0  0  0  0  0  0  0  0  0  0
    8.4473    6.7356    0.9682 N   0  0  0  0  0  0  0  0  0  0  0  0
    9.4816    6.6183   -0.0706 C   0  0  2  0  0  0  0  0  0  0  0  0
    9.4043    7.8039   -1.0392 C   0  0  0  0  0  0  0  0  0  0  0  0
    9.3810    5.2904   -0.7995 C   0  0  0  0  0  0  0  0  0  0  0  0
    8.5091    5.1596   -1.7030 O   0  0  0  0  0  0  0  0  0  0  0  0
   10.1929    4.1514   -0.4725 N   0  0  0  0  0  0  0  0  0  0  0  0
   11.4380    4.2029    0.3109 C   0  0  2  0  0  0  0  0  0  0  0  0
   12.5476    4.7986   -0.5592 C   0  0  0  0  0  0  0  0  0  0  0  0
   11.8480    2.8306    0.8031 C   0  0  0  0  0  0  0  0  0  0  0  0
   12.9700    2.6700    1.3509 O   0  0  0  0  0  0  0  0  0  0  0  0
   10.9609    1.7150    0.6811 N   0  0  0  0  0  0  0  0  0  0  0  0
   11.3435    0.4522    0.0297 C   0  0  2  0  0  0  0  0  0  0  0  0
   12.2884    0.7001   -1.1578 C   0  0  0  0  0  0  0  0  0  0  0  0
   10.1137   -0.2843   -0.4619 C   0  0  0  0  0  0  0  0  0  0  0  0
    9.0067    0.3231   -0.5104 O   0  0  0  0  0  0  0  0  0  0  0  0
   10.1756   -1.6373   -0.9471 N   0  0  0  0  0  0  0  0  0  0  0  0
   11.1829   -2.6193   -0.5293 C   0  0  2  0  0  0  0  0  0  0  0  0
   11.5301   -3.5404   -1.6987 C   0  0  0  0  0  0  0  0  0  0  0  0
   10.6708   -3.3845    0.6639 C   0  0  0  0  0  0  0  0  0  0  0  0
   11.3376   -3.3892    1.7325 O   0  0  0  0  0  0  0  0  0  0  0  0
    9.3829   -4.0077    0.6415 N   0  0  0  0  0  0  0  0  0  0  0  0
    9.1656   -5.3235    0.0439 C   0  0  2  0  0  0  0  0  0  0  0  0
    8.0414   -5.2265   -0.9940 C   0  0  0  0  0  0  0  0  0  0  0  0
    8.8789   -6.3321    1.1242 C   0  0  0  0  0  0  0  0  0  0  0  0
    9.6693   -6.4271    2.1053 O   0  0  0  0  0  0  0  0  0  0  0  0
    7.7251   -7.1764    1.0751 N   0  0  0  0  0  0  0  0  0  0  0  0
    7.6981   -8.5155    0.4731 C   0  0  2  0  0  0  0  0  0  0  0  0
    9.0902   -8.9546   -0.0258 C   0  0  0  0  0  0  0  0  0  0  0  0
    6.6653   -8.5518   -0.6358 C   0  0  0  0  0  0  0  0  0  0  0  0
    7.0328   -8.7716   -1.8249 O   0  0  0  0  0  0  0  0  0  0  0  0
    5.2735   -8.2918   -0.3938 N   0  0  0  0  0  0  0  0  0  0  0  0
    4.5855   -8.5539    0.8729 C   0  0  2  0  0  0  0  0  0  0  0  0
    3.8354   -9.8868    0.7798 C   0  0  0  0  0  0  0  0  0  0  0  0
    3.7137   -7.3698    1.2359 C   0  0  0  0  0  0  0  0  0  0  0  0
    4.2802   -6.2695    1.4830 O   0  0  0  0  0  0  0  0  0  0  0  0
    2.2870   -7.4454    1.3696 N   0  0  0  0  0  0  0  0  0  0  0  0
    1.3891   -7.7036    0.2351 C   0  0  2  0  0  0  0  0  0  0  0  0
    1.8468   -6.9841   -1.0082 C   0  0  0  0  0  0  0  0  0  0  0  0
    1.9637   -7.6894   -2.2476 N   0  0  0  0  0  0  0  0  0  0  0  0
    2.1361   -5.7587   -0.9641 O   0  0  0  0  0  0  0  0  0  0  0  0
   -0.0785   -7.3539    0.5727 C   0  0  0  0  0  0  0  0  0  0  0  0
   -0.3115   -5.6634    1.2494 S   0  0  0  0  0  0  0  0  0  0  0  0
   -1.0231   -4.8971   -0.2525 C   0  0  0  0  0  0  0  0  0  0  0  0
   -7.6403   -8.0845   -0.5206 H   0  0  0  0  0  0  0  0  0  0  0  0
   -6.0168   -7.5464    0.0504 H   0  0  0  0  0  0  0  0  0  0  0  0
   -6.9946   -6.4949   -1.0286 H   0  0  0  0  0  0  0  0  0  0  0  0
   -8.4600   -4.9788    2.1187 H   0  0  0  0  0  0  0  0  0  0  0  0
   -8.6029   -3.3273    0.5664 H   0  0  0  0  0  0  0  0  0  0  0  0
   -6.7849   -3.1344   -1.1564 H   0  0  0  0  0  0  0  0  0  0  0  0
   -6.0115   -4.5869   -0.4470 H   0  0  0  0  0  0  0  0  0  0  0  0
   -5.0926   -1.8113   -1.0214 H   0  0  0  0  0  0  0  0  0  0  0  0
   -5.1157   -0.6294    0.3055 H   0  0  0  0  0  0  0  0  0  0  0  0
   -3.6137   -4.0503   -0.3364 H   0  0  0  0  0  0  0  0  0  0  0  0
    0.3761   -2.6817    0.4875 H   0  0  0  0  0  0  0  0  0  0  0  0
   -2.9848   -0.0345    1.0157 H   0  0  0  0  0  0  0  0  0  0  0  0
    0.5416   -0.0111    0.3496 H   0  0  0  0  0  0  0  0  0  0  0  0
    0.4157   -0.5536    2.0401 H   0  0  0  0  0  0  0  0  0  0  0  0
   -2.1885    1.7519   -0.2902 H   0  0  0  0  0  0  0  0  0  0  0  0
   -0.4423    1.8057   -0.6870 H   0  0  0  0  0  0  0  0  0  0  0  0
   -1.9321    3.9595    0.9260 H   0  0  0  0  0  0  0  0  0  0  0  0
   -1.1707    4.0288   -2.0331 H   0  0  0  0  0  0  0  0  0  0  0  0
   -4.0331    4.1243    0.3427 H   0  0  0  0  0  0  0  0  0  0  0  0
   -3.7673    7.1854    0.0105 H   0  0  0  0  0  0  0  0  0  0  0  0
   -2.7953    6.1466    1.1225 H   0  0  0  0  0  0  0  0  0  0  0  0
   -4.5614    6.3291    1.3866 H   0  0  0  0  0  0  0  0  0  0  0  0
   -5.6847    6.0881   -1.2574 H   0  0  0  0  0  0  0  0  0  0  0  0
   -8.2792    3.3116   -0.8722 H   0  0  0  0  0  0  0  0  0  0  0  0
   -7.1058    4.8585    1.5305 H   0  0  0  0  0  0  0  0  0  0  0  0
   -7.3382    3.0720    1.3971 H   0  0  0  0  0  0  0  0  0  0  0  0
   -8.7651    4.1651    1.4570 H   0  0  0  0  0  0  0  0  0  0  0  0
   -7.8159    6.3280   -0.7153 H   0  0  0  0  0  0  0  0  0  0  0  0
  -10.3727    3.8620   -0.2291 H   0  0  0  0  0  0  0  0  0  0  0  0
  -12.1579    6.3581   -0.4422 H   0  0  0  0  0  0  0  0  0  0  0  0
  -12.3963    4.9308    0.6298 H   0  0  0  0  0  0  0  0  0  0  0  0
  -10.9979    6.0200    0.9033 H   0  0  0  0  0  0  0  0  0  0  0  0
  -11.9073    4.8293   -2.6703 H   0  0  0  0  0  0  0  0  0  0  0  0
  -11.6425    2.1566   -0.0063 H   0  0  0  0  0  0  0  0  0  0  0  0
  -13.9704    1.4732    0.5673 H   0  0  0  0  0  0  0  0  0  0  0  0
  -13.8637    3.2077    0.1130 H   0  0  0  0  0  0  0  0  0  0  0  0
  -14.5271    2.0144   -1.0609 H   0  0  0  0  0  0  0  0  0  0  0  0
  -12.9903    0.0516   -1.7191 H   0  0  0  0  0  0  0  0  0  0  0  0
  -10.2311   -2.0640   -0.2214 H   0  0  0  0  0  0  0  0  0  0  0  0
  -11.1984   -1.9766    2.1254 H   0  0  0  0  0  0  0  0  0  0  0  0
  -11.9947   -0.4135    1.7045 H   0  0  0  0  0  0  0  0  0  0  0  0
  -10.1902   -0.5386    1.7308 H   0  0  0  0  0  0  0  0  0  0  0  0
  -13.2477   -1.7767   -0.3882 H   0  0  0  0  0  0  0  0  0  0  0  0
  -10.6605   -3.9986    0.9558 H   0  0  0  0  0  0  0  0  0  0  0  0
  -10.8886   -6.4394    1.2405 H   0  0  0  0  0  0  0  0  0  0  0  0
  -12.3509   -6.4334    0.1930 H   0  0  0  0  0  0  0  0  0  0  0  0
  -12.3576   -5.5424    1.7690 H   0  0  0  0  0  0  0  0  0  0  0  0
  -10.8084   -5.4385   -1.7366 H   0  0  0  0  0  0  0  0  0  0  0  0
    0.2548    5.8820    1.8074 H   0  0  0  0  0  0  0  0  0  0  0  0
   -0.8681    6.7068   -0.7214 H   0  0  0  0  0  0  0  0  0  0  0  0
    1.2136    7.4938   -1.9328 H   0  0  0  0  0  0  0  0  0  0  0  0
    1.0129    5.7066   -1.8768 H   0  0  0  0  0  0  0  0  0  0  0  0
    2.2017    6.4974   -0.7902 H   0  0  0  0  0  0  0  0  0  0  0  0
    1.4445    9.7547    0.9724 H   0  0  0  0  0  0  0  0  0  0  0  0
    2.2993    6.8901    1.5747 H   0  0  0  0  0  0  0  0  0  0  0  0
    2.7656    9.5005    3.1430 H   0  0  0  0  0  0  0  0  0  0  0  0
    1.6233    8.1711    3.5825 H   0  0  0  0  0  0  0  0  0  0  0  0
    3.3963    7.8651    3.5819 H   0  0  0  0  0  0  0  0  0  0  0  0
    4.8470    6.6718    1.9488 H   0  0  0  0  0  0  0  0  0  0  0  0
    6.4954    8.2273    0.0659 H   0  0  0  0  0  0  0  0  0  0  0  0
    5.0576    5.7063   -1.0205 H   0  0  0  0  0  0  0  0  0  0  0  0
    4.8348    7.4010   -1.6018 H   0  0  0  0  0  0  0  0  0  0  0  0
    6.4046    6.5830   -1.8540 H   0  0  0  0  0  0  0  0  0  0  0  0
    8.7695    6.8590    1.9552 H   0  0  0  0  0  0  0  0  0  0  0  0
   10.4699    6.7023    0.4241 H   0  0  0  0  0  0  0  0  0  0  0  0
    9.6350    8.7438   -0.4984 H   0  0  0  0  0  0  0  0  0  0  0  0
    8.3967    7.8939   -1.4823 H   0  0  0  0  0  0  0  0  0  0  0  0
   10.1524    7.6802   -1.8518 H   0  0  0  0  0  0  0  0  0  0  0  0
    9.9089    3.2434   -0.9166 H   0  0  0  0  0  0  0  0  0  0  0  0
   11.2925    4.8339    1.2146 H   0  0  0  0  0  0  0  0  0  0  0  0
   12.8085    4.0993   -1.3823 H   0  0  0  0  0  0  0  0  0  0  0  0
   12.2206    5.7528   -1.0178 H   0  0  0  0  0  0  0  0  0  0  0  0
   13.4603    4.9951    0.0483 H   0  0  0  0  0  0  0  0  0  0  0  0
   10.1569    1.6932    1.3543 H   0  0  0  0  0  0  0  0  0  0  0  0
   11.8618   -0.1649    0.7919 H   0  0  0  0  0  0  0  0  0  0  0  0
   13.2560    1.1138   -0.8061 H   0  0  0  0  0  0  0  0  0  0  0  0
   12.5067   -0.2479   -1.6945 H   0  0  0  0  0  0  0  0  0  0  0  0
   11.8306    1.4133   -1.8774 H   0  0  0  0  0  0  0  0  0  0  0  0
    9.3202   -2.0019   -1.4273 H   0  0  0  0  0  0  0  0  0  0  0  0
   12.1265   -2.1140   -0.2463 H   0  0  0  0  0  0  0  0  0  0  0  0
   12.0104   -2.9474   -2.5061 H   0  0  0  0  0  0  0  0  0  0  0  0
   12.2452   -4.3262   -1.3728 H   0  0  0  0  0  0  0  0  0  0  0  0
   10.6253   -4.0202   -2.1211 H   0  0  0  0  0  0  0  0  0  0  0  0
    8.6341   -3.6012    1.2485 H   0  0  0  0  0  0  0  0  0  0  0  0
   10.0870   -5.6554   -0.4814 H   0  0  0  0  0  0  0  0  0  0  0  0
    8.2680   -4.4340   -1.7366 H   0  0  0  0  0  0  0  0  0  0  0  0
    7.9393   -6.1823   -1.5427 H   0  0  0  0  0  0  0  0  0  0  0  0
    7.0770   -4.9798   -0.5048 H   0  0  0  0  0  0  0  0  0  0  0  0
    6.8600   -6.8184    1.5376 H   0  0  0  0  0  0  0  0  0  0  0  0
    7.4071   -9.2550    1.2518 H   0  0  0  0  0  0  0  0  0  0  0  0
    9.8101   -8.9680    0.8185 H   0  0  0  0  0  0  0  0  0  0  0  0
    9.4630   -8.2659   -0.8137 H   0  0  0  0  0  0  0  0  0  0  0  0
    9.0391   -9.9889   -0.4452 H   0  0  0  0  0  0  0  0  0  0  0  0
    4.6749   -8.0944   -1.2308 H   0  0  0  0  0  0  0  0  0  0  0  0
    5.3117   -8.6657    1.7016 H   0  0  0  0  0  0  0  0  0  0  0  0
    3.1525  -10.0236    1.6437 H   0  0  0  0  0  0  0  0  0  0  0  0
    4.5681  -10.7225    0.7887 H   0  0  0  0  0  0  0  0  0  0  0  0
    3.2676   -9.9589   -0.1676 H   0  0  0  0  0  0  0  0  0  0  0  0
    1.8872   -7.0607    2.2546 H   0  0  0  0  0  0  0  0  0  0  0  0
    1.3901   -8.7945    0.0318 H   0  0  0  0  0  0  0  0  0  0  0  0
    2.2816   -7.1969   -3.1100 H   0  0  0  0  0  0  0  0  0  0  0  0
    1.7466   -8.7125   -2.3020 H   0  0  0  0  0  0  0  0  0  0  0  0
   -0.7243   -7.5304   -0.3109 H   0  0  0  0  0  0  0  0  0  0  0  0
   -0.4276   -8.0652    1.3499 H   0  0  0  0  0  0  0  0  0  0  0  0
   -0.2420   -4.8067   -1.0339 H   0  0  0  0  0  0  0  0  0  0  0  0
   -1.8333   -5.5427   -0.6542 H   0  0  0  0  0  0  0  0  0  0  0  0
  1  2  1  0
  2  3  2  0
  2  4  1  0
  4  5  1  0
  5  6  1  0
  6  7  1  0
  7  8  1  0
  8  9  1  0
  9 10  2  0
 10 11  1  0
 11 12  2  0
 12 13  1  0
 13 14  2  0
 13 15  1  0
 15 16  1  0
 16 17  1  0
 17 18  1  0
 18 19  1  0
 19 20  1  0
 20 21  2  0
 20 22  1  0
 22 23  1  0
 22 24  1  0
 24 25  1  0
 25 26  2  0
 25 27  1  0
 27 28  1  0
 27 29  1  0
 29 30  1  0
 30 31  2  0
 30 32  1  0
 32 33  1  0
 32 34  1  0
 34 35  1  0
 35 36  2  0
 35 37  1  0
 37 38  1  0
 37 39  1  0
 39 40  1  0
 40 41  2  0
 40 42  1  0
 42 43  1  0
 42 44  1  0
 44 45  1  0
 45 46  2  0
 45 47  1  0
 47 48  1  0
 47 49  1  0
 49 50  1  0
 50 51  2  0
 18 52  1  0
 52 53  2  0
 52 54  1  0
 54 55  1  0
 55 56  1  0
 55 57  1  0
 57 58  2  0
 57 59  1  0
 59 60  1  0
 60 61  1  0
 60 62  1  0
 62 63  2  0
 62 64  1  0
 64 65  1  0
 65 66  1  0
 65 67  1  0
 67 68  2  0
 67 69  1  0
 69 70  1  0
 70 71  1  0
 70 72  1  0
 72 73  2  0
 72 74  1  0
 74 75  1  0
 75 76  1  0
 75 77  1  0
 77 78  2  0
 77 79  1  0
 79 80  1  0
 80 81  1  0
 80 82  1  0
 82 83  2  0
 82 84  1  0
 84 85  1  0
 85 86  1  0
 85 87  1  0
 87 88  2  0
 87 89  1  0
 89 90  1  0
 90 91  1  0
 90 92  1  0
 92 93  2  0
 92 94  1  0
 94 95  1  0
 95 96  1  0
 95 97  1  0
 97 98  2  0
 97 99  1  0
 99100  1  0
100101  1  0
100102  1  0
102103  2  0
102104  1  0
104105  1  0
105106  1  0
106107  1  0
106108  2  0
105109  1  0
109110  1  0
110111  1  0
 50  5  1  0
 14  9  1  0
111 11  1  0
  1112  1  0
  1113  1  0
  1114  1  0
  4115  1  0
  5116  1  1
  6117  1  0
  6118  1  0
  8119  1  0
  8120  1  0
 10121  1  0
 12122  1  0
 14123  1  0
 15124  1  0
 15125  1  0
 17126  1  0
 17127  1  0
 18128  1  1
 19129  1  0
 22130  1  1
 23131  1  0
 23132  1  0
 23133  1  0
 24134  1  0
 27135  1  6
 28136  1  0
 28137  1  0
 28138  1  0
 29139  1  0
 32140  1  1
 33141  1  0
 33142  1  0
 33143  1  0
 34144  1  0
 37145  1  1
 38146  1  0
 38147  1  0
 38148  1  0
 39149  1  0
 42150  1  1
 43151  1  0
 43152  1  0
 43153  1  0
 44154  1  0
 47155  1  1
 48156  1  0
 48157  1  0
 48158  1  0
 49159  1  0
 54160  1  0
 55161  1  6
 56162  1  0
 56163  1  0
 56164  1  0
 59165  1  0
 60166  1  1
 61167  1  0
 61168  1  0
 61169  1  0
 64170  1  0
 65171  1  6
 66172  1  0
 66173  1  0
 66174  1  0
 69175  1  0
 70176  1  1
 71177  1  0
 71178  1  0
 71179  1  0
 74180  1  0
 75181  1  1
 76182  1  0
 76183  1  0
 76184  1  0
 79185  1  0
 80186  1  1
 81187  1  0
 81188  1  0
 81189  1  0
 84190  1  0
 85191  1  1
 86192  1  0
 86193  1  0
 86194  1  0
 89195  1  0
 90196  1  6
 91197  1  0
 91198  1  0
 91199  1  0
 94200  1  0
 95201  1  1
 96202  1  0
 96203  1  0
 96204  1  0
 99205  1  0
100206  1  1
101207  1  0
101208  1  0
101209  1  0
104210  1  0
105211  1  6
107212  1  0
107213  1  0
109214  1  0
109215  1  0
111216  1  0
111217  1  0
M  END
