
     RDKit          3D

107109  0  0  0  0  0  0  0  0999 V2000
    8.4538    1.9434    2.4654 C   0  0  0  0  0  0  0  0  0  0  0  0
    8.0021    0.5498    2.1697 C   0  0  0  0  0  0  0  0  0  0  0  0
    8.8526   -0.3804    2.0852 O   0  0  0  0  0  0  0  0  0  0  0  0
    6.6137    0.2624    1.9790 N   0  0  0  0  0  0  0  0  0  0  0  0
    5.9016    0.7753    0.8061 C   0  0  2  0  0  0  0  0  0  0  0  0
    4.4298    1.1051    1.1330 C   0  0  0  0  0  0  0  0  0  0  0  0
    4.2325    2.8698    1.5755 S   0  0  0  0  0  0  0  0  0  0  0  0
    4.2724    3.5377   -0.1281 C   0  0  0  0  0  0  0  0  0  0  0  0
    2.9340    3.3765   -0.7947 C   0  0  0  0  0  0  0  0  0  0  0  0
    1.8747    4.2288   -0.4584 C   0  0  0  0  0  0  0  0  0  0  0  0
    0.6393    4.1207   -1.1116 C   0  0  0  0  0  0  0  0  0  0  0  0
    0.4610    3.1240   -2.0790 C   0  0  0  0  0  0  0  0  0  0  0  0
    1.5149    2.2609   -2.4215 C   0  0  0  0  0  0  0  0  0  0  0  0
    2.7519    2.3998   -1.7850 C   0  0  0  0  0  0  0  0  0  0  0  0
    1.2873    1.1295   -3.3849 C   0  0  0  0  0  0  0  0  0  0  0  0
    0.5071   -0.2615   -2.4899 S   0  0  0  0  0  0  0  0  0  0  0  0
    2.0131   -1.2696   -2.1611 C   0  0  0  0  0  0  0  0  0  0  0  0
    2.0287   -1.9735   -0.7817 C   0  0  2  0  0  0  0  0  0  0  0  0
    3.0285   -3.0469   -0.8331 N   0  0  0  0  0  0  0  0  0  0  0  0
    3.9511   -3.3098    0.2294 C   0  0  0  0  0  0  0  0  0  0  0  0
    3.9026   -4.4241    0.8142 O   0  0  0  0  0  0  0  0  0  0  0  0
    4.9845   -2.2886    0.6509 C   0  0  1  0  0  0  0  0  0  0  0  0
    6.2367   -3.0071    1.1713 C   0  0  0  0  0  0  0  0  0  0  0  0
    5.3539   -1.4347   -0.4825 N   0  0  0  0  0  0  0  0  0  0  0  0
    6.0291   -0.1652   -0.3789 C   0  0  0  0  0  0  0  0  0  0  0  0
    6.7178    0.2223   -1.3649 O   0  0  0  0  0  0  0  0  0  0  0  0
    0.6822   -2.5498   -0.3773 C   0  0  0  0  0  0  0  0  0  0  0  0
   -0.2567   -1.7632   -0.0761 O   0  0  0  0  0  0  0  0  0  0  0  0
    0.4911   -3.9617   -0.2072 N   0  0  0  0  0  0  0  0  0  0  0  0
   -0.4045   -4.7816   -1.0288 C   0  0  2  0  0  0  0  0  0  0  0  0
    0.3854   -5.4483   -2.1645 C   0  0  0  0  0  0  0  0  0  0  0  0
   -1.5781   -3.9995   -1.5725 C   0  0  0  0  0  0  0  0  0  0  0  0
   -1.4282   -3.2918   -2.6058 O   0  0  0  0  0  0  0  0  0  0  0  0
   -2.8803   -4.0924   -0.9767 N   0  0  0  0  0  0  0  0  0  0  0  0
   -3.1074   -3.8788    0.4598 C   0  0  2  0  0  0  0  0  0  0  0  0
   -3.2005   -5.2249    1.1972 C   0  0  0  0  0  0  0  0  0  0  0  0
   -4.3606   -3.0561    0.6530 C   0  0  0  0  0  0  0  0  0  0  0  0
   -5.4616   -3.6263    0.9201 O   0  0  0  0  0  0  0  0  0  0  0  0
   -4.3186   -1.6355    0.4570 N   0  0  0  0  0  0  0  0  0  0  0  0
   -4.8494   -0.6569    1.4159 C   0  0  2  0  0  0  0  0  0  0  0  0
   -4.2131   -0.8600    2.7936 C   0  0  0  0  0  0  0  0  0  0  0  0
   -6.3640   -0.7071    1.5051 C   0  0  0  0  0  0  0  0  0  0  0  0
   -6.9130   -1.7324    1.9879 O   0  0  0  0  0  0  0  0  0  0  0  0
   -7.2074    0.3975    1.1365 N   0  0  0  0  0  0  0  0  0  0  0  0
   -6.7372    1.7583    0.8447 C   0  0  2  0  0  0  0  0  0  0  0  0
   -7.8930    2.7500    1.0123 C   0  0  0  0  0  0  0  0  0  0  0  0
   -6.2162    1.8307   -0.5718 C   0  0  0  0  0  0  0  0  0  0  0  0
   -6.9243    1.3504   -1.4962 O   0  0  0  0  0  0  0  0  0  0  0  0
   -4.9791    2.4698   -0.9173 N   0  0  0  0  0  0  0  0  0  0  0  0
   -4.1025    3.1974    0.0110 C   0  0  2  0  0  0  0  0  0  0  0  0
   -4.8036    4.4205    0.5440 C   0  0  0  0  0  0  0  0  0  0  0  0
   -5.3514    5.3951   -0.3470 N   0  0  0  0  0  0  0  0  0  0  0  0
   -4.9063    4.5882    1.7889 O   0  0  0  0  0  0  0  0  0  0  0  0
   -2.7898    3.5803   -0.6965 C   0  0  0  0  0  0  0  0  0  0  0  0
   -1.6016    4.3380    0.4807 S   0  0  0  0  0  0  0  0  0  0  0  0
   -0.4862    5.0607   -0.7799 C   0  0  0  0  0  0  0  0  0  0  0  0
    8.1480    2.6306    1.6504 H   0  0  0  0  0  0  0  0  0  0  0  0
    9.5559    1.9858    2.5730 H   0  0  0  0  0  0  0  0  0  0  0  0
    7.9962    2.2732    3.4223 H   0  0  0  0  0  0  0  0  0  0  0  0
    6.2289   -0.5519    2.5125 H   0  0  0  0  0  0  0  0  0  0  0  0
    6.3968    1.7243    0.4999 H   0  0  0  0  0  0  0  0  0  0  0  0
    3.7534    0.8649    0.2864 H   0  0  0  0  0  0  0  0  0  0  0  0
    4.0774    0.5043    1.9999 H   0  0  0  0  0  0  0  0  0  0  0  0
    4.5382    4.6114   -0.0649 H   0  0  0  0  0  0  0  0  0  0  0  0
    5.0783    3.0719   -0.7231 H   0  0  0  0  0  0  0  0  0  0  0  0
    2.0272    4.9908    0.2991 H   0  0  0  0  0  0  0  0  0  0  0  0
   -0.4879    3.0285   -2.5810 H   0  0  0  0  0  0  0  0  0  0  0  0
    3.5734    1.7449   -2.0573 H   0  0  0  0  0  0  0  0  0  0  0  0
    0.5958    1.4570   -4.1905 H   0  0  0  0  0  0  0  0  0  0  0  0
    2.2296    0.8237   -3.8778 H   0  0  0  0  0  0  0  0  0  0  0  0
    2.0833   -2.0212   -2.9758 H   0  0  0  0  0  0  0  0  0  0  0  0
    2.9206   -0.6313   -2.2188 H   0  0  0  0  0  0  0  0  0  0  0  0
    2.3222   -1.2281   -0.0081 H   0  0  0  0  0  0  0  0  0  0  0  0
    2.8640   -3.8240   -1.5097 H   0  0  0  0  0  0  0  0  0  0  0  0
    4.5284   -1.6806    1.4593 H   0  0  0  0  0  0  0  0  0  0  0  0
    6.0177   -3.4842    2.1480 H   0  0  0  0  0  0  0  0  0  0  0  0
    6.5646   -3.7750    0.4403 H   0  0  0  0  0  0  0  0  0  0  0  0
    7.0785   -2.2985    1.3078 H   0  0  0  0  0  0  0  0  0  0  0  0
    5.3528   -1.8706   -1.4316 H   0  0  0  0  0  0  0  0  0  0  0  0
    1.1972   -4.4750    0.3742 H   0  0  0  0  0  0  0  0  0  0  0  0
   -0.7889   -5.6050   -0.3991 H   0  0  0  0  0  0  0  0  0  0  0  0
    0.8517   -4.6836   -2.8154 H   0  0  0  0  0  0  0  0  0  0  0  0
    1.1877   -6.0880   -1.7417 H   0  0  0  0  0  0  0  0  0  0  0  0
   -0.2867   -6.0907   -2.7779 H   0  0  0  0  0  0  0  0  0  0  0  0
   -3.7045   -4.0010   -1.6230 H   0  0  0  0  0  0  0  0  0  0  0  0
   -2.2637   -3.3055    0.9069 H   0  0  0  0  0  0  0  0  0  0  0  0
   -3.8957   -5.9189    0.6774 H   0  0  0  0  0  0  0  0  0  0  0  0
   -3.5764   -5.0719    2.2407 H   0  0  0  0  0  0  0  0  0  0  0  0
   -2.1993   -5.6997    1.2869 H   0  0  0  0  0  0  0  0  0  0  0  0
   -3.6274   -1.2683   -0.2351 H   0  0  0  0  0  0  0  0  0  0  0  0
   -4.5258    0.3448    1.0722 H   0  0  0  0  0  0  0  0  0  0  0  0
   -4.4932   -1.8479    3.2189 H   0  0  0  0  0  0  0  0  0  0  0  0
   -4.5443   -0.0590    3.4891 H   0  0  0  0  0  0  0  0  0  0  0  0
   -3.1097   -0.8121    2.7023 H   0  0  0  0  0  0  0  0  0  0  0  0
   -8.2393    0.2386    1.2141 H   0  0  0  0  0  0  0  0  0  0  0  0
   -5.9633    2.0386    1.5850 H   0  0  0  0  0  0  0  0  0  0  0  0
   -8.7278    2.5013    0.3232 H   0  0  0  0  0  0  0  0  0  0  0  0
   -8.2739    2.7136    2.0557 H   0  0  0  0  0  0  0  0  0  0  0  0
   -7.5554    3.7842    0.8009 H   0  0  0  0  0  0  0  0  0  0  0  0
   -4.6999    2.4281   -1.9197 H   0  0  0  0  0  0  0  0  0  0  0  0
   -3.8265    2.5310    0.8514 H   0  0  0  0  0  0  0  0  0  0  0  0
   -5.8453    6.2351    0.0307 H   0  0  0  0  0  0  0  0  0  0  0  0
   -5.2803    5.2714   -1.3788 H   0  0  0  0  0  0  0  0  0  0  0  0
   -3.0131    4.2734   -1.5385 H   0  0  0  0  0  0  0  0  0  0  0  0
   -2.3279    2.6569   -1.1164 H   0  0  0  0  0  0  0  0  0  0  0  0
   -1.0326    5.3463   -1.7001 H   0  0  0  0  0  0  0  0  0  0  0  0
   -0.0778    6.0019   -0.3590 H   0  0  0  0  0  0  0  0  0  0  0  0
  1  2  1  0
  2  3  2  0
  2  4  1  0
  4  5  1  0
  5  6  1  0
  6  7  1  0
  7  8  1  0
  8  9  1  0
  9 10  1  0
 10 11  2  0
 11 12  1  0
 12 13  2  0
 13 14  1  0
 13 15  1  0
 15 16  1  0
 16 17  1  0
 17 18  1  0
 18 19  1  0
 19 20  1  0
 20 21  2  0
 20 22  1  0
 22 23  1  0
 22 24  1  0
 24 25  1  0
 25 26  2  0
 18 27  1  0
 27 28  2  0
 27 29  1  0
 29 30  1  0
 30 31  1  0
 30 32  1  0
 32 33  2  0
 32 34  1  0
 34 35  1  0
 35 36  1  0
 35 37  1  0
 37 38  2  0
 37 39  1  0
 39 40  1  0
 40 41  1  0
 40 42  1  0
 42 43  2  0
 42 44  1  0
 44 45  1  0
 45 46  1  0
 45 47  1  0
 47 48  2  0
 47 49  1  0
 49 50  1  0
 50 51  1  0
 51 52  1  0
 51 53  2  0
 50 54  1  0
 54 55  1  0
 55 56  1  0
 25  5  1  0
 14  9  2  0
 56 11  1  0
  1 57  1  0
  1 58  1  0
  1 59  1  0
  4 60  1  0
  5 61  1  6
  6 62  1  0
  6 63  1  0
  8 64  1  0
  8 65  1  0
 10 66  1  0
 12 67  1  0
 14 68  1  0
 15 69  1  0
 15 70  1  0
 17 71  1  0
 17 72  1  0
 18 73  1  1
 19 74  1  0
 22 75  1  1
 23 76  1  0
 23 77  1  0
 23 78  1  0
 24 79  1  0
 29 80  1  0
 30 81  1  1
 31 82  1  0
 31 83  1  0
 31 84  1  0
 34 85  1  0
 35 86  1  1
 36 87  1  0
 36 88  1  0
 36 89  1  0
 39 90  1  0
 40 91  1  6
 41 92  1  0
 41 93  1  0
 41 94  1  0
 44 95  1  0
 45 96  1  1
 46 97  1  0
 46 98  1  0
 46 99  1  0
 49100  1  0
 50101  1  1
 52102  1  0
 52103  1  0
 54104  1  0
 54105  1  0
 56106  1  0
 56107  1  0
M  END
