
     RDKit          3D

157159  0  0  0  0  0  0  0  0999 V2000
    2.8592    9.2424    0.3367 C   0  0  0  0  0  0  0  0  0  0  0  0
    2.5557    7.8055    0.6149 C   0  0  0  0  0  0  0  0  0  0  0  0
    2.3544    7.4281    1.8025 O   0  0  0  0  0  0  0  0  0  0  0  0
    2.5033    6.8689   -0.4700 N   0  0  0  0  0  0  0  0  0  0  0  0
    2.3136    5.4270   -0.2821 C   0  0  1  0  0  0  0  0  0  0  0  0
    1.0008    4.9893   -0.9523 C   0  0  0  0  0  0  0  0  0  0  0  0
   -0.4389    5.6517   -0.0422 S   0  0  0  0  0  0  0  0  0  0  0  0
   -0.5685    4.2967    1.1832 C   0  0  0  0  0  0  0  0  0  0  0  0
   -1.5935    3.2976    0.7266 C   0  0  0  0  0  0  0  0  0  0  0  0
   -1.2087    2.1809   -0.0295 C   0  0  0  0  0  0  0  0  0  0  0  0
   -2.1722    1.2966   -0.5323 C   0  0  0  0  0  0  0  0  0  0  0  0
   -3.5295    1.5068   -0.2337 C   0  0  0  0  0  0  0  0  0  0  0  0
   -3.9204    2.6077    0.5432 C   0  0  0  0  0  0  0  0  0  0  0  0
   -2.9504    3.5102    1.0020 C   0  0  0  0  0  0  0  0  0  0  0  0
   -5.3749    2.9070    0.7637 C   0  0  0  0  0  0  0  0  0  0  0  0
   -5.9872    3.8852   -0.6481 S   0  0  0  0  0  0  0  0  0  0  0  0
   -7.4713    4.5806    0.1699 C   0  0  0  0  0  0  0  0  0  0  0  0
   -8.5963    3.5443    0.3241 C   0  0  1  0  0  0  0  0  0  0  0  0
   -9.8280    4.1846    0.9049 C   0  0  0  0  0  0  0  0  0  0  0  0
  -10.5333    5.2069    0.1950 N   0  0  0  0  0  0  0  0  0  0  0  0
  -10.2643    3.7986    2.0204 O   0  0  0  0  0  0  0  0  0  0  0  0
   -8.9204    2.9433   -0.9756 N   0  0  0  0  0  0  0  0  0  0  0  0
   -9.1672    1.5442   -1.2156 C   0  0  0  0  0  0  0  0  0  0  0  0
   -9.7376    1.2119   -2.2914 O   0  0  0  0  0  0  0  0  0  0  0  0
   -8.8172    0.4643   -0.2128 C   0  0  1  0  0  0  0  0  0  0  0  0
   -9.9751    0.3016    0.7840 C   0  0  0  0  0  0  0  0  0  0  0  0
   -8.4873   -0.7823   -0.9224 N   0  0  0  0  0  0  0  0  0  0  0  0
   -9.1816   -2.0285   -0.7819 C   0  0  0  0  0  0  0  0  0  0  0  0
   -9.9440   -2.4049   -1.7143 O   0  0  0  0  0  0  0  0  0  0  0  0
   -9.0273   -2.8700    0.4614 C   0  0  1  0  0  0  0  0  0  0  0  0
   -9.2396   -4.3651    0.1745 C   0  0  0  0  0  0  0  0  0  0  0  0
   -7.7361   -2.5856    1.1135 N   0  0  0  0  0  0  0  0  0  0  0  0
   -6.6705   -3.5281    1.2983 C   0  0  0  0  0  0  0  0  0  0  0  0
   -6.3863   -3.8935    2.4705 O   0  0  0  0  0  0  0  0  0  0  0  0
   -5.8894   -4.1044    0.1370 C   0  0  1  0  0  0  0  0  0  0  0  0
   -5.9282   -3.2241   -1.1145 C   0  0  0  0  0  0  0  0  0  0  0  0
   -4.5064   -4.3845    0.5430 N   0  0  0  0  0  0  0  0  0  0  0  0
   -3.5827   -3.3711    0.9680 C   0  0  0  0  0  0  0  0  0  0  0  0
   -3.3713   -3.2158    2.2010 O   0  0  0  0  0  0  0  0  0  0  0  0
   -2.8536   -2.5115   -0.0451 C   0  0  1  0  0  0  0  0  0  0  0  0
   -1.6967   -1.6957    0.5663 C   0  0  0  0  0  0  0  0  0  0  0  0
   -0.5733   -0.9721   -0.6912 S   0  0  0  0  0  0  0  0  0  0  0  0
   -1.7582    0.1923   -1.4698 C   0  0  0  0  0  0  0  0  0  0  0  0
   -2.4246   -3.2969   -1.2143 N   0  0  0  0  0  0  0  0  0  0  0  0
   -1.8678   -4.6221   -1.1780 C   0  0  0  0  0  0  0  0  0  0  0  0
   -2.3599   -5.5001   -1.9368 O   0  0  0  0  0  0  0  0  0  0  0  0
   -0.6878   -4.9907   -0.3025 C   0  0  1  0  0  0  0  0  0  0  0  0
   -1.1522   -5.9677    0.7855 C   0  0  0  0  0  0  0  0  0  0  0  0
    0.3692   -5.6023   -1.1244 N   0  0  0  0  0  0  0  0  0  0  0  0
    1.6989   -5.9427   -0.6787 C   0  0  0  0  0  0  0  0  0  0  0  0
    2.4343   -6.6182   -1.4515 O   0  0  0  0  0  0  0  0  0  0  0  0
    2.2615   -5.5421    0.6682 C   0  0  1  0  0  0  0  0  0  0  0  0
    2.4037   -6.8029    1.5445 C   0  0  0  0  0  0  0  0  0  0  0  0
    3.5530   -4.8576    0.4664 N   0  0  0  0  0  0  0  0  0  0  0  0
    4.7145   -5.0870    1.2788 C   0  0  0  0  0  0  0  0  0  0  0  0
    4.6272   -4.9930    2.5317 O   0  0  0  0  0  0  0  0  0  0  0  0
    6.0454   -5.4346    0.6577 C   0  0  1  0  0  0  0  0  0  0  0  0
    5.8825   -6.1788   -0.6739 C   0  0  0  0  0  0  0  0  0  0  0  0
    6.8611   -4.2286    0.4713 N   0  0  0  0  0  0  0  0  0  0  0  0
    8.2742   -4.3078    0.2221 C   0  0  0  0  0  0  0  0  0  0  0  0
    8.8930   -5.3796    0.4774 O   0  0  0  0  0  0  0  0  0  0  0  0
    9.0331   -3.1023   -0.2787 C   0  0  1  0  0  0  0  0  0  0  0  0
   10.3144   -3.5157   -1.0124 C   0  0  0  0  0  0  0  0  0  0  0  0
    8.1882   -2.3281   -1.1970 N   0  0  0  0  0  0  0  0  0  0  0  0
    7.8134   -0.9428   -1.0494 C   0  0  0  0  0  0  0  0  0  0  0  0
    6.9919   -0.4595   -1.8773 O   0  0  0  0  0  0  0  0  0  0  0  0
    8.3999   -0.0359    0.0146 C   0  0  1  0  0  0  0  0  0  0  0  0
    9.8398    0.3417   -0.3596 C   0  0  0  0  0  0  0  0  0  0  0  0
    7.5316    1.1391    0.2089 N   0  0  0  0  0  0  0  0  0  0  0  0
    8.0136    2.4764    0.3873 C   0  0  0  0  0  0  0  0  0  0  0  0
    8.1710    2.9215    1.5564 O   0  0  0  0  0  0  0  0  0  0  0  0
    8.3629    3.3434   -0.8004 C   0  0  1  0  0  0  0  0  0  0  0  0
    7.5082    3.0416   -2.0407 C   0  0  0  0  0  0  0  0  0  0  0  0
    8.3099    4.7736   -0.4593 N   0  0  0  0  0  0  0  0  0  0  0  0
    7.1345    5.5616   -0.1959 C   0  0  0  0  0  0  0  0  0  0  0  0
    7.2285    6.8177   -0.2557 O   0  0  0  0  0  0  0  0  0  0  0  0
    5.7976    4.9583    0.1762 C   0  0  1  0  0  0  0  0  0  0  0  0
    5.3649    5.4804    1.5489 C   0  0  0  0  0  0  0  0  0  0  0  0
    4.7961    5.2963   -0.8375 N   0  0  0  0  0  0  0  0  0  0  0  0
    3.5066    4.6796   -0.8284 C   0  0  0  0  0  0  0  0  0  0  0  0
    3.3895    3.4842   -1.2241 O   0  0  0  0  0  0  0  0  0  0  0  0
    2.8815    9.8278    1.2786 H   0  0  0  0  0  0  0  0  0  0  0  0
    3.8481    9.3231   -0.1605 H   0  0  0  0  0  0  0  0  0  0  0  0
    2.0799    9.6648   -0.3306 H   0  0  0  0  0  0  0  0  0  0  0  0
    2.6386    7.2251   -1.4459 H   0  0  0  0  0  0  0  0  0  0  0  0
    2.2569    5.1789    0.8008 H   0  0  0  0  0  0  0  0  0  0  0  0
    0.9341    3.8851   -0.9969 H   0  0  0  0  0  0  0  0  0  0  0  0
    0.9710    5.3573   -1.9974 H   0  0  0  0  0  0  0  0  0  0  0  0
    0.4076    3.7996    1.3598 H   0  0  0  0  0  0  0  0  0  0  0  0
   -0.8767    4.7329    2.1559 H   0  0  0  0  0  0  0  0  0  0  0  0
   -0.1649    2.0111   -0.2465 H   0  0  0  0  0  0  0  0  0  0  0  0
   -4.2811    0.8364   -0.6312 H   0  0  0  0  0  0  0  0  0  0  0  0
   -3.2510    4.3924    1.5557 H   0  0  0  0  0  0  0  0  0  0  0  0
   -5.5032    3.4728    1.7127 H   0  0  0  0  0  0  0  0  0  0  0  0
   -5.9515    1.9650    0.8476 H   0  0  0  0  0  0  0  0  0  0  0  0
   -7.2009    5.0071    1.1607 H   0  0  0  0  0  0  0  0  0  0  0  0
   -7.8225    5.4238   -0.4629 H   0  0  0  0  0  0  0  0  0  0  0  0
   -8.2432    2.7795    1.0397 H   0  0  0  0  0  0  0  0  0  0  0  0
  -11.3946    5.6318    0.6104 H   0  0  0  0  0  0  0  0  0  0  0  0
  -10.2106    5.5419   -0.7395 H   0  0  0  0  0  0  0  0  0  0  0  0
   -9.1185    3.5963   -1.7685 H   0  0  0  0  0  0  0  0  0  0  0  0
   -7.9082    0.7573    0.3473 H   0  0  0  0  0  0  0  0  0  0  0  0
  -10.8594   -0.1543    0.2924 H   0  0  0  0  0  0  0  0  0  0  0  0
  -10.2766    1.2829    1.1970 H   0  0  0  0  0  0  0  0  0  0  0  0
   -9.6573   -0.3209    1.6442 H   0  0  0  0  0  0  0  0  0  0  0  0
   -7.7684   -0.7260   -1.6791 H   0  0  0  0  0  0  0  0  0  0  0  0
   -9.8364   -2.5795    1.1679 H   0  0  0  0  0  0  0  0  0  0  0  0
   -8.6004   -4.7145   -0.6613 H   0  0  0  0  0  0  0  0  0  0  0  0
  -10.3003   -4.5453   -0.1080 H   0  0  0  0  0  0  0  0  0  0  0  0
   -9.0281   -4.9673    1.0833 H   0  0  0  0  0  0  0  0  0  0  0  0
   -7.7102   -1.7499    1.7379 H   0  0  0  0  0  0  0  0  0  0  0  0
   -6.3573   -5.0780   -0.1264 H   0  0  0  0  0  0  0  0  0  0  0  0
   -5.1654   -3.5658   -1.8446 H   0  0  0  0  0  0  0  0  0  0  0  0
   -5.7532   -2.1592   -0.8614 H   0  0  0  0  0  0  0  0  0  0  0  0
   -6.9122   -3.3084   -1.6149 H   0  0  0  0  0  0  0  0  0  0  0  0
   -4.3118   -5.3597    0.8653 H   0  0  0  0  0  0  0  0  0  0  0  0
   -3.5951   -1.7611   -0.3889 H   0  0  0  0  0  0  0  0  0  0  0  0
   -1.0865   -2.3253    1.2430 H   0  0  0  0  0  0  0  0  0  0  0  0
   -2.1090   -0.8789    1.1941 H   0  0  0  0  0  0  0  0  0  0  0  0
   -1.2528    0.6527   -2.3461 H   0  0  0  0  0  0  0  0  0  0  0  0
   -2.6321   -0.3599   -1.8746 H   0  0  0  0  0  0  0  0  0  0  0  0
   -2.8237   -3.0004   -2.1307 H   0  0  0  0  0  0  0  0  0  0  0  0
   -0.2878   -4.0731    0.1642 H   0  0  0  0  0  0  0  0  0  0  0  0
   -2.0164   -5.5590    1.3395 H   0  0  0  0  0  0  0  0  0  0  0  0
   -1.4401   -6.9427    0.3369 H   0  0  0  0  0  0  0  0  0  0  0  0
   -0.3583   -6.1326    1.5337 H   0  0  0  0  0  0  0  0  0  0  0  0
    0.1497   -5.8398   -2.1212 H   0  0  0  0  0  0  0  0  0  0  0  0
    1.5840   -4.8315    1.1787 H   0  0  0  0  0  0  0  0  0  0  0  0
    1.4924   -7.4359    1.4957 H   0  0  0  0  0  0  0  0  0  0  0  0
    2.5550   -6.5163    2.6071 H   0  0  0  0  0  0  0  0  0  0  0  0
    3.2615   -7.4238    1.2070 H   0  0  0  0  0  0  0  0  0  0  0  0
    3.6636   -4.2446   -0.3742 H   0  0  0  0  0  0  0  0  0  0  0  0
    6.5651   -6.1176    1.3668 H   0  0  0  0  0  0  0  0  0  0  0  0
    5.2169   -7.0607   -0.5443 H   0  0  0  0  0  0  0  0  0  0  0  0
    6.8689   -6.5423   -1.0306 H   0  0  0  0  0  0  0  0  0  0  0  0
    5.4535   -5.5075   -1.4476 H   0  0  0  0  0  0  0  0  0  0  0  0
    6.3937   -3.2909    0.4523 H   0  0  0  0  0  0  0  0  0  0  0  0
    9.3268   -2.5059    0.6058 H   0  0  0  0  0  0  0  0  0  0  0  0
   11.0093   -4.0255   -0.3134 H   0  0  0  0  0  0  0  0  0  0  0  0
   10.0749   -4.1971   -1.8550 H   0  0  0  0  0  0  0  0  0  0  0  0
   10.8304   -2.6223   -1.4222 H   0  0  0  0  0  0  0  0  0  0  0  0
    7.8112   -2.8330   -2.0307 H   0  0  0  0  0  0  0  0  0  0  0  0
    8.4209   -0.5777    0.9832 H   0  0  0  0  0  0  0  0  0  0  0  0
   10.4877   -0.5547   -0.3668 H   0  0  0  0  0  0  0  0  0  0  0  0
   10.2632    1.0445    0.3897 H   0  0  0  0  0  0  0  0  0  0  0  0
    9.8737    0.8064   -1.3667 H   0  0  0  0  0  0  0  0  0  0  0  0
    6.5578    0.9511    0.5395 H   0  0  0  0  0  0  0  0  0  0  0  0
    9.4157    3.1081   -1.0721 H   0  0  0  0  0  0  0  0  0  0  0  0
    7.8085    2.0634   -2.4749 H   0  0  0  0  0  0  0  0  0  0  0  0
    7.6711    3.8240   -2.8131 H   0  0  0  0  0  0  0  0  0  0  0  0
    6.4274    2.9984   -1.7969 H   0  0  0  0  0  0  0  0  0  0  0  0
    9.2155    5.2915   -0.4895 H   0  0  0  0  0  0  0  0  0  0  0  0
    5.8638    3.8566    0.2542 H   0  0  0  0  0  0  0  0  0  0  0  0
    6.1526    5.2626    2.3024 H   0  0  0  0  0  0  0  0  0  0  0  0
    4.4316    4.9747    1.8753 H   0  0  0  0  0  0  0  0  0  0  0  0
    5.1904    6.5767    1.5200 H   0  0  0  0  0  0  0  0  0  0  0  0
    5.0898    5.7703   -1.7260 H   0  0  0  0  0  0  0  0  0  0  0  0
  1  2  1  0
  2  3  2  0
  2  4  1  0
  4  5  1  0
  5  6  1  0
  6  7  1  0
  7  8  1  0
  8  9  1  0
  9 10  1  0
 10 11  2  0
 11 12  1  0
 12 13  2  0
 13 14  1  0
 13 15  1  0
 15 16  1  0
 16 17  1  0
 17 18  1  0
 18 19  1  0
 19 20  1  0
 19 21  2  0
 18 22  1  0
 22 23  1  0
 23 24  2  0
 23 25  1  0
 25 26  1  0
 25 27  1  0
 27 28  1  0
 28 29  2  0
 28 30  1  0
 30 31  1  0
 30 32  1  0
 32 33  1  0
 33 34  2  0
 33 35  1  0
 35 36  1  0
 35 37  1  0
 37 38  1  0
 38 39  2  0
 38 40  1  0
 40 41  1  0
 41 42  1  0
 42 43  1  0
 40 44  1  0
 44 45  1  0
 45 46  2  0
 45 47  1  0
 47 48  1  0
 47 49  1  0
 49 50  1  0
 50 51  2  0
 50 52  1  0
 52 53  1  0
 52 54  1  0
 54 55  1  0
 55 56  2  0
 55 57  1  0
 57 58  1  0
 57 59  1  0
 59 60  1  0
 60 61  2  0
 60 62  1  0
 62 63  1  0
 62 64  1  0
 64 65  1  0
 65 66  2  0
 65 67  1  0
 67 68  1  0
 67 69  1  0
 69 70  1  0
 70 71  2  0
 70 72  1  0
 72 73  1  0
 72 74  1  0
 74 75  1  0
 75 76  2  0
 75 77  1  0
 77 78  1  0
 77 79  1  0
 79 80  1  0
 80 81  2  0
 80  5  1  0
 14  9  2  0
 43 11  1  0
  1 82  1  0
  1 83  1  0
  1 84  1  0
  4 85  1  0
  5 86  1  1
  6 87  1  0
  6 88  1  0
  8 89  1  0
  8 90  1  0
 10 91  1  0
 12 92  1  0
 14 93  1  0
 15 94  1  0
 15 95  1  0
 17 96  1  0
 17 97  1  0
 18 98  1  1
 20 99  1  0
 20100  1  0
 22101  1  0
 25102  1  1
 26103  1  0
 26104  1  0
 26105  1  0
 27106  1  0
 30107  1  1
 31108  1  0
 31109  1  0
 31110  1  0
 32111  1  0
 35112  1  6
 36113  1  0
 36114  1  0
 36115  1  0
 37116  1  0
 40117  1  6
 41118  1  0
 41119  1  0
 43120  1  0
 43121  1  0
 44122  1  0
 47123  1  1
 48124  1  0
 48125  1  0
 48126  1  0
 49127  1  0
 52128  1  1
 53129  1  0
 53130  1  0
 53131  1  0
 54132  1  0
 57133  1  1
 58134  1  0
 58135  1  0
 58136  1  0
 59137  1  0
 62138  1  1
 63139  1  0
 63140  1  0
 63141  1  0
 64142  1  0
 67143  1  1
 68144  1  0
 68145  1  0
 68146  1  0
 69147  1  0
 72148  1  6
 73149  1  0
 73150  1  0
 73151  1  0
 74152  1  0
 77153  1  1
 78154  1  0
 78155  1  0
 78156  1  0
 79157  1  0
M  END
