
     RDKit          3D

217219  0  0  0  0  0  0  0  0999 V2000
    8.7423   -7.7682    0.2900 C   0  0  0  0  0  0  0  0  0  0  0  0
    7.3308   -7.4770   -0.1606 C   0  0  0  0  0  0  0  0  0  0  0  0
    6.6755   -8.4085   -0.6863 O   0  0  0  0  0  0  0  0  0  0  0  0
    6.7206   -6.1796   -0.0226 N   0  0  0  0  0  0  0  0  0  0  0  0
    7.4585   -4.9372    0.2410 C   0  0  2  0  0  0  0  0  0  0  0  0
    6.4976   -3.7112    0.3375 C   0  0  0  0  0  0  0  0  0  0  0  0
    6.3203   -2.7244   -1.2044 S   0  0  0  0  0  0  0  0  0  0  0  0
    5.0576   -3.7567   -2.0403 C   0  0  0  0  0  0  0  0  0  0  0  0
    3.6750   -3.3848   -1.5832 C   0  0  0  0  0  0  0  0  0  0  0  0
    2.8593   -4.3273   -0.9393 C   0  0  0  0  0  0  0  0  0  0  0  0
    1.5451   -3.9978   -0.5823 C   0  0  0  0  0  0  0  0  0  0  0  0
    1.0566   -2.7165   -0.8592 C   0  0  0  0  0  0  0  0  0  0  0  0
    1.8722   -1.7471   -1.4737 C   0  0  0  0  0  0  0  0  0  0  0  0
    3.1788   -2.0999   -1.8503 C   0  0  0  0  0  0  0  0  0  0  0  0
    1.2587   -0.4538   -1.9331 C   0  0  0  0  0  0  0  0  0  0  0  0
    2.4077    0.9816   -1.8813 S   0  0  0  0  0  0  0  0  0  0  0  0
    2.0335    1.5496   -0.1846 C   0  0  0  0  0  0  0  0  0  0  0  0
    2.1971    3.0865   -0.0972 C   0  0  2  0  0  0  0  0  0  0  0  0
    3.5602    3.5134   -0.4400 N   0  0  0  0  0  0  0  0  0  0  0  0
    4.6734    3.3208    0.4407 C   0  0  0  0  0  0  0  0  0  0  0  0
    4.9623    2.1648    0.8614 O   0  0  0  0  0  0  0  0  0  0  0  0
    5.4787    4.5241    0.8729 C   0  0  1  0  0  0  0  0  0  0  0  0
    6.2946    4.2297    2.1504 C   0  0  0  0  0  0  0  0  0  0  0  0
    6.3789    4.9614   -0.1940 N   0  0  0  0  0  0  0  0  0  0  0  0
    7.1359    6.1732   -0.0924 C   0  0  0  0  0  0  0  0  0  0  0  0
    6.7422    7.1067    0.6551 O   0  0  0  0  0  0  0  0  0  0  0  0
    8.4826    6.2675   -0.7589 C   0  0  1  0  0  0  0  0  0  0  0  0
    8.6607    7.5978   -1.4962 C   0  0  0  0  0  0  0  0  0  0  0  0
    9.5241    6.1189    0.2626 N   0  0  0  0  0  0  0  0  0  0  0  0
   10.4532    5.0233    0.3368 C   0  0  0  0  0  0  0  0  0  0  0  0
   10.9361    4.7142    1.4552 O   0  0  0  0  0  0  0  0  0  0  0  0
   10.8478    4.2348   -0.8921 C   0  0  1  0  0  0  0  0  0  0  0  0
   12.3514    3.9172   -0.9335 C   0  0  0  0  0  0  0  0  0  0  0  0
   10.0240    3.0251   -1.0494 N   0  0  0  0  0  0  0  0  0  0  0  0
    9.6725    2.1195    0.0134 C   0  0  0  0  0  0  0  0  0  0  0  0
    8.4525    1.8962    0.2266 O   0  0  0  0  0  0  0  0  0  0  0  0
   10.7089    1.3108    0.7455 C   0  0  1  0  0  0  0  0  0  0  0  0
   10.4042    1.2019    2.2392 C   0  0  0  0  0  0  0  0  0  0  0  0
   10.7815   -0.0216    0.1564 N   0  0  0  0  0  0  0  0  0  0  0  0
   11.6997   -0.2978   -0.9015 C   0  0  0  0  0  0  0  0  0  0  0  0
   11.3790   -0.0145   -2.0884 O   0  0  0  0  0  0  0  0  0  0  0  0
   12.9950   -0.9998   -0.6273 C   0  0  1  0  0  0  0  0  0  0  0  0
   13.8924   -0.1430    0.2689 C   0  0  0  0  0  0  0  0  0  0  0  0
   12.7329   -2.3093   -0.0125 N   0  0  0  0  0  0  0  0  0  0  0  0
   11.9309   -3.2769   -0.7007 C   0  0  0  0  0  0  0  0  0  0  0  0
   12.0251   -3.3831   -1.9465 O   0  0  0  0  0  0  0  0  0  0  0  0
   10.8799   -4.0882    0.0341 C   0  0  1  0  0  0  0  0  0  0  0  0
   10.8828   -3.8521    1.5432 C   0  0  0  0  0  0  0  0  0  0  0  0
    9.5671   -3.7248   -0.4998 N   0  0  0  0  0  0  0  0  0  0  0  0
    8.5715   -4.7180   -0.7645 C   0  0  0  0  0  0  0  0  0  0  0  0
    8.6000   -5.3504   -1.8576 O   0  0  0  0  0  0  0  0  0  0  0  0
    1.8392    3.6249    1.2702 C   0  0  0  0  0  0  0  0  0  0  0  0
    1.7955    2.8519    2.2589 O   0  0  0  0  0  0  0  0  0  0  0  0
    1.6606    5.0321    1.4908 N   0  0  0  0  0  0  0  0  0  0  0  0
    0.9559    5.9284    0.5564 C   0  0  2  0  0  0  0  0  0  0  0  0
    1.9310    6.5072   -0.4873 C   0  0  0  0  0  0  0  0  0  0  0  0
    0.3088    7.0578    1.3382 C   0  0  0  0  0  0  0  0  0  0  0  0
    1.0455    7.8486    1.9757 O   0  0  0  0  0  0  0  0  0  0  0  0
   -1.1138    7.2364    1.4095 N   0  0  0  0  0  0  0  0  0  0  0  0
   -2.0905    6.7032    0.4435 C   0  0  2  0  0  0  0  0  0  0  0  0
   -1.8869    7.3914   -0.9157 C   0  0  0  0  0  0  0  0  0  0  0  0
   -3.4914    6.8724    1.0028 C   0  0  0  0  0  0  0  0  0  0  0  0
   -3.7312    6.3973    2.1444 O   0  0  0  0  0  0  0  0  0  0  0  0
   -4.5518    7.5180    0.2713 N   0  0  0  0  0  0  0  0  0  0  0  0
   -5.8377    7.8953    0.8778 C   0  0  2  0  0  0  0  0  0  0  0  0
   -5.6207    8.9789    1.9534 C   0  0  0  0  0  0  0  0  0  0  0  0
   -6.5509    6.6729    1.3940 C   0  0  0  0  0  0  0  0  0  0  0  0
   -6.9051    6.5913    2.6037 O   0  0  0  0  0  0  0  0  0  0  0  0
   -6.7123    5.5468    0.5311 N   0  0  0  0  0  0  0  0  0  0  0  0
   -7.9390    5.2938   -0.2303 C   0  0  2  0  0  0  0  0  0  0  0  0
   -8.4063    6.5447   -0.9911 C   0  0  0  0  0  0  0  0  0  0  0  0
   -9.0077    4.7717    0.6774 C   0  0  0  0  0  0  0  0  0  0  0  0
   -9.5640    5.5305    1.5119 O   0  0  0  0  0  0  0  0  0  0  0  0
   -9.3847    3.3909    0.5975 N   0  0  0  0  0  0  0  0  0  0  0  0
  -10.6823    2.9556    0.0813 C   0  0  2  0  0  0  0  0  0  0  0  0
  -11.0783    3.7707   -1.1633 C   0  0  0  0  0  0  0  0  0  0  0  0
  -11.7380    3.0451    1.1633 C   0  0  0  0  0  0  0  0  0  0  0  0
  -11.9801    4.1698    1.6730 O   0  0  0  0  0  0  0  0  0  0  0  0
  -12.4493    1.8977    1.6687 N   0  0  0  0  0  0  0  0  0  0  0  0
  -12.6475    0.6358    0.9300 C   0  0  2  0  0  0  0  0  0  0  0  0
  -13.6615    0.8608   -0.1846 C   0  0  0  0  0  0  0  0  0  0  0  0
  -13.1127   -0.4895    1.8438 C   0  0  0  0  0  0  0  0  0  0  0  0
  -13.4736   -0.2240    3.0199 O   0  0  0  0  0  0  0  0  0  0  0  0
  -13.1861   -1.8558    1.4054 N   0  0  0  0  0  0  0  0  0  0  0  0
  -12.5607   -2.4039    0.1957 C   0  0  2  0  0  0  0  0  0  0  0  0
  -13.6370   -3.0368   -0.6982 C   0  0  0  0  0  0  0  0  0  0  0  0
  -11.4783   -3.3863    0.5814 C   0  0  0  0  0  0  0  0  0  0  0  0
  -10.7443   -3.1452    1.5761 O   0  0  0  0  0  0  0  0  0  0  0  0
  -11.2210   -4.5505   -0.2152 N   0  0  0  0  0  0  0  0  0  0  0  0
   -9.9154   -4.7520   -0.8455 C   0  0  2  0  0  0  0  0  0  0  0  0
   -9.6748   -3.6751   -1.9182 C   0  0  0  0  0  0  0  0  0  0  0  0
   -9.8427   -6.1262   -1.4644 C   0  0  0  0  0  0  0  0  0  0  0  0
  -10.6230   -6.3968   -2.4187 O   0  0  0  0  0  0  0  0  0  0  0  0
   -8.9120   -7.1384   -1.0338 N   0  0  0  0  0  0  0  0  0  0  0  0
   -8.4166   -7.3659    0.3369 C   0  0  2  0  0  0  0  0  0  0  0  0
   -9.4545   -7.0545    1.4242 C   0  0  0  0  0  0  0  0  0  0  0  0
   -7.1014   -6.6744    0.5622 C   0  0  0  0  0  0  0  0  0  0  0  0
   -6.9385   -5.4611    0.2495 O   0  0  0  0  0  0  0  0  0  0  0  0
   -6.0227   -7.3902    1.1537 N   0  0  0  0  0  0  0  0  0  0  0  0
   -4.9050   -7.8780    0.3392 C   0  0  2  0  0  0  0  0  0  0  0  0
   -5.3884   -8.9197   -0.6801 C   0  0  0  0  0  0  0  0  0  0  0  0
   -3.8361   -8.4596    1.2353 C   0  0  0  0  0  0  0  0  0  0  0  0
   -4.0915   -9.5598    1.8042 O   0  0  0  0  0  0  0  0  0  0  0  0
   -2.5968   -7.7924    1.5471 N   0  0  0  0  0  0  0  0  0  0  0  0
   -2.0413   -6.5592    0.9616 C   0  0  2  0  0  0  0  0  0  0  0  0
   -2.9802   -5.3792    1.1157 C   0  0  0  0  0  0  0  0  0  0  0  0
   -3.4982   -4.6490   -0.0074 N   0  0  0  0  0  0  0  0  0  0  0  0
   -3.2860   -4.9996    2.2758 O   0  0  0  0  0  0  0  0  0  0  0  0
   -1.5142   -6.8302   -0.4619 C   0  0  0  0  0  0  0  0  0  0  0  0
   -0.6869   -5.3948   -1.2688 S   0  0  0  0  0  0  0  0  0  0  0  0
    0.6162   -5.0463   -0.0366 C   0  0  0  0  0  0  0  0  0  0  0  0
    9.1721   -6.9324    0.8713 H   0  0  0  0  0  0  0  0  0  0  0  0
    8.7341   -8.6706    0.9398 H   0  0  0  0  0  0  0  0  0  0  0  0
    9.3769   -7.9700   -0.6046 H   0  0  0  0  0  0  0  0  0  0  0  0
    5.6762   -6.1560   -0.0796 H   0  0  0  0  0  0  0  0  0  0  0  0
    7.9296   -5.0416    1.2431 H   0  0  0  0  0  0  0  0  0  0  0  0
    5.5040   -4.0059    0.7292 H   0  0  0  0  0  0  0  0  0  0  0  0
    6.9175   -3.0059    1.0857 H   0  0  0  0  0  0  0  0  0  0  0  0
    5.2772   -4.8351   -1.8955 H   0  0  0  0  0  0  0  0  0  0  0  0
    5.1399   -3.5561   -3.1352 H   0  0  0  0  0  0  0  0  0  0  0  0
    3.2378   -5.3250   -0.7658 H   0  0  0  0  0  0  0  0  0  0  0  0
    0.0268   -2.4752   -0.6248 H   0  0  0  0  0  0  0  0  0  0  0  0
    3.7972   -1.3994   -2.3923 H   0  0  0  0  0  0  0  0  0  0  0  0
    0.9646   -0.5914   -2.9966 H   0  0  0  0  0  0  0  0  0  0  0  0
    0.3161   -0.2327   -1.3836 H   0  0  0  0  0  0  0  0  0  0  0  0
    2.7070    1.0322    0.5324 H   0  0  0  0  0  0  0  0  0  0  0  0
    0.9869    1.2966    0.0840 H   0  0  0  0  0  0  0  0  0  0  0  0
    1.4890    3.5168   -0.8386 H   0  0  0  0  0  0  0  0  0  0  0  0
    3.6760    4.2060   -1.2085 H   0  0  0  0  0  0  0  0  0  0  0  0
    4.7612    5.3435    1.1180 H   0  0  0  0  0  0  0  0  0  0  0  0
    6.8205    5.1399    2.4954 H   0  0  0  0  0  0  0  0  0  0  0  0
    7.0412    3.4362    1.9603 H   0  0  0  0  0  0  0  0  0  0  0  0
    5.6145    3.8990    2.9652 H   0  0  0  0  0  0  0  0  0  0  0  0
    6.3255    4.5053   -1.1416 H   0  0  0  0  0  0  0  0  0  0  0  0
    8.5482    5.4490   -1.5086 H   0  0  0  0  0  0  0  0  0  0  0  0
    7.8958    7.6966   -2.2950 H   0  0  0  0  0  0  0  0  0  0  0  0
    9.6662    7.6478   -1.9579 H   0  0  0  0  0  0  0  0  0  0  0  0
    8.5635    8.4533   -0.7952 H   0  0  0  0  0  0  0  0  0  0  0  0
    9.5087    6.7860    1.0749 H   0  0  0  0  0  0  0  0  0  0  0  0
   10.6776    4.8793   -1.7816 H   0  0  0  0  0  0  0  0  0  0  0  0
   12.5615    3.1449   -1.7061 H   0  0  0  0  0  0  0  0  0  0  0  0
   12.7440    3.5817    0.0460 H   0  0  0  0  0  0  0  0  0  0  0  0
   12.9100    4.8426   -1.2069 H   0  0  0  0  0  0  0  0  0  0  0  0
    9.4183    2.9890   -1.8948 H   0  0  0  0  0  0  0  0  0  0  0  0
   11.6992    1.7898    0.6538 H   0  0  0  0  0  0  0  0  0  0  0  0
   10.5889    2.1789    2.7355 H   0  0  0  0  0  0  0  0  0  0  0  0
   11.0603    0.4399    2.7079 H   0  0  0  0  0  0  0  0  0  0  0  0
    9.3500    0.9047    2.4112 H   0  0  0  0  0  0  0  0  0  0  0  0
    9.9964   -0.6891    0.3160 H   0  0  0  0  0  0  0  0  0  0  0  0
   13.5344   -1.1587   -1.5851 H   0  0  0  0  0  0  0  0  0  0  0  0
   13.4422   -0.0167    1.2802 H   0  0  0  0  0  0  0  0  0  0  0  0
   14.0498    0.8615   -0.1842 H   0  0  0  0  0  0  0  0  0  0  0  0
   14.8898   -0.6244    0.3913 H   0  0  0  0  0  0  0  0  0  0  0  0
   13.4261   -2.6807    0.6867 H   0  0  0  0  0  0  0  0  0  0  0  0
   11.0876   -5.1617   -0.1597 H   0  0  0  0  0  0  0  0  0  0  0  0
   11.8785   -4.0629    1.9807 H   0  0  0  0  0  0  0  0  0  0  0  0
   10.1467   -4.5275    2.0259 H   0  0  0  0  0  0  0  0  0  0  0  0
   10.5904   -2.7969    1.7662 H   0  0  0  0  0  0  0  0  0  0  0  0
    9.3619   -2.7328   -0.7739 H   0  0  0  0  0  0  0  0  0  0  0  0
    1.8609    5.3778    2.4554 H   0  0  0  0  0  0  0  0  0  0  0  0
    0.1920    5.3485    0.0191 H   0  0  0  0  0  0  0  0  0  0  0  0
    1.5188    7.4352   -0.9458 H   0  0  0  0  0  0  0  0  0  0  0  0
    2.9114    6.7517   -0.0207 H   0  0  0  0  0  0  0  0  0  0  0  0
    2.0761    5.7855   -1.3166 H   0  0  0  0  0  0  0  0  0  0  0  0
   -1.4713    7.8907    2.1587 H   0  0  0  0  0  0  0  0  0  0  0  0
   -1.9451    5.6089    0.3173 H   0  0  0  0  0  0  0  0  0  0  0  0
   -2.1012    8.4762   -0.8424 H   0  0  0  0  0  0  0  0  0  0  0  0
   -0.8443    7.2660   -1.2540 H   0  0  0  0  0  0  0  0  0  0  0  0
   -2.5319    6.9265   -1.6898 H   0  0  0  0  0  0  0  0  0  0  0  0
   -4.4650    7.6980   -0.7568 H   0  0  0  0  0  0  0  0  0  0  0  0
   -6.4771    8.3526    0.0978 H   0  0  0  0  0  0  0  0  0  0  0  0
   -5.0390    8.5904    2.8092 H   0  0  0  0  0  0  0  0  0  0  0  0
   -5.0820    9.8434    1.5109 H   0  0  0  0  0  0  0  0  0  0  0  0
   -6.6056    9.3409    2.3274 H   0  0  0  0  0  0  0  0  0  0  0  0
   -6.0851    4.7266    0.6997 H   0  0  0  0  0  0  0  0  0  0  0  0
   -7.7090    4.5215   -0.9941 H   0  0  0  0  0  0  0  0  0  0  0  0
   -8.7063    7.3508   -0.2883 H   0  0  0  0  0  0  0  0  0  0  0  0
   -7.5957    6.9151   -1.6531 H   0  0  0  0  0  0  0  0  0  0  0  0
   -9.2842    6.2961   -1.6261 H   0  0  0  0  0  0  0  0  0  0  0  0
   -8.8495    2.7245    1.2070 H   0  0  0  0  0  0  0  0  0  0  0  0
  -10.5525    1.9170   -0.2689 H   0  0  0  0  0  0  0  0  0  0  0  0
  -12.0251    3.3903   -1.5944 H   0  0  0  0  0  0  0  0  0  0  0  0
  -11.2172    4.8401   -0.9026 H   0  0  0  0  0  0  0  0  0  0  0  0
  -10.2894    3.6843   -1.9330 H   0  0  0  0  0  0  0  0  0  0  0  0
  -13.0841    2.0896    2.4814 H   0  0  0  0  0  0  0  0  0  0  0  0
  -11.6745    0.3190    0.5154 H   0  0  0  0  0  0  0  0  0  0  0  0
  -14.6807    1.0168    0.2366 H   0  0  0  0  0  0  0  0  0  0  0  0
  -13.6890    0.0011   -0.8817 H   0  0  0  0  0  0  0  0  0  0  0  0
  -13.3992    1.7587   -0.7838 H   0  0  0  0  0  0  0  0  0  0  0  0
  -13.6728   -2.5316    2.0375 H   0  0  0  0  0  0  0  0  0  0  0  0
  -12.0609   -1.6190   -0.3965 H   0  0  0  0  0  0  0  0  0  0  0  0
  -13.1843   -3.4502   -1.6254 H   0  0  0  0  0  0  0  0  0  0  0  0
  -14.3806   -2.2716   -0.9934 H   0  0  0  0  0  0  0  0  0  0  0  0
  -14.1643   -3.8511   -0.1524 H   0  0  0  0  0  0  0  0  0  0  0  0
  -11.9899   -5.2472   -0.3507 H   0  0  0  0  0  0  0  0  0  0  0  0
   -9.1277   -4.6292   -0.0859 H   0  0  0  0  0  0  0  0  0  0  0  0
   -9.5641   -2.6841   -1.4289 H   0  0  0  0  0  0  0  0  0  0  0  0
   -8.7411   -3.8942   -2.4737 H   0  0  0  0  0  0  0  0  0  0  0  0
  -10.5250   -3.6273   -2.6240 H   0  0  0  0  0  0  0  0  0  0  0  0
   -8.7376   -7.9119   -1.7151 H   0  0  0  0  0  0  0  0  0  0  0  0
   -8.2159   -8.4531    0.4215 H   0  0  0  0  0  0  0  0  0  0  0  0
   -9.5678   -5.9717    1.6079 H   0  0  0  0  0  0  0  0  0  0  0  0
   -9.1345   -7.5196    2.3844 H   0  0  0  0  0  0  0  0  0  0  0  0
  -10.4342   -7.4826    1.1364 H   0  0  0  0  0  0  0  0  0  0  0  0
   -5.8578   -7.2424    2.1871 H   0  0  0  0  0  0  0  0  0  0  0  0
   -4.4937   -7.0292   -0.2425 H   0  0  0  0  0  0  0  0  0  0  0  0
   -4.5241   -9.3112   -1.2596 H   0  0  0  0  0  0  0  0  0  0  0  0
   -6.0965   -8.4507   -1.4040 H   0  0  0  0  0  0  0  0  0  0  0  0
   -5.9097   -9.7670   -0.1755 H   0  0  0  0  0  0  0  0  0  0  0  0
   -2.0069   -8.2629    2.2733 H   0  0  0  0  0  0  0  0  0  0  0  0
   -1.1588   -6.3109    1.5792 H   0  0  0  0  0  0  0  0  0  0  0  0
   -3.9120   -3.7011    0.1385 H   0  0  0  0  0  0  0  0  0  0  0  0
   -3.4873   -5.0507   -0.9626 H   0  0  0  0  0  0  0  0  0  0  0  0
   -2.3554   -7.1366   -1.1168 H   0  0  0  0  0  0  0  0  0  0  0  0
   -0.7951   -7.6790   -0.4379 H   0  0  0  0  0  0  0  0  0  0  0  0
    0.1520   -4.6447    0.8838 H   0  0  0  0  0  0  0  0  0  0  0  0
    1.1522   -5.9824    0.2092 H   0  0  0  0  0  0  0  0  0  0  0  0
  1  2  1  0
  2  3  2  0
  2  4  1  0
  4  5  1  0
  5  6  1  0
  6  7  1  0
  7  8  1  0
  8  9  1  0
  9 10  2  0
 10 11  1  0
 11 12  2  0
 12 13  1  0
 13 14  2  0
 13 15  1  0
 15 16  1  0
 16 17  1  0
 17 18  1  0
 18 19  1  0
 19 20  1  0
 20 21  2  0
 20 22  1  0
 22 23  1  0
 22 24  1  0
 24 25  1  0
 25 26  2  0
 25 27  1  0
 27 28  1  0
 27 29  1  0
 29 30  1  0
 30 31  2  0
 30 32  1  0
 32 33  1  0
 32 34  1  0
 34 35  1  0
 35 36  2  0
 35 37  1  0
 37 38  1  0
 37 39  1  0
 39 40  1  0
 40 41  2  0
 40 42  1  0
 42 43  1  0
 42 44  1  0
 44 45  1  0
 45 46  2  0
 45 47  1  0
 47 48  1  0
 47 49  1  0
 49 50  1  0
 50 51  2  0
 18 52  1  0
 52 53  2  0
 52 54  1  0
 54 55  1  0
 55 56  1  0
 55 57  1  0
 57 58  2  0
 57 59  1  0
 59 60  1  0
 60 61  1  0
 60 62  1  0
 62 63  2  0
 62 64  1  0
 64 65  1  0
 65 66  1  0
 65 67  1  0
 67 68  2  0
 67 69  1  0
 69 70  1  0
 70 71  1  0
 70 72  1  0
 72 73  2  0
 72 74  1  0
 74 75  1  0
 75 76  1  0
 75 77  1  0
 77 78  2  0
 77 79  1  0
 79 80  1  0
 80 81  1  0
 80 82  1  0
 82 83  2  0
 82 84  1  0
 84 85  1  0
 85 86  1  0
 85 87  1  0
 87 88  2  0
 87 89  1  0
 89 90  1  0
 90 91  1  0
 90 92  1  0
 92 93  2  0
 92 94  1  0
 94 95  1  0
 95 96  1  0
 95 97  1  0
 97 98  2  0
 97 99  1  0
 99100  1  0
100101  1  0
100102  1  0
102103  2  0
102104  1  0
104105  1  0
105106  1  0
106107  1  0
106108  2  0
105109  1  0
109110  1  0
110111  1  0
 50  5  1  0
 14  9  1  0
111 11  1  0
  1112  1  0
  1113  1  0
  1114  1  0
  4115  1  0
  5116  1  1
  6117  1  0
  6118  1  0
  8119  1  0
  8120  1  0
 10121  1  0
 12122  1  0
 14123  1  0
 15124  1  0
 15125  1  0
 17126  1  0
 17127  1  0
 18128  1  6
 19129  1  0
 22130  1  1
 23131  1  0
 23132  1  0
 23133  1  0
 24134  1  0
 27135  1  6
 28136  1  0
 28137  1  0
 28138  1  0
 29139  1  0
 32140  1  6
 33141  1  0
 33142  1  0
 33143  1  0
 34144  1  0
 37145  1  1
 38146  1  0
 38147  1  0
 38148  1  0
 39149  1  0
 42150  1  6
 43151  1  0
 43152  1  0
 43153  1  0
 44154  1  0
 47155  1  1
 48156  1  0
 48157  1  0
 48158  1  0
 49159  1  0
 54160  1  0
 55161  1  6
 56162  1  0
 56163  1  0
 56164  1  0
 59165  1  0
 60166  1  6
 61167  1  0
 61168  1  0
 61169  1  0
 64170  1  0
 65171  1  6
 66172  1  0
 66173  1  0
 66174  1  0
 69175  1  0
 70176  1  6
 71177  1  0
 71178  1  0
 71179  1  0
 74180  1  0
 75181  1  6
 76182  1  0
 76183  1  0
 76184  1  0
 79185  1  0
 80186  1  6
 81187  1  0
 81188  1  0
 81189  1  0
 84190  1  0
 85191  1  6
 86192  1  0
 86193  1  0
 86194  1  0
 89195  1  0
 90196  1  1
 91197  1  0
 91198  1  0
 91199  1  0
 94200  1  0
 95201  1  6
 96202  1  0
 96203  1  0
 96204  1  0
 99205  1  0
100206  1  6
101207  1  0
101208  1  0
101209  1  0
104210  1  0
105211  1  1
107212  1  0
107213  1  0
109214  1  0
109215  1  0
111216  1  0
111217  1  0
M  END
