
     RDKit          3D

157159  0  0  0  0  0  0  0  0999 V2000
    2.3200    9.6486   -0.6977 C   0  0  0  0  0  0  0  0  0  0  0  0
    2.4600    8.6947   -1.8462 C   0  0  0  0  0  0  0  0  0  0  0  0
    2.3608    9.1430   -3.0247 O   0  0  0  0  0  0  0  0  0  0  0  0
    2.7788    7.3086   -1.6579 N   0  0  0  0  0  0  0  0  0  0  0  0
    3.0664    6.6850   -0.3514 C   0  0  1  0  0  0  0  0  0  0  0  0
    1.7671    6.2574    0.3518 C   0  0  0  0  0  0  0  0  0  0  0  0
    0.6793    5.2581   -0.7264 S   0  0  0  0  0  0  0  0  0  0  0  0
   -0.6831    5.1849    0.4826 C   0  0  0  0  0  0  0  0  0  0  0  0
   -1.5790    4.0202    0.1916 C   0  0  0  0  0  0  0  0  0  0  0  0
   -2.5589    4.1051   -0.8082 C   0  0  0  0  0  0  0  0  0  0  0  0
   -3.4819    3.0648   -0.9880 C   0  0  0  0  0  0  0  0  0  0  0  0
   -3.3825    1.9102   -0.1992 C   0  0  0  0  0  0  0  0  0  0  0  0
   -2.3758    1.7923    0.7715 C   0  0  0  0  0  0  0  0  0  0  0  0
   -1.4796    2.8508    0.9632 C   0  0  0  0  0  0  0  0  0  0  0  0
   -2.2518    0.5478    1.6069 C   0  0  0  0  0  0  0  0  0  0  0  0
   -1.2933   -0.7281    0.7104 S   0  0  0  0  0  0  0  0  0  0  0  0
   -2.7110   -1.4629   -0.1949 C   0  0  0  0  0  0  0  0  0  0  0  0
   -2.7329   -2.9923   -0.0696 C   0  0  1  0  0  0  0  0  0  0  0  0
   -2.5425   -3.3779    1.3341 N   0  0  0  0  0  0  0  0  0  0  0  0
   -1.6274   -4.3756    1.8315 C   0  0  0  0  0  0  0  0  0  0  0  0
   -1.4639   -4.4614    3.0809 O   0  0  0  0  0  0  0  0  0  0  0  0
   -0.8551   -5.3345    0.9543 C   0  0  1  0  0  0  0  0  0  0  0  0
   -1.7861   -6.1810    0.0691 C   0  0  0  0  0  0  0  0  0  0  0  0
    0.2020   -4.6249    0.2203 N   0  0  0  0  0  0  0  0  0  0  0  0
    0.8130   -5.1630   -0.9631 C   0  0  0  0  0  0  0  0  0  0  0  0
    0.1309   -5.2873   -2.0196 O   0  0  0  0  0  0  0  0  0  0  0  0
    2.2802   -5.5028   -0.9676 C   0  0  1  0  0  0  0  0  0  0  0  0
    2.5291   -6.8304   -1.6941 C   0  0  0  0  0  0  0  0  0  0  0  0
    3.0394   -4.4270   -1.6139 N   0  0  0  0  0  0  0  0  0  0  0  0
    4.4433   -4.2489   -1.3718 C   0  0  0  0  0  0  0  0  0  0  0  0
    5.2554   -4.5059   -2.3022 O   0  0  0  0  0  0  0  0  0  0  0  0
    4.9821   -3.7020   -0.0728 C   0  0  1  0  0  0  0  0  0  0  0  0
    3.9114   -3.1054    0.8456 C   0  0  0  0  0  0  0  0  0  0  0  0
    5.7350   -4.7418    0.6335 N   0  0  0  0  0  0  0  0  0  0  0  0
    6.8954   -4.4162    1.4115 C   0  0  0  0  0  0  0  0  0  0  0  0
    6.8014   -4.3983    2.6667 O   0  0  0  0  0  0  0  0  0  0  0  0
    8.2501   -4.2178    0.7723 C   0  0  1  0  0  0  0  0  0  0  0  0
    8.9185   -5.5708    0.5158 C   0  0  0  0  0  0  0  0  0  0  0  0
    8.1368   -3.4708   -0.4887 N   0  0  0  0  0  0  0  0  0  0  0  0
    8.3293   -2.0529   -0.6292 C   0  0  0  0  0  0  0  0  0  0  0  0
    8.2285   -1.5584   -1.7853 O   0  0  0  0  0  0  0  0  0  0  0  0
    8.7399   -1.1622    0.5285 C   0  0  1  0  0  0  0  0  0  0  0  0
   10.2652   -1.1613    0.7088 C   0  0  0  0  0  0  0  0  0  0  0  0
    8.2267    0.2112    0.3873 N   0  0  0  0  0  0  0  0  0  0  0  0
    8.7636    1.2023   -0.5065 C   0  0  0  0  0  0  0  0  0  0  0  0
    9.4213    0.8570   -1.5247 O   0  0  0  0  0  0  0  0  0  0  0  0
    8.6418    2.6694   -0.1760 C   0  0  1  0  0  0  0  0  0  0  0  0
    9.9857    3.1802    0.3496 C   0  0  0  0  0  0  0  0  0  0  0  0
    8.2511    3.4418   -1.3676 N   0  0  0  0  0  0  0  0  0  0  0  0
    7.5131    4.6787   -1.3192 C   0  0  0  0  0  0  0  0  0  0  0  0
    7.7214    5.5419   -2.2128 O   0  0  0  0  0  0  0  0  0  0  0  0
    6.4997    4.9762   -0.2322 C   0  0  1  0  0  0  0  0  0  0  0  0
    7.1625    5.6886    0.9503 C   0  0  0  0  0  0  0  0  0  0  0  0
    5.4271    5.8295   -0.7567 N   0  0  0  0  0  0  0  0  0  0  0  0
    4.0405    5.5400   -0.5177 C   0  0  0  0  0  0  0  0  0  0  0  0
    3.6665    4.3427   -0.3913 O   0  0  0  0  0  0  0  0  0  0  0  0
   -4.0694   -3.5082   -0.5720 C   0  0  0  0  0  0  0  0  0  0  0  0
   -4.4456   -3.2246   -1.7454 O   0  0  0  0  0  0  0  0  0  0  0  0
   -4.9378   -4.2701    0.2823 N   0  0  0  0  0  0  0  0  0  0  0  0
   -6.3608   -3.9379    0.4258 C   0  0  2  0  0  0  0  0  0  0  0  0
   -6.8035   -4.2277    1.8691 C   0  0  0  0  0  0  0  0  0  0  0  0
   -7.1784   -4.7391   -0.5600 C   0  0  0  0  0  0  0  0  0  0  0  0
   -6.8340   -5.9251   -0.8066 O   0  0  0  0  0  0  0  0  0  0  0  0
   -8.3567   -4.2153   -1.1965 N   0  0  0  0  0  0  0  0  0  0  0  0
   -9.1675   -3.1125   -0.6651 C   0  0  2  0  0  0  0  0  0  0  0  0
  -10.6340   -3.2983   -1.0634 C   0  0  0  0  0  0  0  0  0  0  0  0
   -8.6641   -1.7806   -1.1536 C   0  0  0  0  0  0  0  0  0  0  0  0
   -7.7675   -1.7237   -2.0426 O   0  0  0  0  0  0  0  0  0  0  0  0
   -9.2897   -0.5670   -0.7223 N   0  0  0  0  0  0  0  0  0  0  0  0
   -8.9547    0.0735    0.5560 C   0  0  2  0  0  0  0  0  0  0  0  0
   -9.6588   -0.6141    1.7297 C   0  0  0  0  0  0  0  0  0  0  0  0
   -9.3402    1.5292    0.5177 C   0  0  0  0  0  0  0  0  0  0  0  0
  -10.5409    1.8634    0.3407 O   0  0  0  0  0  0  0  0  0  0  0  0
   -8.3437    2.5364    0.6751 N   0  0  0  0  0  0  0  0  0  0  0  0
   -7.7896    3.2185   -0.4937 C   0  0  1  0  0  0  0  0  0  0  0  0
   -8.7945    4.2031   -1.0336 C   0  0  0  0  0  0  0  0  0  0  0  0
   -9.3035    5.2574   -0.2107 N   0  0  0  0  0  0  0  0  0  0  0  0
   -9.2025    4.0864   -2.2224 O   0  0  0  0  0  0  0  0  0  0  0  0
   -6.4702    3.9142   -0.1245 C   0  0  0  0  0  0  0  0  0  0  0  0
   -5.6612    4.6347   -1.6052 S   0  0  0  0  0  0  0  0  0  0  0  0
   -4.5924    3.2009   -1.9927 C   0  0  0  0  0  0  0  0  0  0  0  0
    1.5172    9.3116   -0.0132 H   0  0  0  0  0  0  0  0  0  0  0  0
    2.0530   10.6626   -1.0681 H   0  0  0  0  0  0  0  0  0  0  0  0
    3.2789    9.7189   -0.1502 H   0  0  0  0  0  0  0  0  0  0  0  0
    2.8157    6.6999   -2.5073 H   0  0  0  0  0  0  0  0  0  0  0  0
    3.5684    7.4205    0.3078 H   0  0  0  0  0  0  0  0  0  0  0  0
    2.0256    5.6681    1.2619 H   0  0  0  0  0  0  0  0  0  0  0  0
    1.2095    7.1586    0.6904 H   0  0  0  0  0  0  0  0  0  0  0  0
   -1.2637    6.1301    0.4232 H   0  0  0  0  0  0  0  0  0  0  0  0
   -0.2838    5.0955    1.5154 H   0  0  0  0  0  0  0  0  0  0  0  0
   -2.6351    5.0028   -1.4152 H   0  0  0  0  0  0  0  0  0  0  0  0
   -4.1122    1.1221   -0.3149 H   0  0  0  0  0  0  0  0  0  0  0  0
   -0.7286    2.7807    1.7366 H   0  0  0  0  0  0  0  0  0  0  0  0
   -3.2485    0.1767    1.9249 H   0  0  0  0  0  0  0  0  0  0  0  0
   -1.7071    0.7712    2.5454 H   0  0  0  0  0  0  0  0  0  0  0  0
   -3.6766   -1.0655    0.1736 H   0  0  0  0  0  0  0  0  0  0  0  0
   -2.6197   -1.1762   -1.2641 H   0  0  0  0  0  0  0  0  0  0  0  0
   -1.9221   -3.3996   -0.7008 H   0  0  0  0  0  0  0  0  0  0  0  0
   -3.1419   -2.8933    2.0445 H   0  0  0  0  0  0  0  0  0  0  0  0
   -0.3486   -6.0655    1.6201 H   0  0  0  0  0  0  0  0  0  0  0  0
   -1.2188   -7.0466   -0.3461 H   0  0  0  0  0  0  0  0  0  0  0  0
   -2.6135   -6.5975    0.6817 H   0  0  0  0  0  0  0  0  0  0  0  0
   -2.2176   -5.6232   -0.7840 H   0  0  0  0  0  0  0  0  0  0  0  0
    0.8163   -4.0287    0.8113 H   0  0  0  0  0  0  0  0  0  0  0  0
    2.6251   -5.6358    0.0799 H   0  0  0  0  0  0  0  0  0  0  0  0
    2.2621   -6.7407   -2.7688 H   0  0  0  0  0  0  0  0  0  0  0  0
    1.9112   -7.6327   -1.2316 H   0  0  0  0  0  0  0  0  0  0  0  0
    3.6009   -7.1147   -1.6149 H   0  0  0  0  0  0  0  0  0  0  0  0
    2.6968   -4.1171   -2.5508 H   0  0  0  0  0  0  0  0  0  0  0  0
    5.6611   -2.8615   -0.3341 H   0  0  0  0  0  0  0  0  0  0  0  0
    3.3010   -3.8975    1.3245 H   0  0  0  0  0  0  0  0  0  0  0  0
    4.4024   -2.5234    1.6561 H   0  0  0  0  0  0  0  0  0  0  0  0
    3.2457   -2.4166    0.2768 H   0  0  0  0  0  0  0  0  0  0  0  0
    5.2119   -5.6049    0.9030 H   0  0  0  0  0  0  0  0  0  0  0  0
    8.9042   -3.6832    1.4900 H   0  0  0  0  0  0  0  0  0  0  0  0
    8.3071   -6.1908   -0.1818 H   0  0  0  0  0  0  0  0  0  0  0  0
    9.9225   -5.4080    0.0594 H   0  0  0  0  0  0  0  0  0  0  0  0
    9.0526   -6.1231    1.4696 H   0  0  0  0  0  0  0  0  0  0  0  0
    7.8122   -3.9921   -1.3329 H   0  0  0  0  0  0  0  0  0  0  0  0
    8.2914   -1.5725    1.4541 H   0  0  0  0  0  0  0  0  0  0  0  0
   10.5505   -0.4311    1.4938 H   0  0  0  0  0  0  0  0  0  0  0  0
   10.6207   -2.1653    1.0200 H   0  0  0  0  0  0  0  0  0  0  0  0
   10.7803   -0.8922   -0.2364 H   0  0  0  0  0  0  0  0  0  0  0  0
    7.5329    0.5277    1.1034 H   0  0  0  0  0  0  0  0  0  0  0  0
    7.8844    2.7907    0.6243 H   0  0  0  0  0  0  0  0  0  0  0  0
   10.2164    2.7044    1.3254 H   0  0  0  0  0  0  0  0  0  0  0  0
    9.9541    4.2805    0.4863 H   0  0  0  0  0  0  0  0  0  0  0  0
   10.7980    2.9452   -0.3729 H   0  0  0  0  0  0  0  0  0  0  0  0
    8.7671    3.2464   -2.2530 H   0  0  0  0  0  0  0  0  0  0  0  0
    6.0771    4.0195    0.1319 H   0  0  0  0  0  0  0  0  0  0  0  0
    7.9831    5.0857    1.3869 H   0  0  0  0  0  0  0  0  0  0  0  0
    7.5604    6.6813    0.6436 H   0  0  0  0  0  0  0  0  0  0  0  0
    6.4059    5.8440    1.7529 H   0  0  0  0  0  0  0  0  0  0  0  0
    5.6789    6.7947   -1.0806 H   0  0  0  0  0  0  0  0  0  0  0  0
   -4.4966   -4.9117    0.9784 H   0  0  0  0  0  0  0  0  0  0  0  0
   -6.5004   -2.8479    0.2458 H   0  0  0  0  0  0  0  0  0  0  0  0
   -7.8057   -3.7939    2.0733 H   0  0  0  0  0  0  0  0  0  0  0  0
   -6.0886   -3.7609    2.5831 H   0  0  0  0  0  0  0  0  0  0  0  0
   -6.8429   -5.3268    2.0626 H   0  0  0  0  0  0  0  0  0  0  0  0
   -8.7250   -4.7537   -2.0171 H   0  0  0  0  0  0  0  0  0  0  0  0
   -9.1301   -3.1473    0.4308 H   0  0  0  0  0  0  0  0  0  0  0  0
  -11.0029   -4.2800   -0.7041 H   0  0  0  0  0  0  0  0  0  0  0  0
  -11.2664   -2.5102   -0.5979 H   0  0  0  0  0  0  0  0  0  0  0  0
  -10.7551   -3.2526   -2.1653 H   0  0  0  0  0  0  0  0  0  0  0  0
   -9.7624    0.0010   -1.4642 H   0  0  0  0  0  0  0  0  0  0  0  0
   -7.8547    0.0052    0.7159 H   0  0  0  0  0  0  0  0  0  0  0  0
  -10.7232   -0.8297    1.4797 H   0  0  0  0  0  0  0  0  0  0  0  0
   -9.6203    0.0255    2.6386 H   0  0  0  0  0  0  0  0  0  0  0  0
   -9.1400   -1.5614    1.9811 H   0  0  0  0  0  0  0  0  0  0  0  0
   -8.1781    2.9260    1.6329 H   0  0  0  0  0  0  0  0  0  0  0  0
   -7.5657    2.4532   -1.2737 H   0  0  0  0  0  0  0  0  0  0  0  0
   -8.9825    5.3698    0.7772 H   0  0  0  0  0  0  0  0  0  0  0  0
   -9.9816    5.9451   -0.6073 H   0  0  0  0  0  0  0  0  0  0  0  0
   -6.6613    4.7380    0.5949 H   0  0  0  0  0  0  0  0  0  0  0  0
   -5.8039    3.1887    0.3863 H   0  0  0  0  0  0  0  0  0  0  0  0
   -5.2107    2.2804   -2.0451 H   0  0  0  0  0  0  0  0  0  0  0  0
   -4.1412    3.3603   -2.9961 H   0  0  0  0  0  0  0  0  0  0  0  0
  1  2  1  0
  2  3  2  0
  2  4  1  0
  4  5  1  0
  5  6  1  0
  6  7  1  0
  7  8  1  0
  8  9  1  0
  9 10  1  0
 10 11  2  0
 11 12  1  0
 12 13  2  0
 13 14  1  0
 13 15  1  0
 15 16  1  0
 16 17  1  0
 17 18  1  0
 18 19  1  0
 19 20  1  0
 20 21  2  0
 20 22  1  0
 22 23  1  0
 22 24  1  0
 24 25  1  0
 25 26  2  0
 25 27  1  0
 27 28  1  0
 27 29  1  0
 29 30  1  0
 30 31  2  0
 30 32  1  0
 32 33  1  0
 32 34  1  0
 34 35  1  0
 35 36  2  0
 35 37  1  0
 37 38  1  0
 37 39  1  0
 39 40  1  0
 40 41  2  0
 40 42  1  0
 42 43  1  0
 42 44  1  0
 44 45  1  0
 45 46  2  0
 45 47  1  0
 47 48  1  0
 47 49  1  0
 49 50  1  0
 50 51  2  0
 50 52  1  0
 52 53  1  0
 52 54  1  0
 54 55  1  0
 55 56  2  0
 18 57  1  0
 57 58  2  0
 57 59  1  0
 59 60  1  0
 60 61  1  0
 60 62  1  0
 62 63  2  0
 62 64  1  0
 64 65  1  0
 65 66  1  0
 65 67  1  0
 67 68  2  0
 67 69  1  0
 69 70  1  0
 70 71  1  0
 70 72  1  0
 72 73  2  0
 72 74  1  0
 74 75  1  0
 75 76  1  0
 76 77  1  0
 76 78  2  0
 75 79  1  0
 79 80  1  0
 80 81  1  0
 55  5  1  0
 14  9  2  0
 81 11  1  0
  1 82  1  0
  1 83  1  0
  1 84  1  0
  4 85  1  0
  5 86  1  1
  6 87  1  0
  6 88  1  0
  8 89  1  0
  8 90  1  0
 10 91  1  0
 12 92  1  0
 14 93  1  0
 15 94  1  0
 15 95  1  0
 17 96  1  0
 17 97  1  0
 18 98  1  6
 19 99  1  0
 22100  1  1
 23101  1  0
 23102  1  0
 23103  1  0
 24104  1  0
 27105  1  1
 28106  1  0
 28107  1  0
 28108  1  0
 29109  1  0
 32110  1  6
 33111  1  0
 33112  1  0
 33113  1  0
 34114  1  0
 37115  1  1
 38116  1  0
 38117  1  0
 38118  1  0
 39119  1  0
 42120  1  1
 43121  1  0
 43122  1  0
 43123  1  0
 44124  1  0
 47125  1  1
 48126  1  0
 48127  1  0
 48128  1  0
 49129  1  0
 52130  1  1
 53131  1  0
 53132  1  0
 53133  1  0
 54134  1  0
 59135  1  0
 60136  1  6
 61137  1  0
 61138  1  0
 61139  1  0
 64140  1  0
 65141  1  1
 66142  1  0
 66143  1  0
 66144  1  0
 69145  1  0
 70146  1  1
 71147  1  0
 71148  1  0
 71149  1  0
 74150  1  0
 75151  1  6
 77152  1  0
 77153  1  0
 79154  1  0
 79155  1  0
 81156  1  0
 81157  1  0
M  END
