
     RDKit          3D

217219  0  0  0  0  0  0  0  0999 V2000
   -8.1071   -7.5760   -1.1919 C   0  0  0  0  0  0  0  0  0  0  0  0
   -8.2118   -6.9456    0.1611 C   0  0  0  0  0  0  0  0  0  0  0  0
   -8.2569   -7.6968    1.1754 O   0  0  0  0  0  0  0  0  0  0  0  0
   -8.3254   -5.5165    0.3639 N   0  0  0  0  0  0  0  0  0  0  0  0
   -8.1388   -4.4563   -0.6370 C   0  0  1  0  0  0  0  0  0  0  0  0
   -6.6541   -4.2311   -1.0735 C   0  0  0  0  0  0  0  0  0  0  0  0
   -5.4466   -5.4796   -0.4934 S   0  0  0  0  0  0  0  0  0  0  0  0
   -5.1616   -4.7617    1.1651 C   0  0  0  0  0  0  0  0  0  0  0  0
   -4.0026   -3.8118    1.1244 C   0  0  0  0  0  0  0  0  0  0  0  0
   -2.7226   -4.2551    0.7136 C   0  0  0  0  0  0  0  0  0  0  0  0
   -1.6791   -3.3456    0.5069 C   0  0  0  0  0  0  0  0  0  0  0  0
   -1.8957   -1.9792    0.7692 C   0  0  0  0  0  0  0  0  0  0  0  0
   -3.1423   -1.5332    1.2496 C   0  0  0  0  0  0  0  0  0  0  0  0
   -4.2028   -2.4449    1.4150 C   0  0  0  0  0  0  0  0  0  0  0  0
   -3.3783   -0.0550    1.4784 C   0  0  0  0  0  0  0  0  0  0  0  0
   -3.6991    0.7612   -0.1284 S   0  0  0  0  0  0  0  0  0  0  0  0
   -2.0768    1.5903   -0.3616 C   0  0  0  0  0  0  0  0  0  0  0  0
   -2.2659    3.1114   -0.4317 C   0  0  2  0  0  0  0  0  0  0  0  0
   -3.0267    3.4527   -1.6453 N   0  0  0  0  0  0  0  0  0  0  0  0
   -3.6918    4.7105   -1.8404 C   0  0  0  0  0  0  0  0  0  0  0  0
   -3.3618    5.4052   -2.8447 O   0  0  0  0  0  0  0  0  0  0  0  0
   -4.8392    5.1524   -0.9551 C   0  0  1  0  0  0  0  0  0  0  0  0
   -4.3286    6.0086    0.2241 C   0  0  0  0  0  0  0  0  0  0  0  0
   -5.8094    5.9318   -1.7508 N   0  0  0  0  0  0  0  0  0  0  0  0
   -7.2045    6.1152   -1.4560 C   0  0  0  0  0  0  0  0  0  0  0  0
   -7.9372    6.6738   -2.3174 O   0  0  0  0  0  0  0  0  0  0  0  0
   -7.8408    5.7049   -0.1565 C   0  0  1  0  0  0  0  0  0  0  0  0
   -8.3483    6.9446    0.5866 C   0  0  0  0  0  0  0  0  0  0  0  0
   -8.8798    4.7079   -0.4431 N   0  0  0  0  0  0  0  0  0  0  0  0
  -10.2820    4.8378   -0.1874 C   0  0  0  0  0  0  0  0  0  0  0  0
  -10.9048    5.8892   -0.5001 O   0  0  0  0  0  0  0  0  0  0  0  0
  -11.0294    3.6472    0.3591 C   0  0  1  0  0  0  0  0  0  0  0  0
  -11.9412    4.0469    1.5232 C   0  0  0  0  0  0  0  0  0  0  0  0
  -11.8314    3.0196   -0.6934 N   0  0  0  0  0  0  0  0  0  0  0  0
  -11.6980    1.6773   -1.2271 C   0  0  0  0  0  0  0  0  0  0  0  0
  -12.3596    1.3916   -2.2653 O   0  0  0  0  0  0  0  0  0  0  0  0
  -10.8000    0.5923   -0.6562 C   0  0  1  0  0  0  0  0  0  0  0  0
   -9.3135    0.8595   -0.9137 C   0  0  0  0  0  0  0  0  0  0  0  0
  -11.0618    0.3706    0.7707 N   0  0  0  0  0  0  0  0  0  0  0  0
  -11.2782   -0.9386    1.3115 C   0  0  0  0  0  0  0  0  0  0  0  0
  -10.4049   -1.4426    2.0732 O   0  0  0  0  0  0  0  0  0  0  0  0
  -12.5933   -1.6532    1.1248 C   0  0  1  0  0  0  0  0  0  0  0  0
  -13.7063   -0.8352    1.8019 C   0  0  0  0  0  0  0  0  0  0  0  0
  -12.8790   -1.8536   -0.2978 N   0  0  0  0  0  0  0  0  0  0  0  0
  -12.4639   -3.0155   -1.0321 C   0  0  0  0  0  0  0  0  0  0  0  0
  -13.1643   -3.3856   -2.0141 O   0  0  0  0  0  0  0  0  0  0  0  0
  -11.2507   -3.8534   -0.6453 C   0  0  1  0  0  0  0  0  0  0  0  0
  -11.7280   -5.1983   -0.1070 C   0  0  0  0  0  0  0  0  0  0  0  0
  -10.4027   -4.0510   -1.8324 N   0  0  0  0  0  0  0  0  0  0  0  0
   -9.0851   -4.6197   -1.8232 C   0  0  0  0  0  0  0  0  0  0  0  0
   -8.6733   -5.1780   -2.8755 O   0  0  0  0  0  0  0  0  0  0  0  0
   -0.9381    3.8572   -0.4201 C   0  0  0  0  0  0  0  0  0  0  0  0
    0.1614    3.2345   -0.4411 O   0  0  0  0  0  0  0  0  0  0  0  0
   -0.9257    5.2902   -0.3608 N   0  0  0  0  0  0  0  0  0  0  0  0
    0.1117    6.0872    0.2910 C   0  0  2  0  0  0  0  0  0  0  0  0
   -0.5341    7.1268    1.2411 C   0  0  0  0  0  0  0  0  0  0  0  0
    0.9313    6.7856   -0.7534 C   0  0  0  0  0  0  0  0  0  0  0  0
    0.3672    7.3895   -1.7262 O   0  0  0  0  0  0  0  0  0  0  0  0
    2.3617    6.7352   -0.6891 N   0  0  0  0  0  0  0  0  0  0  0  0
    3.1605    7.8652   -0.2199 C   0  0  2  0  0  0  0  0  0  0  0  0
    2.5061    9.2233   -0.5087 C   0  0  0  0  0  0  0  0  0  0  0  0
    4.5129    7.8509   -0.8857 C   0  0  0  0  0  0  0  0  0  0  0  0
    4.5920    7.5334   -2.1101 O   0  0  0  0  0  0  0  0  0  0  0  0
    5.6979    8.3073   -0.2216 N   0  0  0  0  0  0  0  0  0  0  0  0
    5.9184    8.1483    1.2233 C   0  0  2  0  0  0  0  0  0  0  0  0
    5.5534    9.4471    1.9513 C   0  0  0  0  0  0  0  0  0  0  0  0
    7.3611    7.7811    1.5048 C   0  0  0  0  0  0  0  0  0  0  0  0
    7.7126    7.5206    2.6905 O   0  0  0  0  0  0  0  0  0  0  0  0
    8.3304    7.7409    0.4491 N   0  0  0  0  0  0  0  0  0  0  0  0
    8.9003    6.5011   -0.0831 C   0  0  2  0  0  0  0  0  0  0  0  0
    7.8322    5.4053   -0.1687 C   0  0  0  0  0  0  0  0  0  0  0  0
   10.0822    6.0508    0.7572 C   0  0  0  0  0  0  0  0  0  0  0  0
   10.5011    6.7995    1.6734 O   0  0  0  0  0  0  0  0  0  0  0  0
   10.6866    4.7572    0.5955 N   0  0  0  0  0  0  0  0  0  0  0  0
   11.2714    4.2032   -0.6424 C   0  0  2  0  0  0  0  0  0  0  0  0
   11.4500    5.2287   -1.7796 C   0  0  0  0  0  0  0  0  0  0  0  0
   10.5092    2.9679   -1.0680 C   0  0  0  0  0  0  0  0  0  0  0  0
    9.9004    2.9247   -2.1792 O   0  0  0  0  0  0  0  0  0  0  0  0
   10.3578    1.8671   -0.1523 N   0  0  0  0  0  0  0  0  0  0  0  0
   11.2729    0.7226   -0.0931 C   0  0  2  0  0  0  0  0  0  0  0  0
   12.7218    1.1785    0.0916 C   0  0  0  0  0  0  0  0  0  0  0  0
   11.1486   -0.1535   -1.3260 C   0  0  0  0  0  0  0  0  0  0  0  0
   11.0300    0.3781   -2.4581 O   0  0  0  0  0  0  0  0  0  0  0  0
   11.1646   -1.5874   -1.2423 N   0  0  0  0  0  0  0  0  0  0  0  0
   11.8889   -2.3412   -0.2141 C   0  0  2  0  0  0  0  0  0  0  0  0
   13.1554   -2.9731   -0.8156 C   0  0  0  0  0  0  0  0  0  0  0  0
   10.9922   -3.4082    0.3644 C   0  0  0  0  0  0  0  0  0  0  0  0
   10.6163   -3.3313    1.5624 O   0  0  0  0  0  0  0  0  0  0  0  0
   10.5958   -4.5311   -0.4395 N   0  0  0  0  0  0  0  0  0  0  0  0
   10.3680   -5.8619    0.1430 C   0  0  2  0  0  0  0  0  0  0  0  0
   11.5778   -6.2785    0.9944 C   0  0  0  0  0  0  0  0  0  0  0  0
   10.1879   -6.8895   -0.9557 C   0  0  0  0  0  0  0  0  0  0  0  0
   10.9176   -6.8088   -1.9818 O   0  0  0  0  0  0  0  0  0  0  0  0
    9.3062   -8.0184   -0.8398 N   0  0  0  0  0  0  0  0  0  0  0  0
    8.2221   -8.1839    0.1523 C   0  0  2  0  0  0  0  0  0  0  0  0
    8.7881   -8.5535    1.5297 C   0  0  0  0  0  0  0  0  0  0  0  0
    7.2768   -9.2900   -0.2845 C   0  0  0  0  0  0  0  0  0  0  0  0
    7.7678  -10.3561   -0.7671 O   0  0  0  0  0  0  0  0  0  0  0  0
    5.8496   -9.1799   -0.1595 N   0  0  0  0  0  0  0  0  0  0  0  0
    5.1692   -8.2657    0.7645 C   0  0  2  0  0  0  0  0  0  0  0  0
    4.1541   -9.0440    1.6109 C   0  0  0  0  0  0  0  0  0  0  0  0
    4.5089   -7.1532   -0.0157 C   0  0  0  0  0  0  0  0  0  0  0  0
    5.0929   -6.6748   -1.0345 O   0  0  0  0  0  0  0  0  0  0  0  0
    3.2930   -6.5545    0.4517 N   0  0  0  0  0  0  0  0  0  0  0  0
    2.1337   -6.3280   -0.4194 C   0  0  1  0  0  0  0  0  0  0  0  0
    2.0060   -7.4482   -1.4372 C   0  0  0  0  0  0  0  0  0  0  0  0
    2.4440   -7.2509   -2.7788 N   0  0  0  0  0  0  0  0  0  0  0  0
    1.5643   -8.5776   -1.0851 O   0  0  0  0  0  0  0  0  0  0  0  0
    0.8545   -6.2340    0.4472 C   0  0  0  0  0  0  0  0  0  0  0  0
    0.6810   -4.5773    1.2105 S   0  0  0  0  0  0  0  0  0  0  0  0
   -0.3704   -3.8161   -0.0666 C   0  0  0  0  0  0  0  0  0  0  0  0
   -7.8540   -8.6471   -1.0803 H   0  0  0  0  0  0  0  0  0  0  0  0
   -7.3008   -7.1004   -1.7918 H   0  0  0  0  0  0  0  0  0  0  0  0
   -9.0700   -7.5021   -1.7092 H   0  0  0  0  0  0  0  0  0  0  0  0
   -8.5275   -5.1999    1.3411 H   0  0  0  0  0  0  0  0  0  0  0  0
   -8.4305   -3.4995   -0.1530 H   0  0  0  0  0  0  0  0  0  0  0  0
   -6.5740   -4.2340   -2.1783 H   0  0  0  0  0  0  0  0  0  0  0  0
   -6.3273   -3.2141   -0.7711 H   0  0  0  0  0  0  0  0  0  0  0  0
   -6.0814   -4.2640    1.5355 H   0  0  0  0  0  0  0  0  0  0  0  0
   -4.9298   -5.5810    1.8640 H   0  0  0  0  0  0  0  0  0  0  0  0
   -2.5615   -5.2985    0.4846 H   0  0  0  0  0  0  0  0  0  0  0  0
   -1.1152   -1.2514    0.5479 H   0  0  0  0  0  0  0  0  0  0  0  0
   -5.1782   -2.0881    1.7249 H   0  0  0  0  0  0  0  0  0  0  0  0
   -2.5266    0.3882    2.0435 H   0  0  0  0  0  0  0  0  0  0  0  0
   -4.2737    0.0930    2.1081 H   0  0  0  0  0  0  0  0  0  0  0  0
   -1.6492    1.2243   -1.3140 H   0  0  0  0  0  0  0  0  0  0  0  0
   -1.3676    1.3317    0.4501 H   0  0  0  0  0  0  0  0  0  0  0  0
   -2.8434    3.4099    0.4656 H   0  0  0  0  0  0  0  0  0  0  0  0
   -2.7760    2.9399   -2.5220 H   0  0  0  0  0  0  0  0  0  0  0  0
   -5.3203    4.2374   -0.5660 H   0  0  0  0  0  0  0  0  0  0  0  0
   -3.3549    5.6333    0.5845 H   0  0  0  0  0  0  0  0  0  0  0  0
   -5.0166    5.9610    1.1022 H   0  0  0  0  0  0  0  0  0  0  0  0
   -4.2327    7.0770   -0.0964 H   0  0  0  0  0  0  0  0  0  0  0  0
   -5.4712    6.4533   -2.5797 H   0  0  0  0  0  0  0  0  0  0  0  0
   -7.0994    5.2070    0.5163 H   0  0  0  0  0  0  0  0  0  0  0  0
   -8.8679    6.6541    1.5302 H   0  0  0  0  0  0  0  0  0  0  0  0
   -9.0422    7.5406   -0.0447 H   0  0  0  0  0  0  0  0  0  0  0  0
   -7.4843    7.5952    0.8554 H   0  0  0  0  0  0  0  0  0  0  0  0
   -8.5254    3.7521   -0.6970 H   0  0  0  0  0  0  0  0  0  0  0  0
  -10.2692    2.9613    0.7632 H   0  0  0  0  0  0  0  0  0  0  0  0
  -12.3266    3.1401    2.0263 H   0  0  0  0  0  0  0  0  0  0  0  0
  -11.3952    4.6569    2.2684 H   0  0  0  0  0  0  0  0  0  0  0  0
  -12.8121    4.6355    1.1577 H   0  0  0  0  0  0  0  0  0  0  0  0
  -12.5471    3.6264   -1.1555 H   0  0  0  0  0  0  0  0  0  0  0  0
  -11.0295   -0.3302   -1.2025 H   0  0  0  0  0  0  0  0  0  0  0  0
   -8.7553   -0.1018   -0.8365 H   0  0  0  0  0  0  0  0  0  0  0  0
   -8.8773    1.5493   -0.1665 H   0  0  0  0  0  0  0  0  0  0  0  0
   -9.1603    1.2625   -1.9330 H   0  0  0  0  0  0  0  0  0  0  0  0
  -10.7885    1.0825    1.4764 H   0  0  0  0  0  0  0  0  0  0  0  0
  -12.5468   -2.6388    1.6398 H   0  0  0  0  0  0  0  0  0  0  0  0
  -13.8883    0.1217    1.2644 H   0  0  0  0  0  0  0  0  0  0  0  0
  -14.6438   -1.4255    1.8333 H   0  0  0  0  0  0  0  0  0  0  0  0
  -13.4181   -0.5962    2.8518 H   0  0  0  0  0  0  0  0  0  0  0  0
  -13.5673   -1.2228   -0.7675 H   0  0  0  0  0  0  0  0  0  0  0  0
  -10.6651   -3.3194    0.1324 H   0  0  0  0  0  0  0  0  0  0  0  0
  -10.8982   -5.7509    0.3856 H   0  0  0  0  0  0  0  0  0  0  0  0
  -12.1289   -5.8229   -0.9386 H   0  0  0  0  0  0  0  0  0  0  0  0
  -12.5258   -5.0475    0.6553 H   0  0  0  0  0  0  0  0  0  0  0  0
  -10.8363   -3.9229   -2.7782 H   0  0  0  0  0  0  0  0  0  0  0  0
   -1.6748    5.8166   -0.8313 H   0  0  0  0  0  0  0  0  0  0  0  0
    0.7710    5.4364    0.9168 H   0  0  0  0  0  0  0  0  0  0  0  0
    0.0129    8.1002    1.2168 H   0  0  0  0  0  0  0  0  0  0  0  0
   -1.6120    7.2866    1.0258 H   0  0  0  0  0  0  0  0  0  0  0  0
   -0.4566    6.8068    2.3016 H   0  0  0  0  0  0  0  0  0  0  0  0
    2.7796    5.7852   -0.5629 H   0  0  0  0  0  0  0  0  0  0  0  0
    3.2645    7.7805    0.8784 H   0  0  0  0  0  0  0  0  0  0  0  0
    3.2260   10.0623   -0.3203 H   0  0  0  0  0  0  0  0  0  0  0  0
    1.6404    9.3818    0.1708 H   0  0  0  0  0  0  0  0  0  0  0  0
    2.1510    9.2863   -1.5667 H   0  0  0  0  0  0  0  0  0  0  0  0
    6.4178    8.7875   -0.8055 H   0  0  0  0  0  0  0  0  0  0  0  0
    5.3012    7.3159    1.6221 H   0  0  0  0  0  0  0  0  0  0  0  0
    4.5015    9.7272    1.7426 H   0  0  0  0  0  0  0  0  0  0  0  0
    6.2296   10.2617    1.6206 H   0  0  0  0  0  0  0  0  0  0  0  0
    5.6682    9.3180    3.0498 H   0  0  0  0  0  0  0  0  0  0  0  0
    8.7813    8.6533    0.1871 H   0  0  0  0  0  0  0  0  0  0  0  0
    9.2461    6.7185   -1.1014 H   0  0  0  0  0  0  0  0  0  0  0  0
    6.9428    5.7821   -0.7234 H   0  0  0  0  0  0  0  0  0  0  0  0
    7.5143    5.0755    0.8437 H   0  0  0  0  0  0  0  0  0  0  0  0
    8.2205    4.5256   -0.7220 H   0  0  0  0  0  0  0  0  0  0  0  0
   10.9306    4.2561    1.4673 H   0  0  0  0  0  0  0  0  0  0  0  0
   12.2976    3.8734   -0.3873 H   0  0  0  0  0  0  0  0  0  0  0  0
   10.5078    5.4028   -2.3304 H   0  0  0  0  0  0  0  0  0  0  0  0
   11.8387    6.1826   -1.3797 H   0  0  0  0  0  0  0  0  0  0  0  0
   12.1929    4.8395   -2.5066 H   0  0  0  0  0  0  0  0  0  0  0  0
    9.5070    1.8532    0.4614 H   0  0  0  0  0  0  0  0  0  0  0  0
   10.9855    0.1239    0.7975 H   0  0  0  0  0  0  0  0  0  0  0  0
   13.0736    1.7213   -0.8094 H   0  0  0  0  0  0  0  0  0  0  0  0
   13.3883    0.3070    0.2512 H   0  0  0  0  0  0  0  0  0  0  0  0
   12.7949    1.8386    0.9783 H   0  0  0  0  0  0  0  0  0  0  0  0
   10.8017   -2.1164   -2.0644 H   0  0  0  0  0  0  0  0  0  0  0  0
   12.2151   -1.6958    0.6164 H   0  0  0  0  0  0  0  0  0  0  0  0
   12.9123   -3.6091   -1.6922 H   0  0  0  0  0  0  0  0  0  0  0  0
   13.6773   -3.5897   -0.0530 H   0  0  0  0  0  0  0  0  0  0  0  0
   13.8490   -2.1682   -1.1453 H   0  0  0  0  0  0  0  0  0  0  0  0
   10.5097   -4.3906   -1.4703 H   0  0  0  0  0  0  0  0  0  0  0  0
    9.4660   -5.8081    0.7762 H   0  0  0  0  0  0  0  0  0  0  0  0
   11.4791   -7.3334    1.3331 H   0  0  0  0  0  0  0  0  0  0  0  0
   11.6568   -5.6423    1.8981 H   0  0  0  0  0  0  0  0  0  0  0  0
   12.5186   -6.1855    0.4083 H   0  0  0  0  0  0  0  0  0  0  0  0
    9.3852   -8.7187   -1.6088 H   0  0  0  0  0  0  0  0  0  0  0  0
    7.6676   -7.2249    0.2164 H   0  0  0  0  0  0  0  0  0  0  0  0
    7.9808   -8.9179    2.1950 H   0  0  0  0  0  0  0  0  0  0  0  0
    9.2254   -7.6694    2.0386 H   0  0  0  0  0  0  0  0  0  0  0  0
    9.5627   -9.3464    1.4382 H   0  0  0  0  0  0  0  0  0  0  0  0
    5.2612   -9.8431   -0.7246 H   0  0  0  0  0  0  0  0  0  0  0  0
    5.8900   -7.8151    1.4732 H   0  0  0  0  0  0  0  0  0  0  0  0
    4.6767   -9.8506    2.1764 H   0  0  0  0  0  0  0  0  0  0  0  0
    3.3663   -9.5159    0.9689 H   0  0  0  0  0  0  0  0  0  0  0  0
    3.6692   -8.3739    2.3483 H   0  0  0  0  0  0  0  0  0  0  0  0
    3.3757   -5.9499    1.3114 H   0  0  0  0  0  0  0  0  0  0  0  0
    2.2849   -5.3779   -0.9728 H   0  0  0  0  0  0  0  0  0  0  0  0
    3.0560   -6.4493   -3.0305 H   0  0  0  0  0  0  0  0  0  0  0  0
    2.2156   -7.9732   -3.5101 H   0  0  0  0  0  0  0  0  0  0  0  0
    0.9033   -6.9890    1.2551 H   0  0  0  0  0  0  0  0  0  0  0  0
   -0.0356   -6.4871   -0.1550 H   0  0  0  0  0  0  0  0  0  0  0  0
   -0.5743   -4.5029   -0.9144 H   0  0  0  0  0  0  0  0  0  0  0  0
    0.1787   -2.9651   -0.5167 H   0  0  0  0  0  0  0  0  0  0  0  0
  1  2  1  0
  2  3  2  0
  2  4  1  0
  4  5  1  0
  5  6  1  0
  6  7  1  0
  7  8  1  0
  8  9  1  0
  9 10  2  0
 10 11  1  0
 11 12  2  0
 12 13  1  0
 13 14  2  0
 13 15  1  0
 15 16  1  0
 16 17  1  0
 17 18  1  0
 18 19  1  0
 19 20  1  0
 20 21  2  0
 20 22  1  0
 22 23  1  0
 22 24  1  0
 24 25  1  0
 25 26  2  0
 25 27  1  0
 27 28  1  0
 27 29  1  0
 29 30  1  0
 30 31  2  0
 30 32  1  0
 32 33  1  0
 32 34  1  0
 34 35  1  0
 35 36  2  0
 35 37  1  0
 37 38  1  0
 37 39  1  0
 39 40  1  0
 40 41  2  0
 40 42  1  0
 42 43  1  0
 42 44  1  0
 44 45  1  0
 45 46  2  0
 45 47  1  0
 47 48  1  0
 47 49  1  0
 49 50  1  0
 50 51  2  0
 18 52  1  0
 52 53  2  0
 52 54  1  0
 54 55  1  0
 55 56  1  0
 55 57  1  0
 57 58  2  0
 57 59  1  0
 59 60  1  0
 60 61  1  0
 60 62  1  0
 62 63  2  0
 62 64  1  0
 64 65  1  0
 65 66  1  0
 65 67  1  0
 67 68  2  0
 67 69  1  0
 69 70  1  0
 70 71  1  0
 70 72  1  0
 72 73  2  0
 72 74  1  0
 74 75  1  0
 75 76  1  0
 75 77  1  0
 77 78  2  0
 77 79  1  0
 79 80  1  0
 80 81  1  0
 80 82  1  0
 82 83  2  0
 82 84  1  0
 84 85  1  0
 85 86  1  0
 85 87  1  0
 87 88  2  0
 87 89  1  0
 89 90  1  0
 90 91  1  0
 90 92  1  0
 92 93  2  0
 92 94  1  0
 94 95  1  0
 95 96  1  0
 95 97  1  0
 97 98  2  0
 97 99  1  0
 99100  1  0
100101  1  0
100102  1  0
102103  2  0
102104  1  0
104105  1  0
105106  1  0
106107  1  0
106108  2  0
105109  1  0
109110  1  0
110111  1  0
 50  5  1  0
 14  9  1  0
111 11  1  0
  1112  1  0
  1113  1  0
  1114  1  0
  4115  1  0
  5116  1  1
  6117  1  0
  6118  1  0
  8119  1  0
  8120  1  0
 10121  1  0
 12122  1  0
 14123  1  0
 15124  1  0
 15125  1  0
 17126  1  0
 17127  1  0
 18128  1  1
 19129  1  0
 22130  1  1
 23131  1  0
 23132  1  0
 23133  1  0
 24134  1  0
 27135  1  1
 28136  1  0
 28137  1  0
 28138  1  0
 29139  1  0
 32140  1  1
 33141  1  0
 33142  1  0
 33143  1  0
 34144  1  0
 37145  1  6
 38146  1  0
 38147  1  0
 38148  1  0
 39149  1  0
 42150  1  1
 43151  1  0
 43152  1  0
 43153  1  0
 44154  1  0
 47155  1  1
 48156  1  0
 48157  1  0
 48158  1  0
 49159  1  0
 54160  1  0
 55161  1  1
 56162  1  0
 56163  1  0
 56164  1  0
 59165  1  0
 60166  1  1
 61167  1  0
 61168  1  0
 61169  1  0
 64170  1  0
 65171  1  1
 66172  1  0
 66173  1  0
 66174  1  0
 69175  1  0
 70176  1  6
 71177  1  0
 71178  1  0
 71179  1  0
 74180  1  0
 75181  1  1
 76182  1  0
 76183  1  0
 76184  1  0
 79185  1  0
 80186  1  1
 81187  1  0
 81188  1  0
 81189  1  0
 84190  1  0
 85191  1  1
 86192  1  0
 86193  1  0
 86194  1  0
 89195  1  0
 90196  1  1
 91197  1  0
 91198  1  0
 91199  1  0
 94200  1  0
 95201  1  1
 96202  1  0
 96203  1  0
 96204  1  0
 99205  1  0
100206  1  1
101207  1  0
101208  1  0
101209  1  0
104210  1  0
105211  1  6
107212  1  0
107213  1  0
109214  1  0
109215  1  0
111216  1  0
111217  1  0
M  END
