
     RDKit          3D

157159  0  0  0  0  0  0  0  0999 V2000
   -2.6373    8.7960   -0.2708 C   0  0  0  0  0  0  0  0  0  0  0  0
   -2.1189    8.9136    1.1331 C   0  0  0  0  0  0  0  0  0  0  0  0
   -1.8099   10.0575    1.5502 O   0  0  0  0  0  0  0  0  0  0  0  0
   -1.9652    7.7847    2.0199 N   0  0  0  0  0  0  0  0  0  0  0  0
   -2.2477    6.3718    1.7102 C   0  0  2  0  0  0  0  0  0  0  0  0
   -1.3753    5.8316    0.5489 C   0  0  0  0  0  0  0  0  0  0  0  0
    0.2261    6.7087    0.3597 S   0  0  0  0  0  0  0  0  0  0  0  0
    1.1597    5.7995    1.6368 C   0  0  0  0  0  0  0  0  0  0  0  0
    1.7247    4.5217    1.0849 C   0  0  0  0  0  0  0  0  0  0  0  0
    2.5780    4.5452   -0.0353 C   0  0  0  0  0  0  0  0  0  0  0  0
    3.0796    3.3564   -0.5724 C   0  0  0  0  0  0  0  0  0  0  0  0
    2.7649    2.1354    0.0446 C   0  0  0  0  0  0  0  0  0  0  0  0
    1.9610    2.0968    1.1990 C   0  0  0  0  0  0  0  0  0  0  0  0
    1.4226    3.2940    1.6926 C   0  0  0  0  0  0  0  0  0  0  0  0
    1.5685    0.7883    1.8567 C   0  0  0  0  0  0  0  0  0  0  0  0
    2.8410   -0.5212    1.7036 S   0  0  0  0  0  0  0  0  0  0  0  0
    2.0311   -1.3592    0.2924 C   0  0  0  0  0  0  0  0  0  0  0  0
    2.9061   -2.4723   -0.3050 C   0  0  1  0  0  0  0  0  0  0  0  0
    2.2590   -3.0506   -1.4925 N   0  0  0  0  0  0  0  0  0  0  0  0
    1.2988   -4.1227   -1.4772 C   0  0  0  0  0  0  0  0  0  0  0  0
    1.2014   -4.8443   -2.5047 O   0  0  0  0  0  0  0  0  0  0  0  0
    0.3041   -4.2807   -0.3511 C   0  0  1  0  0  0  0  0  0  0  0  0
   -0.8689   -3.3258   -0.5490 C   0  0  0  0  0  0  0  0  0  0  0  0
   -0.1720   -5.6654   -0.1955 N   0  0  0  0  0  0  0  0  0  0  0  0
   -0.9991   -6.3546   -1.1474 C   0  0  0  0  0  0  0  0  0  0  0  0
   -0.4548   -6.9209   -2.1379 O   0  0  0  0  0  0  0  0  0  0  0  0
   -2.5110   -6.4067   -0.9776 C   0  0  1  0  0  0  0  0  0  0  0  0
   -3.1172   -7.5770   -1.7774 C   0  0  0  0  0  0  0  0  0  0  0  0
   -2.8686   -6.5476    0.4388 N   0  0  0  0  0  0  0  0  0  0  0  0
   -4.2234   -6.4355    0.9061 C   0  0  0  0  0  0  0  0  0  0  0  0
   -4.7454   -7.4299    1.4742 O   0  0  0  0  0  0  0  0  0  0  0  0
   -5.0347   -5.1618    0.7884 C   0  0  1  0  0  0  0  0  0  0  0  0
   -4.1918   -3.9043    0.9954 C   0  0  0  0  0  0  0  0  0  0  0  0
   -5.7346   -5.0941   -0.4993 N   0  0  0  0  0  0  0  0  0  0  0  0
   -6.7795   -4.1375   -0.7562 C   0  0  0  0  0  0  0  0  0  0  0  0
   -6.7122   -3.4293   -1.7999 O   0  0  0  0  0  0  0  0  0  0  0  0
   -7.9920   -4.0087    0.1337 C   0  0  1  0  0  0  0  0  0  0  0  0
   -8.5704   -5.3845    0.4822 C   0  0  0  0  0  0  0  0  0  0  0  0
   -7.6623   -3.2571    1.3478 N   0  0  0  0  0  0  0  0  0  0  0  0
   -7.5927   -1.8201    1.4360 C   0  0  0  0  0  0  0  0  0  0  0  0
   -7.0128   -1.3125    2.4296 O   0  0  0  0  0  0  0  0  0  0  0  0
   -8.3787   -0.9193    0.4972 C   0  0  1  0  0  0  0  0  0  0  0  0
   -9.8236   -0.8370    1.0146 C   0  0  0  0  0  0  0  0  0  0  0  0
   -7.7926    0.4256    0.4082 N   0  0  0  0  0  0  0  0  0  0  0  0
   -8.2666    1.3900   -0.5517 C   0  0  0  0  0  0  0  0  0  0  0  0
   -9.0686    1.0225   -1.4640 O   0  0  0  0  0  0  0  0  0  0  0  0
   -7.9096    2.8478   -0.4804 C   0  0  1  0  0  0  0  0  0  0  0  0
   -9.0002    3.6201    0.2661 C   0  0  0  0  0  0  0  0  0  0  0  0
   -6.6102    3.0778    0.1490 N   0  0  0  0  0  0  0  0  0  0  0  0
   -5.4929    3.5256   -0.6272 C   0  0  0  0  0  0  0  0  0  0  0  0
   -5.0852    2.8280   -1.5908 O   0  0  0  0  0  0  0  0  0  0  0  0
   -4.8863    4.8831   -0.3887 C   0  0  1  0  0  0  0  0  0  0  0  0
   -5.9770    5.9603   -0.5287 C   0  0  0  0  0  0  0  0  0  0  0  0
   -4.2289    4.9426    0.9266 N   0  0  0  0  0  0  0  0  0  0  0  0
   -3.7317    6.1635    1.4814 C   0  0  0  0  0  0  0  0  0  0  0  0
   -4.5455    7.0752    1.7885 O   0  0  0  0  0  0  0  0  0  0  0  0
    4.2583   -1.9041   -0.6969 C   0  0  0  0  0  0  0  0  0  0  0  0
    4.3090   -0.9403   -1.5118 O   0  0  0  0  0  0  0  0  0  0  0  0
    5.4820   -2.3865   -0.1275 N   0  0  0  0  0  0  0  0  0  0  0  0
    5.6853   -3.7580    0.3406 C   0  0  2  0  0  0  0  0  0  0  0  0
    5.6420   -3.7896    1.8669 C   0  0  0  0  0  0  0  0  0  0  0  0
    7.0001   -4.3219   -0.1441 C   0  0  0  0  0  0  0  0  0  0  0  0
    7.1602   -5.5722   -0.1541 O   0  0  0  0  0  0  0  0  0  0  0  0
    8.0592   -3.4749   -0.6220 N   0  0  0  0  0  0  0  0  0  0  0  0
    9.2827   -3.2193    0.1597 C   0  0  2  0  0  0  0  0  0  0  0  0
    9.7376   -4.4586    0.9423 C   0  0  0  0  0  0  0  0  0  0  0  0
    9.0682   -2.0181    1.0585 C   0  0  0  0  0  0  0  0  0  0  0  0
    9.1433   -2.1432    2.3115 O   0  0  0  0  0  0  0  0  0  0  0  0
    8.7043   -0.7343    0.5227 N   0  0  0  0  0  0  0  0  0  0  0  0
    9.2919   -0.1691   -0.6978 C   0  0  2  0  0  0  0  0  0  0  0  0
   10.5067    0.6903   -0.3414 C   0  0  0  0  0  0  0  0  0  0  0  0
    8.2547    0.5955   -1.4825 C   0  0  0  0  0  0  0  0  0  0  0  0
    7.4964   -0.0371   -2.2663 O   0  0  0  0  0  0  0  0  0  0  0  0
    8.1350    2.0225   -1.4048 N   0  0  0  0  0  0  0  0  0  0  0  0
    7.6367    2.6718   -0.1896 C   0  0  1  0  0  0  0  0  0  0  0  0
    8.3403    3.9821    0.0885 C   0  0  0  0  0  0  0  0  0  0  0  0
    8.6976    4.8952   -0.9578 N   0  0  0  0  0  0  0  0  0  0  0  0
    8.5523    4.3081    1.2870 O   0  0  0  0  0  0  0  0  0  0  0  0
    6.1063    2.8331   -0.2558 C   0  0  0  0  0  0  0  0  0  0  0  0
    5.5752    4.0702   -1.5019 S   0  0  0  0  0  0  0  0  0  0  0  0
    3.9184    3.3731   -1.8186 C   0  0  0  0  0  0  0  0  0  0  0  0
   -1.8014    8.9377   -0.9868 H   0  0  0  0  0  0  0  0  0  0  0  0
   -3.1282    7.8288   -0.4712 H   0  0  0  0  0  0  0  0  0  0  0  0
   -3.3971    9.5891   -0.4476 H   0  0  0  0  0  0  0  0  0  0  0  0
   -1.6430    7.9965    2.9900 H   0  0  0  0  0  0  0  0  0  0  0  0
   -1.9918    5.7718    2.6120 H   0  0  0  0  0  0  0  0  0  0  0  0
   -1.9067    5.9311   -0.4185 H   0  0  0  0  0  0  0  0  0  0  0  0
   -1.2012    4.7433    0.6908 H   0  0  0  0  0  0  0  0  0  0  0  0
    0.5177    5.6210    2.5267 H   0  0  0  0  0  0  0  0  0  0  0  0
    1.9969    6.4439    1.9709 H   0  0  0  0  0  0  0  0  0  0  0  0
    2.8296    5.4919   -0.5002 H   0  0  0  0  0  0  0  0  0  0  0  0
    3.1473    1.2276   -0.3943 H   0  0  0  0  0  0  0  0  0  0  0  0
    0.7564    3.2704    2.5478 H   0  0  0  0  0  0  0  0  0  0  0  0
    1.4115    0.9609    2.9447 H   0  0  0  0  0  0  0  0  0  0  0  0
    0.5884    0.4543    1.4494 H   0  0  0  0  0  0  0  0  0  0  0  0
    1.7643   -0.6275   -0.4962 H   0  0  0  0  0  0  0  0  0  0  0  0
    1.1022   -1.7883    0.6999 H   0  0  0  0  0  0  0  0  0  0  0  0
    3.0324   -3.2589    0.4615 H   0  0  0  0  0  0  0  0  0  0  0  0
    2.6183   -2.7695   -2.4363 H   0  0  0  0  0  0  0  0  0  0  0  0
    0.8137   -4.0092    0.6001 H   0  0  0  0  0  0  0  0  0  0  0  0
   -1.4696   -3.3113    0.3852 H   0  0  0  0  0  0  0  0  0  0  0  0
   -1.5006   -3.6378   -1.4034 H   0  0  0  0  0  0  0  0  0  0  0  0
   -0.5354   -2.2874   -0.7543 H   0  0  0  0  0  0  0  0  0  0  0  0
   -0.0083   -6.1365    0.7227 H   0  0  0  0  0  0  0  0  0  0  0  0
   -2.9231   -5.4573   -1.3760 H   0  0  0  0  0  0  0  0  0  0  0  0
   -2.7003   -8.5432   -1.4226 H   0  0  0  0  0  0  0  0  0  0  0  0
   -2.9034   -7.4542   -2.8601 H   0  0  0  0  0  0  0  0  0  0  0  0
   -4.2158   -7.5987   -1.6540 H   0  0  0  0  0  0  0  0  0  0  0  0
   -2.2344   -7.1304    1.0249 H   0  0  0  0  0  0  0  0  0  0  0  0
   -5.7794   -5.1905    1.6107 H   0  0  0  0  0  0  0  0  0  0  0  0
   -4.8512   -3.0365    1.2048 H   0  0  0  0  0  0  0  0  0  0  0  0
   -3.4933   -4.0333    1.8512 H   0  0  0  0  0  0  0  0  0  0  0  0
   -3.6405   -3.6742    0.0606 H   0  0  0  0  0  0  0  0  0  0  0  0
   -5.2501   -5.4772   -1.3410 H   0  0  0  0  0  0  0  0  0  0  0  0
   -8.8018   -3.4873   -0.4235 H   0  0  0  0  0  0  0  0  0  0  0  0
   -7.8836   -5.9764    1.1260 H   0  0  0  0  0  0  0  0  0  0  0  0
   -8.7767   -5.9556   -0.4469 H   0  0  0  0  0  0  0  0  0  0  0  0
   -9.5358   -5.2568    1.0187 H   0  0  0  0  0  0  0  0  0  0  0  0
   -7.4281   -3.7887    2.2112 H   0  0  0  0  0  0  0  0  0  0  0  0
   -8.3778   -1.3550   -0.5233 H   0  0  0  0  0  0  0  0  0  0  0  0
  -10.2865   -1.8458    1.0129 H   0  0  0  0  0  0  0  0  0  0  0  0
   -9.8453   -0.4302    2.0494 H   0  0  0  0  0  0  0  0  0  0  0  0
  -10.4498   -0.1817    0.3655 H   0  0  0  0  0  0  0  0  0  0  0  0
   -6.9290    0.6589    0.9551 H   0  0  0  0  0  0  0  0  0  0  0  0
   -7.8850    3.2413   -1.5205 H   0  0  0  0  0  0  0  0  0  0  0  0
   -8.7847    4.7067    0.2245 H   0  0  0  0  0  0  0  0  0  0  0  0
   -9.9871    3.4538   -0.2132 H   0  0  0  0  0  0  0  0  0  0  0  0
   -9.0529    3.3027    1.3258 H   0  0  0  0  0  0  0  0  0  0  0  0
   -6.5313    3.0905    1.1953 H   0  0  0  0  0  0  0  0  0  0  0  0
   -4.1230    5.0803   -1.1702 H   0  0  0  0  0  0  0  0  0  0  0  0
   -6.6763    5.9275    0.3318 H   0  0  0  0  0  0  0  0  0  0  0  0
   -6.5549    5.8057   -1.4680 H   0  0  0  0  0  0  0  0  0  0  0  0
   -5.5202    6.9723   -0.5876 H   0  0  0  0  0  0  0  0  0  0  0  0
   -3.9706    4.0490    1.4123 H   0  0  0  0  0  0  0  0  0  0  0  0
    6.2442   -1.6861    0.0106 H   0  0  0  0  0  0  0  0  0  0  0  0
    4.8848   -4.4146   -0.0629 H   0  0  0  0  0  0  0  0  0  0  0  0
    6.4459   -3.1481    2.2856 H   0  0  0  0  0  0  0  0  0  0  0  0
    4.6620   -3.4114    2.2309 H   0  0  0  0  0  0  0  0  0  0  0  0
    5.7774   -4.8277    2.2392 H   0  0  0  0  0  0  0  0  0  0  0  0
    7.8101   -2.7685   -1.3412 H   0  0  0  0  0  0  0  0  0  0  0  0
   10.1003   -2.9854   -0.5503 H   0  0  0  0  0  0  0  0  0  0  0  0
    8.9976   -4.7402    1.7256 H   0  0  0  0  0  0  0  0  0  0  0  0
   10.7099   -4.2538    1.4383 H   0  0  0  0  0  0  0  0  0  0  0  0
    9.8796   -5.3127    0.2471 H   0  0  0  0  0  0  0  0  0  0  0  0
    8.2332   -0.0767    1.1805 H   0  0  0  0  0  0  0  0  0  0  0  0
    9.6589   -0.9794   -1.3636 H   0  0  0  0  0  0  0  0  0  0  0  0
   11.2781    0.0616    0.1502 H   0  0  0  0  0  0  0  0  0  0  0  0
   10.9483    1.1363   -1.2581 H   0  0  0  0  0  0  0  0  0  0  0  0
   10.2247    1.5040    0.3602 H   0  0  0  0  0  0  0  0  0  0  0  0
    7.9845    2.5137   -2.3163 H   0  0  0  0  0  0  0  0  0  0  0  0
    7.8436    2.0186    0.6791 H   0  0  0  0  0  0  0  0  0  0  0  0
    9.0960    5.8256   -0.7148 H   0  0  0  0  0  0  0  0  0  0  0  0
    8.5896    4.6511   -1.9624 H   0  0  0  0  0  0  0  0  0  0  0  0
    5.6594    1.8410   -0.4836 H   0  0  0  0  0  0  0  0  0  0  0  0
    5.7278    3.1537    0.7414 H   0  0  0  0  0  0  0  0  0  0  0  0
    4.0471    2.3546   -2.2490 H   0  0  0  0  0  0  0  0  0  0  0  0
    3.4188    3.9893   -2.5977 H   0  0  0  0  0  0  0  0  0  0  0  0
  1  2  1  0
  2  3  2  0
  2  4  1  0
  4  5  1  0
  5  6  1  0
  6  7  1  0
  7  8  1  0
  8  9  1  0
  9 10  1  0
 10 11  2  0
 11 12  1  0
 12 13  2  0
 13 14  1  0
 13 15  1  0
 15 16  1  0
 16 17  1  0
 17 18  1  0
 18 19  1  0
 19 20  1  0
 20 21  2  0
 20 22  1  0
 22 23  1  0
 22 24  1  0
 24 25  1  0
 25 26  2  0
 25 27  1  0
 27 28  1  0
 27 29  1  0
 29 30  1  0
 30 31  2  0
 30 32  1  0
 32 33  1  0
 32 34  1  0
 34 35  1  0
 35 36  2  0
 35 37  1  0
 37 38  1  0
 37 39  1  0
 39 40  1  0
 40 41  2  0
 40 42  1  0
 42 43  1  0
 42 44  1  0
 44 45  1  0
 45 46  2  0
 45 47  1  0
 47 48  1  0
 47 49  1  0
 49 50  1  0
 50 51  2  0
 50 52  1  0
 52 53  1  0
 52 54  1  0
 54 55  1  0
 55 56  2  0
 18 57  1  0
 57 58  2  0
 57 59  1  0
 59 60  1  0
 60 61  1  0
 60 62  1  0
 62 63  2  0
 62 64  1  0
 64 65  1  0
 65 66  1  0
 65 67  1  0
 67 68  2  0
 67 69  1  0
 69 70  1  0
 70 71  1  0
 70 72  1  0
 72 73  2  0
 72 74  1  0
 74 75  1  0
 75 76  1  0
 76 77  1  0
 76 78  2  0
 75 79  1  0
 79 80  1  0
 80 81  1  0
 55  5  1  0
 14  9  2  0
 81 11  1  0
  1 82  1  0
  1 83  1  0
  1 84  1  0
  4 85  1  0
  5 86  1  1
  6 87  1  0
  6 88  1  0
  8 89  1  0
  8 90  1  0
 10 91  1  0
 12 92  1  0
 14 93  1  0
 15 94  1  0
 15 95  1  0
 17 96  1  0
 17 97  1  0
 18 98  1  1
 19 99  1  0
 22100  1  1
 23101  1  0
 23102  1  0
 23103  1  0
 24104  1  0
 27105  1  6
 28106  1  0
 28107  1  0
 28108  1  0
 29109  1  0
 32110  1  1
 33111  1  0
 33112  1  0
 33113  1  0
 34114  1  0
 37115  1  6
 38116  1  0
 38117  1  0
 38118  1  0
 39119  1  0
 42120  1  6
 43121  1  0
 43122  1  0
 43123  1  0
 44124  1  0
 47125  1  6
 48126  1  0
 48127  1  0
 48128  1  0
 49129  1  0
 52130  1  6
 53131  1  0
 53132  1  0
 53133  1  0
 54134  1  0
 59135  1  0
 60136  1  6
 61137  1  0
 61138  1  0
 61139  1  0
 64140  1  0
 65141  1  6
 66142  1  0
 66143  1  0
 66144  1  0
 69145  1  0
 70146  1  6
 71147  1  0
 71148  1  0
 71149  1  0
 74150  1  0
 75151  1  1
 77152  1  0
 77153  1  0
 79154  1  0
 79155  1  0
 81156  1  0
 81157  1  0
M  END
