
     RDKit          3D

107109  0  0  0  0  0  0  0  0999 V2000
    8.5866    0.9779    1.0155 C   0  0  0  0  0  0  0  0  0  0  0  0
    7.5184    0.7073    2.0343 C   0  0  0  0  0  0  0  0  0  0  0  0
    7.8719    0.3529    3.1860 O   0  0  0  0  0  0  0  0  0  0  0  0
    6.1137    0.7759    1.7297 N   0  0  0  0  0  0  0  0  0  0  0  0
    5.5047    1.4832    0.5932 C   0  0  1  0  0  0  0  0  0  0  0  0
    5.6572    3.0138    0.7707 C   0  0  0  0  0  0  0  0  0  0  0  0
    4.5922    3.9511   -0.3962 S   0  0  0  0  0  0  0  0  0  0  0  0
    3.0781    4.0050    0.6369 C   0  0  0  0  0  0  0  0  0  0  0  0
    1.8708    3.6922   -0.2036 C   0  0  0  0  0  0  0  0  0  0  0  0
    0.8819    4.6552   -0.4537 C   0  0  0  0  0  0  0  0  0  0  0  0
   -0.2620    4.3239   -1.1985 C   0  0  0  0  0  0  0  0  0  0  0  0
   -0.4155    3.0190   -1.6903 C   0  0  0  0  0  0  0  0  0  0  0  0
    0.5644    2.0533   -1.4451 C   0  0  0  0  0  0  0  0  0  0  0  0
    1.7089    2.4039   -0.7214 C   0  0  0  0  0  0  0  0  0  0  0  0
    0.3949    0.6452   -1.9403 C   0  0  0  0  0  0  0  0  0  0  0  0
   -0.2575   -0.4291   -0.6104 S   0  0  0  0  0  0  0  0  0  0  0  0
    1.3243   -1.1855   -0.0419 C   0  0  0  0  0  0  0  0  0  0  0  0
    1.8809   -2.3314   -0.9232 C   0  0  2  0  0  0  0  0  0  0  0  0
    2.8107   -1.8126   -1.9412 N   0  0  0  0  0  0  0  0  0  0  0  0
    4.2355   -1.9493   -1.8168 C   0  0  0  0  0  0  0  0  0  0  0  0
    4.8824   -2.4832   -2.7619 O   0  0  0  0  0  0  0  0  0  0  0  0
    4.9797   -1.3931   -0.6214 C   0  0  1  0  0  0  0  0  0  0  0  0
    5.6566   -2.5194    0.1553 C   0  0  0  0  0  0  0  0  0  0  0  0
    5.9932   -0.4330   -1.0804 N   0  0  0  0  0  0  0  0  0  0  0  0
    6.0367    0.9609   -0.7318 C   0  0  0  0  0  0  0  0  0  0  0  0
    6.5848    1.7606   -1.5354 O   0  0  0  0  0  0  0  0  0  0  0  0
    0.7662   -3.1497   -1.5479 C   0  0  0  0  0  0  0  0  0  0  0  0
    0.5929   -3.1312   -2.7973 O   0  0  0  0  0  0  0  0  0  0  0  0
   -0.1848   -3.8526   -0.7364 N   0  0  0  0  0  0  0  0  0  0  0  0
    0.1960   -4.7643    0.3412 C   0  0  2  0  0  0  0  0  0  0  0  0
    0.1261   -6.2087   -0.1622 C   0  0  0  0  0  0  0  0  0  0  0  0
   -0.7129   -4.5565    1.5179 C   0  0  0  0  0  0  0  0  0  0  0  0
   -0.2515   -4.0900    2.5973 O   0  0  0  0  0  0  0  0  0  0  0  0
   -2.0851   -4.9521    1.4549 N   0  0  0  0  0  0  0  0  0  0  0  0
   -3.1656   -4.0046    1.1954 C   0  0  2  0  0  0  0  0  0  0  0  0
   -4.2164   -4.1268    2.2992 C   0  0  0  0  0  0  0  0  0  0  0  0
   -3.7792   -4.2983   -0.1498 C   0  0  0  0  0  0  0  0  0  0  0  0
   -4.0711   -5.4870   -0.4511 O   0  0  0  0  0  0  0  0  0  0  0  0
   -3.9700   -3.2675   -1.1294 N   0  0  0  0  0  0  0  0  0  0  0  0
   -4.6597   -2.0125   -0.8245 C   0  0  2  0  0  0  0  0  0  0  0  0
   -6.0478   -2.0542   -1.4715 C   0  0  0  0  0  0  0  0  0  0  0  0
   -3.8609   -0.8254   -1.3188 C   0  0  0  0  0  0  0  0  0  0  0  0
   -2.9721   -1.0105   -2.2033 O   0  0  0  0  0  0  0  0  0  0  0  0
   -4.0611    0.5136   -0.8138 N   0  0  0  0  0  0  0  0  0  0  0  0
   -5.0512    0.9039    0.1929 C   0  0  2  0  0  0  0  0  0  0  0  0
   -5.9834    1.9784   -0.3714 C   0  0  0  0  0  0  0  0  0  0  0  0
   -4.3660    1.3014    1.4812 C   0  0  0  0  0  0  0  0  0  0  0  0
   -4.6346    0.6487    2.5263 O   0  0  0  0  0  0  0  0  0  0  0  0
   -3.3193    2.2859    1.5383 N   0  0  0  0  0  0  0  0  0  0  0  0
   -3.5257    3.7442    1.4815 C   0  0  2  0  0  0  0  0  0  0  0  0
   -4.8339    4.1669    2.1441 C   0  0  0  0  0  0  0  0  0  0  0  0
   -5.5730    5.3112    1.7038 N   0  0  0  0  0  0  0  0  0  0  0  0
   -5.2239    3.5518    3.1745 O   0  0  0  0  0  0  0  0  0  0  0  0
   -3.3088    4.2691    0.0450 C   0  0  0  0  0  0  0  0  0  0  0  0
   -2.2371    5.7573    0.0550 S   0  0  0  0  0  0  0  0  0  0  0  0
   -1.3121    5.3645   -1.4730 C   0  0  0  0  0  0  0  0  0  0  0  0
    8.5052    0.2578    0.1842 H   0  0  0  0  0  0  0  0  0  0  0  0
    9.5922    0.8573    1.4727 H   0  0  0  0  0  0  0  0  0  0  0  0
    8.5024    2.0039    0.6250 H   0  0  0  0  0  0  0  0  0  0  0  0
    5.4575    0.4139    2.4602 H   0  0  0  0  0  0  0  0  0  0  0  0
    4.4191    1.2754    0.6202 H   0  0  0  0  0  0  0  0  0  0  0  0
    6.7070    3.3164    0.5918 H   0  0  0  0  0  0  0  0  0  0  0  0
    5.4247    3.3090    1.8169 H   0  0  0  0  0  0  0  0  0  0  0  0
    3.1203    3.2714    1.4739 H   0  0  0  0  0  0  0  0  0  0  0  0
    3.0058    5.0226    1.0802 H   0  0  0  0  0  0  0  0  0  0  0  0
    1.0031    5.6658   -0.0875 H   0  0  0  0  0  0  0  0  0  0  0  0
   -1.2898    2.7588   -2.2700 H   0  0  0  0  0  0  0  0  0  0  0  0
    2.4813    1.6770   -0.5564 H   0  0  0  0  0  0  0  0  0  0  0  0
   -0.3394    0.6266   -2.7733 H   0  0  0  0  0  0  0  0  0  0  0  0
    1.3499    0.2788   -2.3616 H   0  0  0  0  0  0  0  0  0  0  0  0
    1.1115   -1.6130    0.9618 H   0  0  0  0  0  0  0  0  0  0  0  0
    2.0816   -0.3986    0.1226 H   0  0  0  0  0  0  0  0  0  0  0  0
    2.4598   -3.0051   -0.2591 H   0  0  0  0  0  0  0  0  0  0  0  0
    2.4557   -1.6125   -2.9016 H   0  0  0  0  0  0  0  0  0  0  0  0
    4.2644   -0.9080    0.0662 H   0  0  0  0  0  0  0  0  0  0  0  0
    4.8935   -3.2493    0.5106 H   0  0  0  0  0  0  0  0  0  0  0  0
    6.3972   -3.0438   -0.4877 H   0  0  0  0  0  0  0  0  0  0  0  0
    6.1836   -2.1014    1.0401 H   0  0  0  0  0  0  0  0  0  0  0  0
    6.6630   -0.7649   -1.8122 H   0  0  0  0  0  0  0  0  0  0  0  0
   -1.1426   -3.9588   -1.1362 H   0  0  0  0  0  0  0  0  0  0  0  0
    1.2421   -4.5744    0.6635 H   0  0  0  0  0  0  0  0  0  0  0  0
   -0.8780   -6.4251   -0.5950 H   0  0  0  0  0  0  0  0  0  0  0  0
    0.8902   -6.3578   -0.9564 H   0  0  0  0  0  0  0  0  0  0  0  0
    0.3284   -6.9192    0.6658 H   0  0  0  0  0  0  0  0  0  0  0  0
   -2.3077   -5.9720    1.5170 H   0  0  0  0  0  0  0  0  0  0  0  0
   -2.7648   -2.9690    1.1995 H   0  0  0  0  0  0  0  0  0  0  0  0
   -3.7538   -3.8782    3.2763 H   0  0  0  0  0  0  0  0  0  0  0  0
   -4.6024   -5.1699    2.3454 H   0  0  0  0  0  0  0  0  0  0  0  0
   -5.0703   -3.4268    2.1344 H   0  0  0  0  0  0  0  0  0  0  0  0
   -3.8647   -3.5310   -2.1356 H   0  0  0  0  0  0  0  0  0  0  0  0
   -4.7780   -1.9294    0.2735 H   0  0  0  0  0  0  0  0  0  0  0  0
   -6.6491   -2.8630   -1.0097 H   0  0  0  0  0  0  0  0  0  0  0  0
   -6.5858   -1.1029   -1.3366 H   0  0  0  0  0  0  0  0  0  0  0  0
   -5.9626   -2.2589   -2.5595 H   0  0  0  0  0  0  0  0  0  0  0  0
   -3.4171    1.2573   -1.1709 H   0  0  0  0  0  0  0  0  0  0  0  0
   -5.7102    0.0508    0.4332 H   0  0  0  0  0  0  0  0  0  0  0  0
   -5.4218    2.7409   -0.9394 H   0  0  0  0  0  0  0  0  0  0  0  0
   -6.5750    2.4508    0.4348 H   0  0  0  0  0  0  0  0  0  0  0  0
   -6.6917    1.5170   -1.0948 H   0  0  0  0  0  0  0  0  0  0  0  0
   -2.4514    1.9749    2.0313 H   0  0  0  0  0  0  0  0  0  0  0  0
   -2.7279    4.1866    2.1180 H   0  0  0  0  0  0  0  0  0  0  0  0
   -6.4440    5.5865    2.2054 H   0  0  0  0  0  0  0  0  0  0  0  0
   -5.2401    5.9384    0.9365 H   0  0  0  0  0  0  0  0  0  0  0  0
   -4.2553    4.5363   -0.4608 H   0  0  0  0  0  0  0  0  0  0  0  0
   -2.8506    3.4704   -0.5627 H   0  0  0  0  0  0  0  0  0  0  0  0
   -2.0163    5.0466   -2.2728 H   0  0  0  0  0  0  0  0  0  0  0  0
   -0.8167    6.2923   -1.8272 H   0  0  0  0  0  0  0  0  0  0  0  0
  1  2  1  0
  2  3  2  0
  2  4  1  0
  4  5  1  0
  5  6  1  0
  6  7  1  0
  7  8  1  0
  8  9  1  0
  9 10  1  0
 10 11  2  0
 11 12  1  0
 12 13  2  0
 13 14  1  0
 13 15  1  0
 15 16  1  0
 16 17  1  0
 17 18  1  0
 18 19  1  0
 19 20  1  0
 20 21  2  0
 20 22  1  0
 22 23  1  0
 22 24  1  0
 24 25  1  0
 25 26  2  0
 18 27  1  0
 27 28  2  0
 27 29  1  0
 29 30  1  0
 30 31  1  0
 30 32  1  0
 32 33  2  0
 32 34  1  0
 34 35  1  0
 35 36  1  0
 35 37  1  0
 37 38  2  0
 37 39  1  0
 39 40  1  0
 40 41  1  0
 40 42  1  0
 42 43  2  0
 42 44  1  0
 44 45  1  0
 45 46  1  0
 45 47  1  0
 47 48  2  0
 47 49  1  0
 49 50  1  0
 50 51  1  0
 51 52  1  0
 51 53  2  0
 50 54  1  0
 54 55  1  0
 55 56  1  0
 25  5  1  0
 14  9  2  0
 56 11  1  0
  1 57  1  0
  1 58  1  0
  1 59  1  0
  4 60  1  0
  5 61  1  6
  6 62  1  0
  6 63  1  0
  8 64  1  0
  8 65  1  0
 10 66  1  0
 12 67  1  0
 14 68  1  0
 15 69  1  0
 15 70  1  0
 17 71  1  0
 17 72  1  0
 18 73  1  1
 19 74  1  0
 22 75  1  1
 23 76  1  0
 23 77  1  0
 23 78  1  0
 24 79  1  0
 29 80  1  0
 30 81  1  1
 31 82  1  0
 31 83  1  0
 31 84  1  0
 34 85  1  0
 35 86  1  6
 36 87  1  0
 36 88  1  0
 36 89  1  0
 39 90  1  0
 40 91  1  1
 41 92  1  0
 41 93  1  0
 41 94  1  0
 44 95  1  0
 45 96  1  1
 46 97  1  0
 46 98  1  0
 46 99  1  0
 49100  1  0
 50101  1  1
 52102  1  0
 52103  1  0
 54104  1  0
 54105  1  0
 56106  1  0
 56107  1  0
M  END
