
     RDKit          3D

187189  0  0  0  0  0  0  0  0999 V2000
   -3.2011    6.6602    2.9545 C   0  0  0  0  0  0  0  0  0  0  0  0
   -3.8215    6.5951    1.5960 C   0  0  0  0  0  0  0  0  0  0  0  0
   -4.0585    7.6749    0.9887 O   0  0  0  0  0  0  0  0  0  0  0  0
   -4.1824    5.3250    1.0233 N   0  0  0  0  0  0  0  0  0  0  0  0
   -4.3699    5.0209   -0.4054 C   0  0  2  0  0  0  0  0  0  0  0  0
   -3.0664    4.4508   -1.0068 C   0  0  0  0  0  0  0  0  0  0  0  0
   -1.6604    5.6311   -0.9284 S   0  0  0  0  0  0  0  0  0  0  0  0
   -0.8542    4.9391    0.5633 C   0  0  0  0  0  0  0  0  0  0  0  0
    0.1328    3.8658    0.1833 C   0  0  0  0  0  0  0  0  0  0  0  0
    0.0221    2.5719    0.7142 C   0  0  0  0  0  0  0  0  0  0  0  0
    0.9690    1.5869    0.3965 C   0  0  0  0  0  0  0  0  0  0  0  0
    2.0406    1.9076   -0.4502 C   0  0  0  0  0  0  0  0  0  0  0  0
    2.1739    3.2021   -0.9801 C   0  0  0  0  0  0  0  0  0  0  0  0
    1.1947    4.1655   -0.6829 C   0  0  0  0  0  0  0  0  0  0  0  0
    3.3248    3.5039   -1.9127 C   0  0  0  0  0  0  0  0  0  0  0  0
    3.8777    5.2563   -1.9100 S   0  0  0  0  0  0  0  0  0  0  0  0
    4.2891    5.3932   -0.1283 C   0  0  0  0  0  0  0  0  0  0  0  0
    5.8041    5.4800    0.0837 C   0  0  1  0  0  0  0  0  0  0  0  0
    6.0962    5.7263    1.5409 C   0  0  0  0  0  0  0  0  0  0  0  0
    6.5938    6.9957    1.9748 N   0  0  0  0  0  0  0  0  0  0  0  0
    5.8331    4.8363    2.3901 O   0  0  0  0  0  0  0  0  0  0  0  0
    6.4477    4.2375   -0.3432 N   0  0  0  0  0  0  0  0  0  0  0  0
    7.4934    4.2141   -1.3195 C   0  0  0  0  0  0  0  0  0  0  0  0
    7.2490    3.7595   -2.4701 O   0  0  0  0  0  0  0  0  0  0  0  0
    8.9033    4.6066   -0.9590 C   0  0  1  0  0  0  0  0  0  0  0  0
    9.0565    6.1206   -0.8061 C   0  0  0  0  0  0  0  0  0  0  0  0
    9.2932    3.9363    0.2821 N   0  0  0  0  0  0  0  0  0  0  0  0
   10.4408    3.0853    0.3380 C   0  0  0  0  0  0  0  0  0  0  0  0
   11.5500    3.5127   -0.0884 O   0  0  0  0  0  0  0  0  0  0  0  0
   10.3338    1.6810    0.8645 C   0  0  1  0  0  0  0  0  0  0  0  0
    9.8537    1.6494    2.3149 C   0  0  0  0  0  0  0  0  0  0  0  0
    9.4174    0.9114    0.0200 N   0  0  0  0  0  0  0  0  0  0  0  0
    9.8769    0.1844   -1.1262 C   0  0  0  0  0  0  0  0  0  0  0  0
    9.7202    0.6810   -2.2713 O   0  0  0  0  0  0  0  0  0  0  0  0
   10.4739   -1.2012   -0.9947 C   0  0  1  0  0  0  0  0  0  0  0  0
   11.8581   -1.1615   -0.3420 C   0  0  0  0  0  0  0  0  0  0  0  0
    9.5757   -2.0819   -0.2421 N   0  0  0  0  0  0  0  0  0  0  0  0
    9.7414   -3.5135   -0.2471 C   0  0  0  0  0  0  0  0  0  0  0  0
   10.5809   -4.0371   -1.0325 O   0  0  0  0  0  0  0  0  0  0  0  0
    8.9407   -4.4332    0.6456 C   0  0  1  0  0  0  0  0  0  0  0  0
    8.1971   -3.7276    1.7915 C   0  0  0  0  0  0  0  0  0  0  0  0
    8.0801   -5.2938   -0.1821 N   0  0  0  0  0  0  0  0  0  0  0  0
    6.6591   -5.4265   -0.0484 C   0  0  0  0  0  0  0  0  0  0  0  0
    6.1788   -6.5526    0.2551 O   0  0  0  0  0  0  0  0  0  0  0  0
    5.7319   -4.2854   -0.3842 C   0  0  1  0  0  0  0  0  0  0  0  0
    4.8445   -4.6368   -1.5835 C   0  0  0  0  0  0  0  0  0  0  0  0
    4.9262   -3.8889    0.7759 N   0  0  0  0  0  0  0  0  0  0  0  0
    4.1396   -4.8031    1.5448 C   0  0  0  0  0  0  0  0  0  0  0  0
    4.5756   -5.2120    2.6541 O   0  0  0  0  0  0  0  0  0  0  0  0
    2.7578   -5.1896    1.0933 C   0  0  1  0  0  0  0  0  0  0  0  0
    2.6127   -6.7108    0.9834 C   0  0  0  0  0  0  0  0  0  0  0  0
    1.7717   -4.6581    2.0342 N   0  0  0  0  0  0  0  0  0  0  0  0
    1.1684   -3.3795    1.8256 C   0  0  0  0  0  0  0  0  0  0  0  0
    1.6803   -2.3674    2.3698 O   0  0  0  0  0  0  0  0  0  0  0  0
   -0.0378   -3.2583    0.9206 C   0  0  1  0  0  0  0  0  0  0  0  0
   -0.8859   -1.9901    1.2120 C   0  0  0  0  0  0  0  0  0  0  0  0
   -0.6170   -0.5905    0.0471 S   0  0  0  0  0  0  0  0  0  0  0  0
    0.7900    0.1851    0.9106 C   0  0  0  0  0  0  0  0  0  0  0  0
    0.3833   -3.3237   -0.4851 N   0  0  0  0  0  0  0  0  0  0  0  0
   -0.1399   -4.2537   -1.4485 C   0  0  0  0  0  0  0  0  0  0  0  0
    0.6293   -4.6696   -2.3587 O   0  0  0  0  0  0  0  0  0  0  0  0
   -1.6115   -4.6247   -1.4847 C   0  0  1  0  0  0  0  0  0  0  0  0
   -2.4334   -3.4081   -1.9112 C   0  0  0  0  0  0  0  0  0  0  0  0
   -1.8502   -5.7250   -2.4311 N   0  0  0  0  0  0  0  0  0  0  0  0
   -2.5101   -6.9558   -2.0948 C   0  0  0  0  0  0  0  0  0  0  0  0
   -1.9383   -8.0434   -2.3735 O   0  0  0  0  0  0  0  0  0  0  0  0
   -3.9083   -7.0011   -1.5185 C   0  0  1  0  0  0  0  0  0  0  0  0
   -3.8920   -6.8647    0.0137 C   0  0  0  0  0  0  0  0  0  0  0  0
   -4.7620   -5.9734   -2.1316 N   0  0  0  0  0  0  0  0  0  0  0  0
   -6.0937   -5.7265   -1.6777 C   0  0  0  0  0  0  0  0  0  0  0  0
   -6.9808   -6.6143   -1.8237 O   0  0  0  0  0  0  0  0  0  0  0  0
   -6.4368   -4.3919   -1.0824 C   0  0  1  0  0  0  0  0  0  0  0  0
   -6.6560   -3.3432   -2.1803 C   0  0  0  0  0  0  0  0  0  0  0  0
   -7.5615   -4.5171   -0.1411 N   0  0  0  0  0  0  0  0  0  0  0  0
   -8.9050   -4.0533   -0.3721 C   0  0  0  0  0  0  0  0  0  0  0  0
   -9.3887   -4.0704   -1.5329 O   0  0  0  0  0  0  0  0  0  0  0  0
   -9.7673   -3.5704    0.7764 C   0  0  1  0  0  0  0  0  0  0  0  0
   -8.9484   -3.0304    1.9568 C   0  0  0  0  0  0  0  0  0  0  0  0
  -10.7083   -2.5355    0.3235 N   0  0  0  0  0  0  0  0  0  0  0  0
  -10.2790   -1.2602   -0.1968 C   0  0  0  0  0  0  0  0  0  0  0  0
   -9.1803   -1.1741   -0.8074 O   0  0  0  0  0  0  0  0  0  0  0  0
  -11.0627    0.0083    0.0413 C   0  0  1  0  0  0  0  0  0  0  0  0
  -12.5453   -0.2246    0.3415 C   0  0  0  0  0  0  0  0  0  0  0  0
  -10.4468    0.7401    1.1542 N   0  0  0  0  0  0  0  0  0  0  0  0
   -9.7060    1.9679    1.0348 C   0  0  0  0  0  0  0  0  0  0  0  0
   -9.4186    2.6015    2.0891 O   0  0  0  0  0  0  0  0  0  0  0  0
   -9.3002    2.5529   -0.2991 C   0  0  1  0  0  0  0  0  0  0  0  0
  -10.4205    3.4788   -0.8010 C   0  0  0  0  0  0  0  0  0  0  0  0
   -8.0350    3.2821   -0.1624 N   0  0  0  0  0  0  0  0  0  0  0  0
   -7.5899    4.2325   -1.1391 C   0  0  0  0  0  0  0  0  0  0  0  0
   -7.4135    3.8633   -2.3301 O   0  0  0  0  0  0  0  0  0  0  0  0
   -7.4703    5.6929   -0.7787 C   0  0  1  0  0  0  0  0  0  0  0  0
   -7.4267    5.9534    0.7307 C   0  0  0  0  0  0  0  0  0  0  0  0
   -6.3478    6.3386   -1.4768 N   0  0  0  0  0  0  0  0  0  0  0  0
   -4.9420    6.1773   -1.2071 C   0  0  0  0  0  0  0  0  0  0  0  0
   -4.1529    7.0426   -1.6829 O   0  0  0  0  0  0  0  0  0  0  0  0
   -3.0437    5.6417    3.3696 H   0  0  0  0  0  0  0  0  0  0  0  0
   -2.2157    7.1697    2.8867 H   0  0  0  0  0  0  0  0  0  0  0  0
   -3.8616    7.2298    3.6435 H   0  0  0  0  0  0  0  0  0  0  0  0
   -4.1437    4.4960    1.6591 H   0  0  0  0  0  0  0  0  0  0  0  0
   -5.0952    4.1855   -0.4649 H   0  0  0  0  0  0  0  0  0  0  0  0
   -3.2372    4.1947   -2.0734 H   0  0  0  0  0  0  0  0  0  0  0  0
   -2.7967    3.5038   -0.4916 H   0  0  0  0  0  0  0  0  0  0  0  0
   -0.2972    5.7599    1.0595 H   0  0  0  0  0  0  0  0  0  0  0  0
   -1.6114    4.5664    1.2862 H   0  0  0  0  0  0  0  0  0  0  0  0
   -0.8028    2.3221    1.3708 H   0  0  0  0  0  0  0  0  0  0  0  0
    2.7729    1.1486   -0.7044 H   0  0  0  0  0  0  0  0  0  0  0  0
    1.2595    5.1604   -1.1045 H   0  0  0  0  0  0  0  0  0  0  0  0
    3.0106    3.2496   -2.9479 H   0  0  0  0  0  0  0  0  0  0  0  0
    4.2036    2.8726   -1.6621 H   0  0  0  0  0  0  0  0  0  0  0  0
    3.8186    6.3283    0.2485 H   0  0  0  0  0  0  0  0  0  0  0  0
    3.8753    4.5519    0.4610 H   0  0  0  0  0  0  0  0  0  0  0  0
    6.1875    6.3345   -0.5194 H   0  0  0  0  0  0  0  0  0  0  0  0
    6.7822    7.7617    1.2923 H   0  0  0  0  0  0  0  0  0  0  0  0
    6.7700    7.1687    2.9902 H   0  0  0  0  0  0  0  0  0  0  0  0
    6.0680    3.3241   -0.0054 H   0  0  0  0  0  0  0  0  0  0  0  0
    9.5809    4.2875   -1.7857 H   0  0  0  0  0  0  0  0  0  0  0  0
    8.5352    6.4832    0.1016 H   0  0  0  0  0  0  0  0  0  0  0  0
   10.1304    6.3798   -0.7081 H   0  0  0  0  0  0  0  0  0  0  0  0
    8.6476    6.6412   -1.7006 H   0  0  0  0  0  0  0  0  0  0  0  0
    8.6487    3.9700    1.1033 H   0  0  0  0  0  0  0  0  0  0  0  0
   11.3465    1.2276    0.8386 H   0  0  0  0  0  0  0  0  0  0  0  0
    9.9096    0.6116    2.7068 H   0  0  0  0  0  0  0  0  0  0  0  0
   10.4981    2.2965    2.9460 H   0  0  0  0  0  0  0  0  0  0  0  0
    8.8020    1.9955    2.3931 H   0  0  0  0  0  0  0  0  0  0  0  0
    8.4143    1.2042    0.0078 H   0  0  0  0  0  0  0  0  0  0  0  0
   10.5963   -1.6133   -2.0221 H   0  0  0  0  0  0  0  0  0  0  0  0
   11.7619   -1.0086    0.7536 H   0  0  0  0  0  0  0  0  0  0  0  0
   12.3859   -2.1247   -0.5035 H   0  0  0  0  0  0  0  0  0  0  0  0
   12.4793   -0.3507   -0.7810 H   0  0  0  0  0  0  0  0  0  0  0  0
    8.8469   -1.6461    0.3630 H   0  0  0  0  0  0  0  0  0  0  0  0
    9.6809   -5.0974    1.1465 H   0  0  0  0  0  0  0  0  0  0  0  0
    8.9193   -3.1673    2.4236 H   0  0  0  0  0  0  0  0  0  0  0  0
    7.6905   -4.4798    2.4343 H   0  0  0  0  0  0  0  0  0  0  0  0
    7.4364   -3.0165    1.4146 H   0  0  0  0  0  0  0  0  0  0  0  0
    8.5618   -6.0226   -0.7509 H   0  0  0  0  0  0  0  0  0  0  0  0
    6.3485   -3.4124   -0.6962 H   0  0  0  0  0  0  0  0  0  0  0  0
    5.4706   -4.7790   -2.4897 H   0  0  0  0  0  0  0  0  0  0  0  0
    4.2706   -5.5689   -1.3997 H   0  0  0  0  0  0  0  0  0  0  0  0
    4.1263   -3.8096   -1.7782 H   0  0  0  0  0  0  0  0  0  0  0  0
    5.0414   -2.9212    1.1521 H   0  0  0  0  0  0  0  0  0  0  0  0
    2.5769   -4.7601    0.0857 H   0  0  0  0  0  0  0  0  0  0  0  0
    3.4776   -7.1562    0.4548 H   0  0  0  0  0  0  0  0  0  0  0  0
    1.6906   -6.9543    0.4133 H   0  0  0  0  0  0  0  0  0  0  0  0
    2.5474   -7.1705    1.9942 H   0  0  0  0  0  0  0  0  0  0  0  0
    1.7801   -5.0224    3.0150 H   0  0  0  0  0  0  0  0  0  0  0  0
   -0.6696   -4.1355    1.1614 H   0  0  0  0  0  0  0  0  0  0  0  0
   -0.7746   -1.6563    2.2649 H   0  0  0  0  0  0  0  0  0  0  0  0
   -1.9569   -2.2673    1.1155 H   0  0  0  0  0  0  0  0  0  0  0  0
    1.6988   -0.4247    0.7134 H   0  0  0  0  0  0  0  0  0  0  0  0
    0.5958    0.2180    2.0017 H   0  0  0  0  0  0  0  0  0  0  0  0
    1.2278   -2.7732   -0.7643 H   0  0  0  0  0  0  0  0  0  0  0  0
   -1.9291   -4.9296   -0.4733 H   0  0  0  0  0  0  0  0  0  0  0  0
   -2.2112   -3.1280   -2.9638 H   0  0  0  0  0  0  0  0  0  0  0  0
   -3.5137   -3.6197   -1.8037 H   0  0  0  0  0  0  0  0  0  0  0  0
   -2.2183   -2.5381   -1.2640 H   0  0  0  0  0  0  0  0  0  0  0  0
   -1.4147   -5.6768   -3.3788 H   0  0  0  0  0  0  0  0  0  0  0  0
   -4.3482   -7.9960   -1.7593 H   0  0  0  0  0  0  0  0  0  0  0  0
   -3.7861   -5.8077    0.3277 H   0  0  0  0  0  0  0  0  0  0  0  0
   -4.8512   -7.2385    0.4336 H   0  0  0  0  0  0  0  0  0  0  0  0
   -3.0690   -7.4661    0.4539 H   0  0  0  0  0  0  0  0  0  0  0  0
   -4.4077   -5.3943   -2.9249 H   0  0  0  0  0  0  0  0  0  0  0  0
   -5.5579   -4.0514   -0.4934 H   0  0  0  0  0  0  0  0  0  0  0  0
   -5.7024   -3.1497   -2.7170 H   0  0  0  0  0  0  0  0  0  0  0  0
   -7.4003   -3.6870   -2.9290 H   0  0  0  0  0  0  0  0  0  0  0  0
   -6.9869   -2.3833   -1.7334 H   0  0  0  0  0  0  0  0  0  0  0  0
   -7.3538   -4.9825    0.7722 H   0  0  0  0  0  0  0  0  0  0  0  0
  -10.3535   -4.4437    1.1415 H   0  0  0  0  0  0  0  0  0  0  0  0
   -8.3831   -3.8446    2.4496 H   0  0  0  0  0  0  0  0  0  0  0  0
   -8.2455   -2.2417    1.6180 H   0  0  0  0  0  0  0  0  0  0  0  0
   -9.6301   -2.5951    2.7219 H   0  0  0  0  0  0  0  0  0  0  0  0
  -11.7258   -2.7192    0.4672 H   0  0  0  0  0  0  0  0  0  0  0  0
  -11.0294    0.6000   -0.8935 H   0  0  0  0  0  0  0  0  0  0  0  0
  -12.6745   -0.7478    1.3155 H   0  0  0  0  0  0  0  0  0  0  0  0
  -13.0162   -0.8213   -0.4696 H   0  0  0  0  0  0  0  0  0  0  0  0
  -13.0685    0.7550    0.4034 H   0  0  0  0  0  0  0  0  0  0  0  0
  -10.5507    0.3374    2.1143 H   0  0  0  0  0  0  0  0  0  0  0  0
   -9.1388    1.7388   -1.0369 H   0  0  0  0  0  0  0  0  0  0  0  0
  -11.3937    2.9483   -0.8161 H   0  0  0  0  0  0  0  0  0  0  0  0
  -10.2072    3.8207   -1.8351 H   0  0  0  0  0  0  0  0  0  0  0  0
  -10.5085    4.3718   -0.1408 H   0  0  0  0  0  0  0  0  0  0  0  0
   -7.3082    2.9101    0.4925 H   0  0  0  0  0  0  0  0  0  0  0  0
   -8.4019    6.1685   -1.1506 H   0  0  0  0  0  0  0  0  0  0  0  0
   -7.1358    7.0039    0.9329 H   0  0  0  0  0  0  0  0  0  0  0  0
   -8.4297    5.7796    1.1717 H   0  0  0  0  0  0  0  0  0  0  0  0
   -6.7147    5.2757    1.2407 H   0  0  0  0  0  0  0  0  0  0  0  0
   -6.6005    7.0740   -2.1723 H   0  0  0  0  0  0  0  0  0  0  0  0
  1  2  1  0
  2  3  2  0
  2  4  1  0
  4  5  1  0
  5  6  1  0
  6  7  1  0
  7  8  1  0
  8  9  1  0
  9 10  1  0
 10 11  2  0
 11 12  1  0
 12 13  2  0
 13 14  1  0
 13 15  1  0
 15 16  1  0
 16 17  1  0
 17 18  1  0
 18 19  1  0
 19 20  1  0
 19 21  2  0
 18 22  1  0
 22 23  1  0
 23 24  2  0
 23 25  1  0
 25 26  1  0
 25 27  1  0
 27 28  1  0
 28 29  2  0
 28 30  1  0
 30 31  1  0
 30 32  1  0
 32 33  1  0
 33 34  2  0
 33 35  1  0
 35 36  1  0
 35 37  1  0
 37 38  1  0
 38 39  2  0
 38 40  1  0
 40 41  1  0
 40 42  1  0
 42 43  1  0
 43 44  2  0
 43 45  1  0
 45 46  1  0
 45 47  1  0
 47 48  1  0
 48 49  2  0
 48 50  1  0
 50 51  1  0
 50 52  1  0
 52 53  1  0
 53 54  2  0
 53 55  1  0
 55 56  1  0
 56 57  1  0
 57 58  1  0
 55 59  1  0
 59 60  1  0
 60 61  2  0
 60 62  1  0
 62 63  1  0
 62 64  1  0
 64 65  1  0
 65 66  2  0
 65 67  1  0
 67 68  1  0
 67 69  1  0
 69 70  1  0
 70 71  2  0
 70 72  1  0
 72 73  1  0
 72 74  1  0
 74 75  1  0
 75 76  2  0
 75 77  1  0
 77 78  1  0
 77 79  1  0
 79 80  1  0
 80 81  2  0
 80 82  1  0
 82 83  1  0
 82 84  1  0
 84 85  1  0
 85 86  2  0
 85 87  1  0
 87 88  1  0
 87 89  1  0
 89 90  1  0
 90 91  2  0
 90 92  1  0
 92 93  1  0
 92 94  1  0
 94 95  1  0
 95 96  2  0
 95  5  1  0
 14  9  2  0
 58 11  1  0
  1 97  1  0
  1 98  1  0
  1 99  1  0
  4100  1  0
  5101  1  1
  6102  1  0
  6103  1  0
  8104  1  0
  8105  1  0
 10106  1  0
 12107  1  0
 14108  1  0
 15109  1  0
 15110  1  0
 17111  1  0
 17112  1  0
 18113  1  6
 20114  1  0
 20115  1  0
 22116  1  0
 25117  1  6
 26118  1  0
 26119  1  0
 26120  1  0
 27121  1  0
 30122  1  1
 31123  1  0
 31124  1  0
 31125  1  0
 32126  1  0
 35127  1  6
 36128  1  0
 36129  1  0
 36130  1  0
 37131  1  0
 40132  1  1
 41133  1  0
 41134  1  0
 41135  1  0
 42136  1  0
 45137  1  6
 46138  1  0
 46139  1  0
 46140  1  0
 47141  1  0
 50142  1  6
 51143  1  0
 51144  1  0
 51145  1  0
 52146  1  0
 55147  1  1
 56148  1  0
 56149  1  0
 58150  1  0
 58151  1  0
 59152  1  0
 62153  1  1
 63154  1  0
 63155  1  0
 63156  1  0
 64157  1  0
 67158  1  1
 68159  1  0
 68160  1  0
 68161  1  0
 69162  1  0
 72163  1  1
 73164  1  0
 73165  1  0
 73166  1  0
 74167  1  0
 77168  1  1
 78169  1  0
 78170  1  0
 78171  1  0
 79172  1  0
 82173  1  6
 83174  1  0
 83175  1  0
 83176  1  0
 84177  1  0
 87178  1  6
 88179  1  0
 88180  1  0
 88181  1  0
 89182  1  0
 92183  1  6
 93184  1  0
 93185  1  0
 93186  1  0
 94187  1  0
M  END
