
     RDKit          3D

167169  0  0  0  0  0  0  0  0999 V2000
   -2.5489   -7.7092   -0.1820 C   0  0  0  0  0  0  0  0  0  0  0  0
   -2.7161   -6.7415   -1.3148 C   0  0  0  0  0  0  0  0  0  0  0  0
   -2.3748   -7.1037   -2.4707 O   0  0  0  0  0  0  0  0  0  0  0  0
   -3.3635   -5.4643   -1.1513 N   0  0  0  0  0  0  0  0  0  0  0  0
   -3.6883   -4.7819    0.1049 C   0  0  2  0  0  0  0  0  0  0  0  0
   -2.4098   -4.1942    0.7392 C   0  0  0  0  0  0  0  0  0  0  0  0
   -1.9467   -2.6438   -0.1113 S   0  0  0  0  0  0  0  0  0  0  0  0
   -0.7061   -3.3260   -1.2761 C   0  0  0  0  0  0  0  0  0  0  0  0
    0.6728   -2.8833   -0.8592 C   0  0  0  0  0  0  0  0  0  0  0  0
    0.9809   -1.5156   -0.8445 C   0  0  0  0  0  0  0  0  0  0  0  0
    2.2385   -1.0641   -0.4226 C   0  0  0  0  0  0  0  0  0  0  0  0
    3.2201   -2.0022   -0.0717 C   0  0  0  0  0  0  0  0  0  0  0  0
    2.9580   -3.3791   -0.1649 C   0  0  0  0  0  0  0  0  0  0  0  0
    1.6728   -3.8117   -0.5400 C   0  0  0  0  0  0  0  0  0  0  0  0
    4.0819   -4.3619    0.0115 C   0  0  0  0  0  0  0  0  0  0  0  0
    5.3180   -4.0932   -1.3095 S   0  0  0  0  0  0  0  0  0  0  0  0
    6.3350   -5.5811   -1.0042 C   0  0  0  0  0  0  0  0  0  0  0  0
    7.2952   -5.3823    0.1745 C   0  0  1  0  0  0  0  0  0  0  0  0
    8.0788   -6.6466    0.4100 C   0  0  0  0  0  0  0  0  0  0  0  0
    9.1022   -7.0556   -0.5022 N   0  0  0  0  0  0  0  0  0  0  0  0
    7.8194   -7.3666    1.4079 O   0  0  0  0  0  0  0  0  0  0  0  0
    8.2239   -4.2753   -0.0882 N   0  0  0  0  0  0  0  0  0  0  0  0
    8.9644   -3.6833    0.9838 C   0  0  0  0  0  0  0  0  0  0  0  0
   10.2189   -3.8283    1.0268 O   0  0  0  0  0  0  0  0  0  0  0  0
    8.2701   -2.8631    2.0359 C   0  0  1  0  0  0  0  0  0  0  0  0
    8.2424   -3.6055    3.3659 C   0  0  0  0  0  0  0  0  0  0  0  0
    8.9799   -1.5847    2.1914 N   0  0  0  0  0  0  0  0  0  0  0  0
    8.4555   -0.3583    1.6625 C   0  0  0  0  0  0  0  0  0  0  0  0
    7.2046   -0.1866    1.5803 O   0  0  0  0  0  0  0  0  0  0  0  0
    9.3927    0.6900    1.1214 C   0  0  1  0  0  0  0  0  0  0  0  0
    9.5753    0.4363   -0.3775 C   0  0  0  0  0  0  0  0  0  0  0  0
    8.8745    2.0296    1.4575 N   0  0  0  0  0  0  0  0  0  0  0  0
    8.7726    3.1690    0.5764 C   0  0  0  0  0  0  0  0  0  0  0  0
    9.4484    3.2282   -0.4866 O   0  0  0  0  0  0  0  0  0  0  0  0
    7.7994    4.2734    0.8992 C   0  0  1  0  0  0  0  0  0  0  0  0
    8.3082    5.6303    0.3835 C   0  0  0  0  0  0  0  0  0  0  0  0
    6.4984    3.9433    0.3038 N   0  0  0  0  0  0  0  0  0  0  0  0
    5.4625    4.9132    0.1123 C   0  0  0  0  0  0  0  0  0  0  0  0
    5.0411    5.5773    1.0990 O   0  0  0  0  0  0  0  0  0  0  0  0
    4.9451    5.2269   -1.2730 C   0  0  1  0  0  0  0  0  0  0  0  0
    5.3839    4.1767   -2.3049 C   0  0  0  0  0  0  0  0  0  0  0  0
    3.4880    5.4045   -1.2256 N   0  0  0  0  0  0  0  0  0  0  0  0
    2.5799    4.7543   -2.1177 C   0  0  0  0  0  0  0  0  0  0  0  0
    2.3498    5.2665   -3.2438 O   0  0  0  0  0  0  0  0  0  0  0  0
    1.9508    3.4259   -1.7623 C   0  0  1  0  0  0  0  0  0  0  0  0
    2.0996    3.0619   -0.2712 C   0  0  0  0  0  0  0  0  0  0  0  0
    1.2966    1.4699    0.1404 S   0  0  0  0  0  0  0  0  0  0  0  0
    2.6007    0.3882   -0.5532 C   0  0  0  0  0  0  0  0  0  0  0  0
    0.5435    3.3611   -2.1929 N   0  0  0  0  0  0  0  0  0  0  0  0
   -0.3593    4.4767   -2.2030 C   0  0  0  0  0  0  0  0  0  0  0  0
   -1.0828    4.6603   -3.2214 O   0  0  0  0  0  0  0  0  0  0  0  0
   -0.4971    5.3995   -1.0093 C   0  0  1  0  0  0  0  0  0  0  0  0
   -0.9816    6.8130   -1.3636 C   0  0  0  0  0  0  0  0  0  0  0  0
   -1.2964    4.7796    0.0570 N   0  0  0  0  0  0  0  0  0  0  0  0
   -2.7327    4.6966    0.1619 C   0  0  0  0  0  0  0  0  0  0  0  0
   -3.2282    4.4340    1.2924 O   0  0  0  0  0  0  0  0  0  0  0  0
   -3.6700    4.8427   -1.0148 C   0  0  1  0  0  0  0  0  0  0  0  0
   -4.5374    3.5925   -1.2146 C   0  0  0  0  0  0  0  0  0  0  0  0
   -4.4614    6.0817   -0.9129 N   0  0  0  0  0  0  0  0  0  0  0  0
   -5.8070    6.1834   -0.4171 C   0  0  0  0  0  0  0  0  0  0  0  0
   -6.6671    6.7756   -1.1220 O   0  0  0  0  0  0  0  0  0  0  0  0
   -6.1777    5.7477    0.9820 C   0  0  1  0  0  0  0  0  0  0  0  0
   -5.5846    6.7072    2.0123 C   0  0  0  0  0  0  0  0  0  0  0  0
   -7.6423    5.7271    1.1339 N   0  0  0  0  0  0  0  0  0  0  0  0
   -8.4581    4.5563    1.2899 C   0  0  0  0  0  0  0  0  0  0  0  0
   -9.6912    4.7099    1.5170 O   0  0  0  0  0  0  0  0  0  0  0  0
   -7.8943    3.1542    1.2510 C   0  0  1  0  0  0  0  0  0  0  0  0
   -7.3222    2.7757    2.6196 C   0  0  0  0  0  0  0  0  0  0  0  0
   -8.9354    2.1948    0.8730 N   0  0  0  0  0  0  0  0  0  0  0  0
   -8.7978    1.3166   -0.2433 C   0  0  0  0  0  0  0  0  0  0  0  0
   -9.4419    1.5595   -1.2970 O   0  0  0  0  0  0  0  0  0  0  0  0
   -7.9057    0.1000   -0.1892 C   0  0  1  0  0  0  0  0  0  0  0  0
   -6.4467    0.4614   -0.4809 C   0  0  0  0  0  0  0  0  0  0  0  0
   -8.0109   -0.5742    1.1105 N   0  0  0  0  0  0  0  0  0  0  0  0
   -7.4259   -1.8573    1.3605 C   0  0  0  0  0  0  0  0  0  0  0  0
   -6.5024   -1.9521    2.2124 O   0  0  0  0  0  0  0  0  0  0  0  0
   -7.9194   -3.1135    0.6802 C   0  0  1  0  0  0  0  0  0  0  0  0
   -9.4376   -3.0834    0.4862 C   0  0  0  0  0  0  0  0  0  0  0  0
   -7.2493   -3.3020   -0.6084 N   0  0  0  0  0  0  0  0  0  0  0  0
   -6.6689   -4.5415   -1.0603 C   0  0  0  0  0  0  0  0  0  0  0  0
   -6.1081   -4.5589   -2.1889 O   0  0  0  0  0  0  0  0  0  0  0  0
   -6.7528   -5.8131   -0.2494 C   0  0  1  0  0  0  0  0  0  0  0  0
   -6.4373   -7.0755   -1.0621 C   0  0  0  0  0  0  0  0  0  0  0  0
   -5.9315   -5.7523    0.9669 N   0  0  0  0  0  0  0  0  0  0  0  0
   -4.4926   -5.6479    1.0533 C   0  0  0  0  0  0  0  0  0  0  0  0
   -3.9186   -6.1788    2.0413 O   0  0  0  0  0  0  0  0  0  0  0  0
   -1.9332   -7.2616    0.6215 H   0  0  0  0  0  0  0  0  0  0  0  0
   -2.0418   -8.6362   -0.5369 H   0  0  0  0  0  0  0  0  0  0  0  0
   -3.5470   -8.0060    0.2078 H   0  0  0  0  0  0  0  0  0  0  0  0
   -3.5496   -4.9273   -2.0310 H   0  0  0  0  0  0  0  0  0  0  0  0
   -4.3299   -3.9040   -0.1208 H   0  0  0  0  0  0  0  0  0  0  0  0
   -2.6067   -3.9189    1.7997 H   0  0  0  0  0  0  0  0  0  0  0  0
   -1.5722   -4.9174    0.7442 H   0  0  0  0  0  0  0  0  0  0  0  0
   -0.7737   -4.4284   -1.3596 H   0  0  0  0  0  0  0  0  0  0  0  0
   -0.9220   -2.9115   -2.2827 H   0  0  0  0  0  0  0  0  0  0  0  0
    0.2382   -0.8050   -1.1836 H   0  0  0  0  0  0  0  0  0  0  0  0
    4.2100   -1.6642    0.1996 H   0  0  0  0  0  0  0  0  0  0  0  0
    1.4643   -4.8701   -0.6113 H   0  0  0  0  0  0  0  0  0  0  0  0
    3.7088   -5.4090   -0.0309 H   0  0  0  0  0  0  0  0  0  0  0  0
    4.5566   -4.2022    1.0019 H   0  0  0  0  0  0  0  0  0  0  0  0
    5.6753   -6.4607   -0.8256 H   0  0  0  0  0  0  0  0  0  0  0  0
    6.9178   -5.7811   -1.9275 H   0  0  0  0  0  0  0  0  0  0  0  0
    6.6954   -5.1543    1.0844 H   0  0  0  0  0  0  0  0  0  0  0  0
    9.6309   -7.9391   -0.3326 H   0  0  0  0  0  0  0  0  0  0  0  0
    9.3364   -6.4807   -1.3415 H   0  0  0  0  0  0  0  0  0  0  0  0
    8.6389   -4.2045   -1.0445 H   0  0  0  0  0  0  0  0  0  0  0  0
    7.2214   -2.6822    1.7104 H   0  0  0  0  0  0  0  0  0  0  0  0
    7.6460   -4.5382    3.2743 H   0  0  0  0  0  0  0  0  0  0  0  0
    7.7634   -2.9674    4.1400 H   0  0  0  0  0  0  0  0  0  0  0  0
    9.2708   -3.8696    3.7054 H   0  0  0  0  0  0  0  0  0  0  0  0
    9.9898   -1.6088    2.4436 H   0  0  0  0  0  0  0  0  0  0  0  0
   10.3835    0.5731    1.6137 H   0  0  0  0  0  0  0  0  0  0  0  0
   10.4369    1.0230   -0.7640 H   0  0  0  0  0  0  0  0  0  0  0  0
    8.6503    0.6913   -0.9395 H   0  0  0  0  0  0  0  0  0  0  0  0
    9.8128   -0.6353   -0.5604 H   0  0  0  0  0  0  0  0  0  0  0  0
    8.5498    2.1680    2.4442 H   0  0  0  0  0  0  0  0  0  0  0  0
    7.6759    4.3542    2.0051 H   0  0  0  0  0  0  0  0  0  0  0  0
    7.6686    6.4525    0.7608 H   0  0  0  0  0  0  0  0  0  0  0  0
    8.3036    5.6503   -0.7269 H   0  0  0  0  0  0  0  0  0  0  0  0
    9.3454    5.8191    0.7402 H   0  0  0  0  0  0  0  0  0  0  0  0
    6.2295    2.9309    0.2166 H   0  0  0  0  0  0  0  0  0  0  0  0
    5.3959    6.1976   -1.5860 H   0  0  0  0  0  0  0  0  0  0  0  0
    5.0101    4.4396   -3.3197 H   0  0  0  0  0  0  0  0  0  0  0  0
    5.0016    3.1684   -2.0285 H   0  0  0  0  0  0  0  0  0  0  0  0
    6.4910    4.1321   -2.3588 H   0  0  0  0  0  0  0  0  0  0  0  0
    3.1090    6.1895   -0.6461 H   0  0  0  0  0  0  0  0  0  0  0  0
    2.5207    2.6775   -2.3509 H   0  0  0  0  0  0  0  0  0  0  0  0
    3.1716    3.0043   -0.0008 H   0  0  0  0  0  0  0  0  0  0  0  0
    1.6350    3.8378    0.3661 H   0  0  0  0  0  0  0  0  0  0  0  0
    3.5589    0.6120   -0.0411 H   0  0  0  0  0  0  0  0  0  0  0  0
    2.7329    0.5972   -1.6315 H   0  0  0  0  0  0  0  0  0  0  0  0
    0.2646    2.5352   -2.7685 H   0  0  0  0  0  0  0  0  0  0  0  0
    0.5206    5.5556   -0.5999 H   0  0  0  0  0  0  0  0  0  0  0  0
   -1.8785    6.7954   -2.0110 H   0  0  0  0  0  0  0  0  0  0  0  0
   -1.2161    7.3820   -0.4379 H   0  0  0  0  0  0  0  0  0  0  0  0
   -0.1799    7.3501   -1.9188 H   0  0  0  0  0  0  0  0  0  0  0  0
   -0.7608    4.4574    0.8955 H   0  0  0  0  0  0  0  0  0  0  0  0
   -3.0800    4.9099   -1.9394 H   0  0  0  0  0  0  0  0  0  0  0  0
   -3.9226    2.7825   -1.6584 H   0  0  0  0  0  0  0  0  0  0  0  0
   -4.9388    3.2151   -0.2575 H   0  0  0  0  0  0  0  0  0  0  0  0
   -5.3794    3.8050   -1.9062 H   0  0  0  0  0  0  0  0  0  0  0  0
   -4.1581    6.8681   -1.5284 H   0  0  0  0  0  0  0  0  0  0  0  0
   -5.7484    4.7516    1.1800 H   0  0  0  0  0  0  0  0  0  0  0  0
   -5.8499    6.3697    3.0341 H   0  0  0  0  0  0  0  0  0  0  0  0
   -4.4789    6.7330    1.9287 H   0  0  0  0  0  0  0  0  0  0  0  0
   -5.9786    7.7372    1.8642 H   0  0  0  0  0  0  0  0  0  0  0  0
   -8.1359    6.6472    1.1221 H   0  0  0  0  0  0  0  0  0  0  0  0
   -7.0942    3.1215    0.4910 H   0  0  0  0  0  0  0  0  0  0  0  0
   -8.1299    2.7582    3.3823 H   0  0  0  0  0  0  0  0  0  0  0  0
   -6.8571    1.7724    2.5721 H   0  0  0  0  0  0  0  0  0  0  0  0
   -6.5474    3.4989    2.9357 H   0  0  0  0  0  0  0  0  0  0  0  0
   -9.8386    2.1717    1.4019 H   0  0  0  0  0  0  0  0  0  0  0  0
   -8.2589   -0.5910   -0.9803 H   0  0  0  0  0  0  0  0  0  0  0  0
   -5.9971    1.0028    0.3751 H   0  0  0  0  0  0  0  0  0  0  0  0
   -5.8506   -0.4641   -0.6520 H   0  0  0  0  0  0  0  0  0  0  0  0
   -6.3758    1.0952   -1.3926 H   0  0  0  0  0  0  0  0  0  0  0  0
   -8.2577   -0.0142    1.9588 H   0  0  0  0  0  0  0  0  0  0  0  0
   -7.7090   -3.9563    1.3652 H   0  0  0  0  0  0  0  0  0  0  0  0
   -9.7691   -4.0552    0.0586 H   0  0  0  0  0  0  0  0  0  0  0  0
   -9.7372   -2.2741   -0.2159 H   0  0  0  0  0  0  0  0  0  0  0  0
   -9.9530   -2.9330    1.4583 H   0  0  0  0  0  0  0  0  0  0  0  0
   -7.2540   -2.5158   -1.2939 H   0  0  0  0  0  0  0  0  0  0  0  0
   -7.8179   -5.9184    0.0560 H   0  0  0  0  0  0  0  0  0  0  0  0
   -7.1482   -7.1679   -1.9101 H   0  0  0  0  0  0  0  0  0  0  0  0
   -5.4070   -7.0550   -1.4657 H   0  0  0  0  0  0  0  0  0  0  0  0
   -6.5359   -7.9716   -0.4193 H   0  0  0  0  0  0  0  0  0  0  0  0
   -6.4272   -5.9624    1.8702 H   0  0  0  0  0  0  0  0  0  0  0  0
  1  2  1  0
  2  3  2  0
  2  4  1  0
  4  5  1  0
  5  6  1  0
  6  7  1  0
  7  8  1  0
  8  9  1  0
  9 10  1  0
 10 11  2  0
 11 12  1  0
 12 13  2  0
 13 14  1  0
 13 15  1  0
 15 16  1  0
 16 17  1  0
 17 18  1  0
 18 19  1  0
 19 20  1  0
 19 21  2  0
 18 22  1  0
 22 23  1  0
 23 24  2  0
 23 25  1  0
 25 26  1  0
 25 27  1  0
 27 28  1  0
 28 29  2  0
 28 30  1  0
 30 31  1  0
 30 32  1  0
 32 33  1  0
 33 34  2  0
 33 35  1  0
 35 36  1  0
 35 37  1  0
 37 38  1  0
 38 39  2  0
 38 40  1  0
 40 41  1  0
 40 42  1  0
 42 43  1  0
 43 44  2  0
 43 45  1  0
 45 46  1  0
 46 47  1  0
 47 48  1  0
 45 49  1  0
 49 50  1  0
 50 51  2  0
 50 52  1  0
 52 53  1  0
 52 54  1  0
 54 55  1  0
 55 56  2  0
 55 57  1  0
 57 58  1  0
 57 59  1  0
 59 60  1  0
 60 61  2  0
 60 62  1  0
 62 63  1  0
 62 64  1  0
 64 65  1  0
 65 66  2  0
 65 67  1  0
 67 68  1  0
 67 69  1  0
 69 70  1  0
 70 71  2  0
 70 72  1  0
 72 73  1  0
 72 74  1  0
 74 75  1  0
 75 76  2  0
 75 77  1  0
 77 78  1  0
 77 79  1  0
 79 80  1  0
 80 81  2  0
 80 82  1  0
 82 83  1  0
 82 84  1  0
 84 85  1  0
 85 86  2  0
 85  5  1  0
 14  9  2  0
 48 11  1  0
  1 87  1  0
  1 88  1  0
  1 89  1  0
  4 90  1  0
  5 91  1  6
  6 92  1  0
  6 93  1  0
  8 94  1  0
  8 95  1  0
 10 96  1  0
 12 97  1  0
 14 98  1  0
 15 99  1  0
 15100  1  0
 17101  1  0
 17102  1  0
 18103  1  1
 20104  1  0
 20105  1  0
 22106  1  0
 25107  1  6
 26108  1  0
 26109  1  0
 26110  1  0
 27111  1  0
 30112  1  1
 31113  1  0
 31114  1  0
 31115  1  0
 32116  1  0
 35117  1  1
 36118  1  0
 36119  1  0
 36120  1  0
 37121  1  0
 40122  1  6
 41123  1  0
 41124  1  0
 41125  1  0
 42126  1  0
 45127  1  6
 46128  1  0
 46129  1  0
 48130  1  0
 48131  1  0
 49132  1  0
 52133  1  1
 53134  1  0
 53135  1  0
 53136  1  0
 54137  1  0
 57138  1  6
 58139  1  0
 58140  1  0
 58141  1  0
 59142  1  0
 62143  1  1
 63144  1  0
 63145  1  0
 63146  1  0
 64147  1  0
 67148  1  6
 68149  1  0
 68150  1  0
 68151  1  0
 69152  1  0
 72153  1  6
 73154  1  0
 73155  1  0
 73156  1  0
 74157  1  0
 77158  1  1
 78159  1  0
 78160  1  0
 78161  1  0
 79162  1  0
 82163  1  1
 83164  1  0
 83165  1  0
 83166  1  0
 84167  1  0
M  END
