
     RDKit          3D

187189  0  0  0  0  0  0  0  0999 V2000
   -4.4469   -9.2636    0.2622 C   0  0  0  0  0  0  0  0  0  0  0  0
   -4.2137   -8.0360   -0.5590 C   0  0  0  0  0  0  0  0  0  0  0  0
   -4.2762   -8.1193   -1.8168 O   0  0  0  0  0  0  0  0  0  0  0  0
   -3.9337   -6.7749    0.0689 N   0  0  0  0  0  0  0  0  0  0  0  0
   -3.8807   -5.5180   -0.6919 C   0  0  2  0  0  0  0  0  0  0  0  0
   -3.3379   -4.3705    0.1882 C   0  0  0  0  0  0  0  0  0  0  0  0
   -3.4518   -2.7284   -0.6193 S   0  0  0  0  0  0  0  0  0  0  0  0
   -1.8766   -2.7816   -1.5425 C   0  0  0  0  0  0  0  0  0  0  0  0
   -0.6871   -2.6732   -0.6224 C   0  0  0  0  0  0  0  0  0  0  0  0
    0.2688   -3.6961   -0.5809 C   0  0  0  0  0  0  0  0  0  0  0  0
    1.3958   -3.5793    0.2454 C   0  0  0  0  0  0  0  0  0  0  0  0
    1.5486   -2.4422    1.0515 C   0  0  0  0  0  0  0  0  0  0  0  0
    0.5990   -1.4111    1.0207 C   0  0  0  0  0  0  0  0  0  0  0  0
   -0.5153   -1.5256    0.1716 C   0  0  0  0  0  0  0  0  0  0  0  0
    0.8401   -0.1597    1.8124 C   0  0  0  0  0  0  0  0  0  0  0  0
    1.9013    0.9769    0.8540 S   0  0  0  0  0  0  0  0  0  0  0  0
    0.6364    2.2158    0.3665 C   0  0  0  0  0  0  0  0  0  0  0  0
    0.2933    2.1377   -1.1320 C   0  0  1  0  0  0  0  0  0  0  0  0
   -1.0581    2.6650   -1.3589 N   0  0  0  0  0  0  0  0  0  0  0  0
   -1.3767    4.0567   -1.2162 C   0  0  0  0  0  0  0  0  0  0  0  0
   -1.3422    4.8048   -2.2301 O   0  0  0  0  0  0  0  0  0  0  0  0
   -1.8638    4.6136    0.1012 C   0  0  1  0  0  0  0  0  0  0  0  0
   -0.9919    5.8089    0.4984 C   0  0  0  0  0  0  0  0  0  0  0  0
   -3.2823    4.9767   -0.0311 N   0  0  0  0  0  0  0  0  0  0  0  0
   -4.0151    5.7794    0.9139 C   0  0  0  0  0  0  0  0  0  0  0  0
   -3.5359    6.0105    2.0546 O   0  0  0  0  0  0  0  0  0  0  0  0
   -5.4012    6.2941    0.5804 C   0  0  1  0  0  0  0  0  0  0  0  0
   -5.5334    7.7780    0.9270 C   0  0  0  0  0  0  0  0  0  0  0  0
   -5.6968    6.1079   -0.8500 N   0  0  0  0  0  0  0  0  0  0  0  0
   -6.5596    5.1049   -1.4226 C   0  0  0  0  0  0  0  0  0  0  0  0
   -6.5128    4.9218   -2.6667 O   0  0  0  0  0  0  0  0  0  0  0  0
   -7.5176    4.2530   -0.6179 C   0  0  1  0  0  0  0  0  0  0  0  0
   -6.7729    3.1774    0.1837 C   0  0  0  0  0  0  0  0  0  0  0  0
   -8.3805    5.0898    0.2271 N   0  0  0  0  0  0  0  0  0  0  0  0
   -9.2394    4.5994    1.2718 C   0  0  0  0  0  0  0  0  0  0  0  0
   -9.2168    5.1879    2.3891 O   0  0  0  0  0  0  0  0  0  0  0  0
  -10.1817    3.4205    1.0974 C   0  0  1  0  0  0  0  0  0  0  0  0
  -11.5624    3.7575    1.6724 C   0  0  0  0  0  0  0  0  0  0  0  0
  -10.3416    3.0575   -0.3139 N   0  0  0  0  0  0  0  0  0  0  0  0
  -10.2713    1.7096   -0.8055 C   0  0  0  0  0  0  0  0  0  0  0  0
   -9.8797    1.5166   -1.9876 O   0  0  0  0  0  0  0  0  0  0  0  0
  -10.6777    0.5212    0.0378 C   0  0  1  0  0  0  0  0  0  0  0  0
  -11.7502   -0.2947   -0.6995 C   0  0  0  0  0  0  0  0  0  0  0  0
   -9.4879   -0.2815    0.3523 N   0  0  0  0  0  0  0  0  0  0  0  0
   -9.5627   -1.6655    0.7138 C   0  0  0  0  0  0  0  0  0  0  0  0
   -9.8569   -1.9803    1.9016 O   0  0  0  0  0  0  0  0  0  0  0  0
   -9.3635   -2.7377   -0.3311 C   0  0  1  0  0  0  0  0  0  0  0  0
   -8.4316   -2.2839   -1.4592 C   0  0  0  0  0  0  0  0  0  0  0  0
   -8.8620   -3.9843    0.2637 N   0  0  0  0  0  0  0  0  0  0  0  0
   -7.5720   -4.0982    0.8856 C   0  0  0  0  0  0  0  0  0  0  0  0
   -7.0793   -3.1197    1.5085 O   0  0  0  0  0  0  0  0  0  0  0  0
   -6.7687   -5.3636    0.7485 C   0  0  1  0  0  0  0  0  0  0  0  0
   -7.4950   -6.5739    1.3383 C   0  0  0  0  0  0  0  0  0  0  0  0
   -6.4725   -5.5872   -0.6663 N   0  0  0  0  0  0  0  0  0  0  0  0
   -5.2377   -5.2141   -1.2970 C   0  0  0  0  0  0  0  0  0  0  0  0
   -5.2767   -4.7061   -2.4498 O   0  0  0  0  0  0  0  0  0  0  0  0
    1.2846    2.8465   -2.0391 C   0  0  0  0  0  0  0  0  0  0  0  0
    0.9575    3.0944   -3.2330 O   0  0  0  0  0  0  0  0  0  0  0  0
    2.6193    3.1490   -1.6056 N   0  0  0  0  0  0  0  0  0  0  0  0
    3.1462    4.5123   -1.4304 C   0  0  2  0  0  0  0  0  0  0  0  0
    2.3061    5.5784   -2.1493 C   0  0  0  0  0  0  0  0  0  0  0  0
    4.5683    4.5690   -1.9356 C   0  0  0  0  0  0  0  0  0  0  0  0
    4.7836    4.3744   -3.1643 O   0  0  0  0  0  0  0  0  0  0  0  0
    5.6846    4.8822   -1.0863 N   0  0  0  0  0  0  0  0  0  0  0  0
    5.6834    4.7684    0.3780 C   0  0  2  0  0  0  0  0  0  0  0  0
    5.3657    6.1378    0.9835 C   0  0  0  0  0  0  0  0  0  0  0  0
    7.0203    4.2674    0.8872 C   0  0  0  0  0  0  0  0  0  0  0  0
    7.2380    4.2499    2.1284 O   0  0  0  0  0  0  0  0  0  0  0  0
    8.0386    3.8070   -0.0157 N   0  0  0  0  0  0  0  0  0  0  0  0
    9.4683    3.9473    0.2769 C   0  0  2  0  0  0  0  0  0  0  0  0
    9.8271    5.4219    0.4977 C   0  0  0  0  0  0  0  0  0  0  0  0
   10.2890    3.4080   -0.8735 C   0  0  0  0  0  0  0  0  0  0  0  0
   10.0794    3.8745   -2.0304 O   0  0  0  0  0  0  0  0  0  0  0  0
   11.3306    2.4310   -0.7057 N   0  0  0  0  0  0  0  0  0  0  0  0
   11.4015    1.4527    0.3810 C   0  0  2  0  0  0  0  0  0  0  0  0
   12.4549    1.8943    1.3971 C   0  0  0  0  0  0  0  0  0  0  0  0
   11.7496    0.0978   -0.2011 C   0  0  0  0  0  0  0  0  0  0  0  0
   12.8834   -0.0544   -0.7353 O   0  0  0  0  0  0  0  0  0  0  0  0
   10.8095   -0.9898   -0.2601 N   0  0  0  0  0  0  0  0  0  0  0  0
    9.6884   -1.1877    0.6706 C   0  0  2  0  0  0  0  0  0  0  0  0
   10.2065   -1.3940    2.1004 C   0  0  0  0  0  0  0  0  0  0  0  0
    8.8637   -2.3874    0.2605 C   0  0  0  0  0  0  0  0  0  0  0  0
    7.6364   -2.2336    0.0073 O   0  0  0  0  0  0  0  0  0  0  0  0
    9.4742   -3.6867    0.1471 N   0  0  0  0  0  0  0  0  0  0  0  0
    8.6988   -4.9348    0.1258 C   0  0  2  0  0  0  0  0  0  0  0  0
    9.6511   -6.1295    0.2386 C   0  0  0  0  0  0  0  0  0  0  0  0
    7.8945   -5.0497   -1.1537 C   0  0  0  0  0  0  0  0  0  0  0  0
    8.4283   -4.6464   -2.2274 O   0  0  0  0  0  0  0  0  0  0  0  0
    6.6013   -5.6832   -1.2317 N   0  0  0  0  0  0  0  0  0  0  0  0
    5.7170   -6.0662   -0.1234 C   0  0  1  0  0  0  0  0  0  0  0  0
    6.3735   -7.0914    0.7713 C   0  0  0  0  0  0  0  0  0  0  0  0
    6.7058   -8.3747    0.2436 N   0  0  0  0  0  0  0  0  0  0  0  0
    6.6093   -6.8423    1.9825 O   0  0  0  0  0  0  0  0  0  0  0  0
    5.1929   -4.8278    0.6246 C   0  0  0  0  0  0  0  0  0  0  0  0
    4.0103   -3.9053   -0.4281 S   0  0  0  0  0  0  0  0  0  0  0  0
    2.4677   -4.6281    0.2476 C   0  0  0  0  0  0  0  0  0  0  0  0
   -4.3113   -9.0528    1.3420 H   0  0  0  0  0  0  0  0  0  0  0  0
   -3.7360  -10.0599   -0.0425 H   0  0  0  0  0  0  0  0  0  0  0  0
   -5.4842   -9.6212    0.1000 H   0  0  0  0  0  0  0  0  0  0  0  0
   -3.7604   -6.7594    1.1018 H   0  0  0  0  0  0  0  0  0  0  0  0
   -3.1565   -5.6598   -1.5249 H   0  0  0  0  0  0  0  0  0  0  0  0
   -3.9034   -4.3038    1.1371 H   0  0  0  0  0  0  0  0  0  0  0  0
   -2.2863   -4.5918    0.4745 H   0  0  0  0  0  0  0  0  0  0  0  0
   -1.8621   -1.9174   -2.2343 H   0  0  0  0  0  0  0  0  0  0  0  0
   -1.8369   -3.6959   -2.1634 H   0  0  0  0  0  0  0  0  0  0  0  0
    0.1499   -4.5645   -1.2156 H   0  0  0  0  0  0  0  0  0  0  0  0
    2.4297   -2.3433    1.6777 H   0  0  0  0  0  0  0  0  0  0  0  0
   -1.2328   -0.7137    0.1188 H   0  0  0  0  0  0  0  0  0  0  0  0
    1.3876   -0.4106    2.7417 H   0  0  0  0  0  0  0  0  0  0  0  0
   -0.1197    0.2932    2.1377 H   0  0  0  0  0  0  0  0  0  0  0  0
    1.0182    3.2287    0.6161 H   0  0  0  0  0  0  0  0  0  0  0  0
   -0.2877    2.0730    0.9596 H   0  0  0  0  0  0  0  0  0  0  0  0
    0.2839    1.0691   -1.4350 H   0  0  0  0  0  0  0  0  0  0  0  0
   -1.7671    2.0485   -1.8248 H   0  0  0  0  0  0  0  0  0  0  0  0
   -1.7759    3.8335    0.8880 H   0  0  0  0  0  0  0  0  0  0  0  0
   -1.1325    6.0638    1.5688 H   0  0  0  0  0  0  0  0  0  0  0  0
   -1.2328    6.6988   -0.1214 H   0  0  0  0  0  0  0  0  0  0  0  0
    0.0827    5.5606    0.3763 H   0  0  0  0  0  0  0  0  0  0  0  0
   -3.8395    4.4278   -0.7328 H   0  0  0  0  0  0  0  0  0  0  0  0
   -6.1239    5.7527    1.2129 H   0  0  0  0  0  0  0  0  0  0  0  0
   -4.8018    8.3837    0.3507 H   0  0  0  0  0  0  0  0  0  0  0  0
   -6.5574    8.1294    0.6930 H   0  0  0  0  0  0  0  0  0  0  0  0
   -5.3563    7.9445    2.0158 H   0  0  0  0  0  0  0  0  0  0  0  0
   -5.1254    6.6704   -1.5218 H   0  0  0  0  0  0  0  0  0  0  0  0
   -8.1559    3.7194   -1.3502 H   0  0  0  0  0  0  0  0  0  0  0  0
   -7.4750    2.3634    0.4644 H   0  0  0  0  0  0  0  0  0  0  0  0
   -5.9588    2.7269   -0.4237 H   0  0  0  0  0  0  0  0  0  0  0  0
   -6.3340    3.5742    1.1211 H   0  0  0  0  0  0  0  0  0  0  0  0
   -8.2593    6.1287    0.1951 H   0  0  0  0  0  0  0  0  0  0  0  0
   -9.7542    2.5678    1.6694 H   0  0  0  0  0  0  0  0  0  0  0  0
  -11.9890    4.6399    1.1479 H   0  0  0  0  0  0  0  0  0  0  0  0
  -11.4931    3.9836    2.7565 H   0  0  0  0  0  0  0  0  0  0  0  0
  -12.2542    2.9009    1.5407 H   0  0  0  0  0  0  0  0  0  0  0  0
  -10.5010    3.8212   -1.0103 H   0  0  0  0  0  0  0  0  0  0  0  0
  -11.1322    0.8648    0.9886 H   0  0  0  0  0  0  0  0  0  0  0  0
  -11.3314   -0.7509   -1.6229 H   0  0  0  0  0  0  0  0  0  0  0  0
  -12.6047    0.3593   -0.9767 H   0  0  0  0  0  0  0  0  0  0  0  0
  -12.1425   -1.0993   -0.0398 H   0  0  0  0  0  0  0  0  0  0  0  0
   -8.6542    0.2362    0.7147 H   0  0  0  0  0  0  0  0  0  0  0  0
  -10.3590   -2.9474   -0.7855 H   0  0  0  0  0  0  0  0  0  0  0  0
   -8.2627   -3.1215   -2.1699 H   0  0  0  0  0  0  0  0  0  0  0  0
   -7.4451   -1.9596   -1.0533 H   0  0  0  0  0  0  0  0  0  0  0  0
   -8.8850   -1.4371   -2.0237 H   0  0  0  0  0  0  0  0  0  0  0  0
   -9.4113   -4.8528    0.0813 H   0  0  0  0  0  0  0  0  0  0  0  0
   -5.8353   -5.2517    1.3274 H   0  0  0  0  0  0  0  0  0  0  0  0
   -7.8006   -6.3646    2.3866 H   0  0  0  0  0  0  0  0  0  0  0  0
   -6.8127   -7.4500    1.3395 H   0  0  0  0  0  0  0  0  0  0  0  0
   -8.3960   -6.8354    0.7477 H   0  0  0  0  0  0  0  0  0  0  0  0
   -7.2847   -5.7780   -1.2978 H   0  0  0  0  0  0  0  0  0  0  0  0
    3.1571    2.3850   -1.1433 H   0  0  0  0  0  0  0  0  0  0  0  0
    3.0974    4.7581   -0.3520 H   0  0  0  0  0  0  0  0  0  0  0  0
    2.2610    5.3923   -3.2464 H   0  0  0  0  0  0  0  0  0  0  0  0
    2.7494    6.5845   -1.9738 H   0  0  0  0  0  0  0  0  0  0  0  0
    1.2754    5.5923   -1.7381 H   0  0  0  0  0  0  0  0  0  0  0  0
    6.5303    5.2870   -1.5530 H   0  0  0  0  0  0  0  0  0  0  0  0
    4.9180    4.0349    0.7069 H   0  0  0  0  0  0  0  0  0  0  0  0
    5.2633    6.0572    2.0863 H   0  0  0  0  0  0  0  0  0  0  0  0
    4.4130    6.5312    0.5747 H   0  0  0  0  0  0  0  0  0  0  0  0
    6.1773    6.8610    0.7536 H   0  0  0  0  0  0  0  0  0  0  0  0
    7.7368    3.3480   -0.9079 H   0  0  0  0  0  0  0  0  0  0  0  0
    9.6942    3.4122    1.2199 H   0  0  0  0  0  0  0  0  0  0  0  0
   10.9172    5.5269    0.6734 H   0  0  0  0  0  0  0  0  0  0  0  0
    9.3027    5.8274    1.3867 H   0  0  0  0  0  0  0  0  0  0  0  0
    9.5452    6.0352   -0.3840 H   0  0  0  0  0  0  0  0  0  0  0  0
   12.0846    2.4212   -1.4318 H   0  0  0  0  0  0  0  0  0  0  0  0
   10.4275    1.3903    0.8957 H   0  0  0  0  0  0  0  0  0  0  0  0
   12.2011    2.9027    1.7938 H   0  0  0  0  0  0  0  0  0  0  0  0
   13.4611    1.9476    0.9282 H   0  0  0  0  0  0  0  0  0  0  0  0
   12.4941    1.1855    2.2505 H   0  0  0  0  0  0  0  0  0  0  0  0
   11.0131   -1.7297   -0.9720 H   0  0  0  0  0  0  0  0  0  0  0  0
    9.0241   -0.2931    0.6517 H   0  0  0  0  0  0  0  0  0  0  0  0
   10.7131   -0.4779    2.4624 H   0  0  0  0  0  0  0  0  0  0  0  0
    9.3586   -1.6105    2.7847 H   0  0  0  0  0  0  0  0  0  0  0  0
   10.9308   -2.2382    2.1341 H   0  0  0  0  0  0  0  0  0  0  0  0
   10.5220   -3.7331    0.1649 H   0  0  0  0  0  0  0  0  0  0  0  0
    8.0463   -4.9438    1.0156 H   0  0  0  0  0  0  0  0  0  0  0  0
   10.2007   -6.0821    1.2012 H   0  0  0  0  0  0  0  0  0  0  0  0
    9.0906   -7.0803    0.2025 H   0  0  0  0  0  0  0  0  0  0  0  0
   10.3858   -6.1202   -0.5936 H   0  0  0  0  0  0  0  0  0  0  0  0
    6.2387   -5.8796   -2.1929 H   0  0  0  0  0  0  0  0  0  0  0  0
    4.8239   -6.5757   -0.5525 H   0  0  0  0  0  0  0  0  0  0  0  0
    6.5036   -8.6159   -0.7516 H   0  0  0  0  0  0  0  0  0  0  0  0
    7.1451   -9.0953    0.8579 H   0  0  0  0  0  0  0  0  0  0  0  0
    4.7303   -5.1222    1.5917 H   0  0  0  0  0  0  0  0  0  0  0  0
    6.0197   -4.1388    0.8781 H   0  0  0  0  0  0  0  0  0  0  0  0
    2.5877   -4.9850    1.2896 H   0  0  0  0  0  0  0  0  0  0  0  0
    2.1844   -5.5044   -0.3761 H   0  0  0  0  0  0  0  0  0  0  0  0
  1  2  1  0
  2  3  2  0
  2  4  1  0
  4  5  1  0
  5  6  1  0
  6  7  1  0
  7  8  1  0
  8  9  1  0
  9 10  1  0
 10 11  2  0
 11 12  1  0
 12 13  2  0
 13 14  1  0
 13 15  1  0
 15 16  1  0
 16 17  1  0
 17 18  1  0
 18 19  1  0
 19 20  1  0
 20 21  2  0
 20 22  1  0
 22 23  1  0
 22 24  1  0
 24 25  1  0
 25 26  2  0
 25 27  1  0
 27 28  1  0
 27 29  1  0
 29 30  1  0
 30 31  2  0
 30 32  1  0
 32 33  1  0
 32 34  1  0
 34 35  1  0
 35 36  2  0
 35 37  1  0
 37 38  1  0
 37 39  1  0
 39 40  1  0
 40 41  2  0
 40 42  1  0
 42 43  1  0
 42 44  1  0
 44 45  1  0
 45 46  2  0
 45 47  1  0
 47 48  1  0
 47 49  1  0
 49 50  1  0
 50 51  2  0
 50 52  1  0
 52 53  1  0
 52 54  1  0
 54 55  1  0
 55 56  2  0
 18 57  1  0
 57 58  2  0
 57 59  1  0
 59 60  1  0
 60 61  1  0
 60 62  1  0
 62 63  2  0
 62 64  1  0
 64 65  1  0
 65 66  1  0
 65 67  1  0
 67 68  2  0
 67 69  1  0
 69 70  1  0
 70 71  1  0
 70 72  1  0
 72 73  2  0
 72 74  1  0
 74 75  1  0
 75 76  1  0
 75 77  1  0
 77 78  2  0
 77 79  1  0
 79 80  1  0
 80 81  1  0
 80 82  1  0
 82 83  2  0
 82 84  1  0
 84 85  1  0
 85 86  1  0
 85 87  1  0
 87 88  2  0
 87 89  1  0
 89 90  1  0
 90 91  1  0
 91 92  1  0
 91 93  2  0
 90 94  1  0
 94 95  1  0
 95 96  1  0
 55  5  1  0
 14  9  2  0
 96 11  1  0
  1 97  1  0
  1 98  1  0
  1 99  1  0
  4100  1  0
  5101  1  6
  6102  1  0
  6103  1  0
  8104  1  0
  8105  1  0
 10106  1  0
 12107  1  0
 14108  1  0
 15109  1  0
 15110  1  0
 17111  1  0
 17112  1  0
 18113  1  6
 19114  1  0
 22115  1  1
 23116  1  0
 23117  1  0
 23118  1  0
 24119  1  0
 27120  1  1
 28121  1  0
 28122  1  0
 28123  1  0
 29124  1  0
 32125  1  6
 33126  1  0
 33127  1  0
 33128  1  0
 34129  1  0
 37130  1  1
 38131  1  0
 38132  1  0
 38133  1  0
 39134  1  0
 42135  1  1
 43136  1  0
 43137  1  0
 43138  1  0
 44139  1  0
 47140  1  6
 48141  1  0
 48142  1  0
 48143  1  0
 49144  1  0
 52145  1  1
 53146  1  0
 53147  1  0
 53148  1  0
 54149  1  0
 59150  1  0
 60151  1  1
 61152  1  0
 61153  1  0
 61154  1  0
 64155  1  0
 65156  1  6
 66157  1  0
 66158  1  0
 66159  1  0
 69160  1  0
 70161  1  1
 71162  1  0
 71163  1  0
 71164  1  0
 74165  1  0
 75166  1  1
 76167  1  0
 76168  1  0
 76169  1  0
 79170  1  0
 80171  1  1
 81172  1  0
 81173  1  0
 81174  1  0
 84175  1  0
 85176  1  1
 86177  1  0
 86178  1  0
 86179  1  0
 89180  1  0
 90181  1  6
 92182  1  0
 92183  1  0
 94184  1  0
 94185  1  0
 96186  1  0
 96187  1  0
M  END
