
     RDKit          3D

187189  0  0  0  0  0  0  0  0999 V2000
    4.7192   -9.1951   -0.1742 C   0  0  0  0  0  0  0  0  0  0  0  0
    3.6965   -8.1565    0.1449 C   0  0  0  0  0  0  0  0  0  0  0  0
    2.7611   -8.4229    0.9460 O   0  0  0  0  0  0  0  0  0  0  0  0
    3.7452   -6.8671   -0.4775 N   0  0  0  0  0  0  0  0  0  0  0  0
    4.5733   -5.7542    0.0136 C   0  0  1  0  0  0  0  0  0  0  0  0
    3.8184   -4.4238   -0.1588 C   0  0  0  0  0  0  0  0  0  0  0  0
    2.1529   -4.4523    0.6289 S   0  0  0  0  0  0  0  0  0  0  0  0
    1.1375   -4.6349   -0.8864 C   0  0  0  0  0  0  0  0  0  0  0  0
   -0.0696   -3.7433   -0.7975 C   0  0  0  0  0  0  0  0  0  0  0  0
   -1.3511   -4.2807   -0.6003 C   0  0  0  0  0  0  0  0  0  0  0  0
   -2.4826   -3.4572   -0.6871 C   0  0  0  0  0  0  0  0  0  0  0  0
   -2.3222   -2.0871   -0.9349 C   0  0  0  0  0  0  0  0  0  0  0  0
   -1.0392   -1.5224   -1.0263 C   0  0  0  0  0  0  0  0  0  0  0  0
    0.0791   -2.3666   -0.9857 C   0  0  0  0  0  0  0  0  0  0  0  0
   -0.8331   -0.0405   -1.2206 C   0  0  0  0  0  0  0  0  0  0  0  0
   -1.8560    0.9543   -0.0553 S   0  0  0  0  0  0  0  0  0  0  0  0
   -0.5799    2.1493    0.5351 C   0  0  0  0  0  0  0  0  0  0  0  0
   -0.9055    3.5826    0.0906 C   0  0  1  0  0  0  0  0  0  0  0  0
   -0.0874    4.5586    0.8165 N   0  0  0  0  0  0  0  0  0  0  0  0
    1.3385    4.6306    0.7046 C   0  0  0  0  0  0  0  0  0  0  0  0
    2.0456    3.6966    1.1717 O   0  0  0  0  0  0  0  0  0  0  0  0
    2.0089    5.7882    0.0105 C   0  0  1  0  0  0  0  0  0  0  0  0
    1.0516    6.9499   -0.2747 C   0  0  0  0  0  0  0  0  0  0  0  0
    3.1261    6.2835    0.8218 N   0  0  0  0  0  0  0  0  0  0  0  0
    4.2953    6.8626    0.2211 C   0  0  0  0  0  0  0  0  0  0  0  0
    4.6988    7.9877    0.6264 O   0  0  0  0  0  0  0  0  0  0  0  0
    5.0206    6.1537   -0.9057 C   0  0  1  0  0  0  0  0  0  0  0  0
    6.3632    6.8073   -1.2708 C   0  0  0  0  0  0  0  0  0  0  0  0
    5.1860    4.7228   -0.6134 N   0  0  0  0  0  0  0  0  0  0  0  0
    5.6538    4.1766    0.6323 C   0  0  0  0  0  0  0  0  0  0  0  0
    4.9740    3.2764    1.1926 O   0  0  0  0  0  0  0  0  0  0  0  0
    6.9535    4.6077    1.2627 C   0  0  1  0  0  0  0  0  0  0  0  0
    6.7037    5.5681    2.4319 C   0  0  0  0  0  0  0  0  0  0  0  0
    7.6674    3.4286    1.7564 N   0  0  0  0  0  0  0  0  0  0  0  0
    8.8740    2.9194    1.1632 C   0  0  0  0  0  0  0  0  0  0  0  0
    9.7176    2.3464    1.9035 O   0  0  0  0  0  0  0  0  0  0  0  0
    9.1097    2.9543   -0.3234 C   0  0  1  0  0  0  0  0  0  0  0  0
   10.3758    3.7665   -0.6370 C   0  0  0  0  0  0  0  0  0  0  0  0
    9.1646    1.5757   -0.8267 N   0  0  0  0  0  0  0  0  0  0  0  0
   10.3469    0.9125   -1.2958 C   0  0  0  0  0  0  0  0  0  0  0  0
   10.9700    1.3695   -2.2950 O   0  0  0  0  0  0  0  0  0  0  0  0
   10.8624   -0.3321   -0.6193 C   0  0  1  0  0  0  0  0  0  0  0  0
   11.9888    0.0306    0.3486 C   0  0  0  0  0  0  0  0  0  0  0  0
    9.7918   -1.0229    0.1021 N   0  0  0  0  0  0  0  0  0  0  0  0
    9.1335   -2.1638   -0.4562 C   0  0  0  0  0  0  0  0  0  0  0  0
    8.0605   -1.9957   -1.0993 O   0  0  0  0  0  0  0  0  0  0  0  0
    9.6314   -3.5569   -0.1817 C   0  0  1  0  0  0  0  0  0  0  0  0
   11.0872   -3.7303   -0.6243 C   0  0  0  0  0  0  0  0  0  0  0  0
    9.5033   -3.8479    1.2517 N   0  0  0  0  0  0  0  0  0  0  0  0
    8.6031   -4.8075    1.8391 C   0  0  0  0  0  0  0  0  0  0  0  0
    8.7516   -5.0893    3.0594 O   0  0  0  0  0  0  0  0  0  0  0  0
    7.5152   -5.5033    1.0422 C   0  0  1  0  0  0  0  0  0  0  0  0
    8.0718   -6.7790    0.4058 C   0  0  0  0  0  0  0  0  0  0  0  0
    6.3716   -5.8486    1.8974 N   0  0  0  0  0  0  0  0  0  0  0  0
    5.0000   -5.9311    1.4660 C   0  0  0  0  0  0  0  0  0  0  0  0
    4.1101   -6.1475    2.3359 O   0  0  0  0  0  0  0  0  0  0  0  0
   -0.7346    3.7572   -1.4065 C   0  0  0  0  0  0  0  0  0  0  0  0
    0.4058    3.5884   -1.9061 O   0  0  0  0  0  0  0  0  0  0  0  0
   -1.8310    4.0685   -2.2917 N   0  0  0  0  0  0  0  0  0  0  0  0
   -3.0547    4.8025   -1.9363 C   0  0  2  0  0  0  0  0  0  0  0  0
   -2.6908    6.1390   -1.2603 C   0  0  0  0  0  0  0  0  0  0  0  0
   -4.0004    3.9057   -1.1629 C   0  0  0  0  0  0  0  0  0  0  0  0
   -4.2772    2.7770   -1.6524 O   0  0  0  0  0  0  0  0  0  0  0  0
   -4.5393    4.2491    0.1233 N   0  0  0  0  0  0  0  0  0  0  0  0
   -5.4792    5.3561    0.3383 C   0  0  2  0  0  0  0  0  0  0  0  0
   -6.0204    5.3382    1.7743 C   0  0  0  0  0  0  0  0  0  0  0  0
   -6.6216    5.2824   -0.6373 C   0  0  0  0  0  0  0  0  0  0  0  0
   -6.7584    6.1802   -1.5140 O   0  0  0  0  0  0  0  0  0  0  0  0
   -7.5008    4.1454   -0.6235 N   0  0  0  0  0  0  0  0  0  0  0  0
   -8.9646    4.2154   -0.5154 C   0  0  2  0  0  0  0  0  0  0  0  0
   -9.5071    5.6524   -0.4462 C   0  0  0  0  0  0  0  0  0  0  0  0
   -9.4061    3.4340    0.6958 C   0  0  0  0  0  0  0  0  0  0  0  0
   -9.3343    3.9532    1.8417 O   0  0  0  0  0  0  0  0  0  0  0  0
   -9.8911    2.0891    0.5714 N   0  0  0  0  0  0  0  0  0  0  0  0
   -9.0105    0.9977    0.1338 C   0  0  2  0  0  0  0  0  0  0  0  0
   -9.2388    0.6999   -1.3553 C   0  0  0  0  0  0  0  0  0  0  0  0
   -9.2335   -0.2241    1.0012 C   0  0  0  0  0  0  0  0  0  0  0  0
   -9.1785   -0.1105    2.2546 O   0  0  0  0  0  0  0  0  0  0  0  0
   -9.4644   -1.5121    0.4231 N   0  0  0  0  0  0  0  0  0  0  0  0
  -10.7862   -2.1496    0.3158 C   0  0  2  0  0  0  0  0  0  0  0  0
  -11.9111   -1.2775    0.9059 C   0  0  0  0  0  0  0  0  0  0  0  0
  -10.7542   -3.5207    0.9567 C   0  0  0  0  0  0  0  0  0  0  0  0
  -11.0842   -3.6411    2.1659 O   0  0  0  0  0  0  0  0  0  0  0  0
  -10.3246   -4.6959    0.2467 N   0  0  0  0  0  0  0  0  0  0  0  0
   -9.6546   -4.6849   -1.0644 C   0  0  2  0  0  0  0  0  0  0  0  0
  -10.6610   -5.0856   -2.1449 C   0  0  0  0  0  0  0  0  0  0  0  0
   -8.4316   -5.5839   -1.0356 C   0  0  0  0  0  0  0  0  0  0  0  0
   -8.4856   -6.7255   -1.5606 O   0  0  0  0  0  0  0  0  0  0  0  0
   -7.1919   -5.1403   -0.4592 N   0  0  0  0  0  0  0  0  0  0  0  0
   -7.1165   -4.4640    0.8432 C   0  0  1  0  0  0  0  0  0  0  0  0
   -6.7783   -5.4291    1.9574 C   0  0  0  0  0  0  0  0  0  0  0  0
   -6.2653   -6.7429    1.7053 N   0  0  0  0  0  0  0  0  0  0  0  0
   -6.9210   -5.0493    3.1542 O   0  0  0  0  0  0  0  0  0  0  0  0
   -6.1800   -3.2371    0.7880 C   0  0  0  0  0  0  0  0  0  0  0  0
   -4.4272   -3.5997    1.1945 S   0  0  0  0  0  0  0  0  0  0  0  0
   -3.8531   -4.0352   -0.4812 C   0  0  0  0  0  0  0  0  0  0  0  0
    4.2141  -10.1022   -0.5804 H   0  0  0  0  0  0  0  0  0  0  0  0
    5.4395   -8.8150   -0.9259 H   0  0  0  0  0  0  0  0  0  0  0  0
    5.2691   -9.4694    0.7517 H   0  0  0  0  0  0  0  0  0  0  0  0
    3.4247   -6.8265   -1.4742 H   0  0  0  0  0  0  0  0  0  0  0  0
    5.4579   -5.7066   -0.6453 H   0  0  0  0  0  0  0  0  0  0  0  0
    4.3935   -3.6030    0.3240 H   0  0  0  0  0  0  0  0  0  0  0  0
    3.7729   -4.1536   -1.2328 H   0  0  0  0  0  0  0  0  0  0  0  0
    1.6913   -4.3688   -1.8143 H   0  0  0  0  0  0  0  0  0  0  0  0
    0.8280   -5.7021   -0.9907 H   0  0  0  0  0  0  0  0  0  0  0  0
   -1.4630   -5.3365   -0.3981 H   0  0  0  0  0  0  0  0  0  0  0  0
   -3.1987   -1.4565   -1.0250 H   0  0  0  0  0  0  0  0  0  0  0  0
    1.0704   -1.9593   -1.1360 H   0  0  0  0  0  0  0  0  0  0  0  0
   -1.0728    0.2505   -2.2595 H   0  0  0  0  0  0  0  0  0  0  0  0
    0.2393    0.1973   -1.0958 H   0  0  0  0  0  0  0  0  0  0  0  0
    0.4505    1.8752    0.2256 H   0  0  0  0  0  0  0  0  0  0  0  0
   -0.5908    2.1143    1.6452 H   0  0  0  0  0  0  0  0  0  0  0  0
   -1.9574    3.7619    0.3747 H   0  0  0  0  0  0  0  0  0  0  0  0
   -0.4998    4.9794    1.6858 H   0  0  0  0  0  0  0  0  0  0  0  0
    2.3840    5.4112   -0.9643 H   0  0  0  0  0  0  0  0  0  0  0  0
    0.3112    6.6552   -1.0436 H   0  0  0  0  0  0  0  0  0  0  0  0
    1.6256    7.8209   -0.6543 H   0  0  0  0  0  0  0  0  0  0  0  0
    0.5253    7.2589    0.6523 H   0  0  0  0  0  0  0  0  0  0  0  0
    2.9174    6.5583    1.8105 H   0  0  0  0  0  0  0  0  0  0  0  0
    4.3809    6.2438   -1.8133 H   0  0  0  0  0  0  0  0  0  0  0  0
    6.1779    7.7545   -1.8135 H   0  0  0  0  0  0  0  0  0  0  0  0
    6.9561    7.0475   -0.3645 H   0  0  0  0  0  0  0  0  0  0  0  0
    6.9514    6.1325   -1.9282 H   0  0  0  0  0  0  0  0  0  0  0  0
    4.6795    4.0592   -1.2468 H   0  0  0  0  0  0  0  0  0  0  0  0
    7.5822    5.1277    0.5228 H   0  0  0  0  0  0  0  0  0  0  0  0
    5.9820    5.1270    3.1503 H   0  0  0  0  0  0  0  0  0  0  0  0
    6.3056    6.5378    2.0710 H   0  0  0  0  0  0  0  0  0  0  0  0
    7.6545    5.7641    2.9684 H   0  0  0  0  0  0  0  0  0  0  0  0
    7.3803    3.0258    2.6738 H   0  0  0  0  0  0  0  0  0  0  0  0
    8.2621    3.4550   -0.8390 H   0  0  0  0  0  0  0  0  0  0  0  0
   10.2714    4.7939   -0.2299 H   0  0  0  0  0  0  0  0  0  0  0  0
   11.2787    3.2996   -0.1823 H   0  0  0  0  0  0  0  0  0  0  0  0
   10.5164    3.8520   -1.7347 H   0  0  0  0  0  0  0  0  0  0  0  0
    8.3082    0.9905   -0.6852 H   0  0  0  0  0  0  0  0  0  0  0  0
   11.2777   -1.0011   -1.4049 H   0  0  0  0  0  0  0  0  0  0  0  0
   12.8207    0.5309   -0.1963 H   0  0  0  0  0  0  0  0  0  0  0  0
   12.3859   -0.8845    0.8385 H   0  0  0  0  0  0  0  0  0  0  0  0
   11.6162    0.7199    1.1394 H   0  0  0  0  0  0  0  0  0  0  0  0
    9.3353   -0.5426    0.9132 H   0  0  0  0  0  0  0  0  0  0  0  0
    9.0354   -4.2641   -0.7931 H   0  0  0  0  0  0  0  0  0  0  0  0
   11.1898   -3.4831   -1.7004 H   0  0  0  0  0  0  0  0  0  0  0  0
   11.7601   -3.0793   -0.0352 H   0  0  0  0  0  0  0  0  0  0  0  0
   11.4061   -4.7819   -0.4785 H   0  0  0  0  0  0  0  0  0  0  0  0
   10.1114   -3.3035    1.9051 H   0  0  0  0  0  0  0  0  0  0  0  0
    7.1803   -4.7928    0.2629 H   0  0  0  0  0  0  0  0  0  0  0  0
    8.8859   -6.5437   -0.3094 H   0  0  0  0  0  0  0  0  0  0  0  0
    8.4736   -7.4565    1.1845 H   0  0  0  0  0  0  0  0  0  0  0  0
    7.2708   -7.3101   -0.1468 H   0  0  0  0  0  0  0  0  0  0  0  0
    6.5565   -6.1323    2.8881 H   0  0  0  0  0  0  0  0  0  0  0  0
   -1.6816    3.8842   -3.3123 H   0  0  0  0  0  0  0  0  0  0  0  0
   -3.5904    5.0649   -2.8803 H   0  0  0  0  0  0  0  0  0  0  0  0
   -3.5366    6.8523   -1.3431 H   0  0  0  0  0  0  0  0  0  0  0  0
   -1.8640    6.6173   -1.8187 H   0  0  0  0  0  0  0  0  0  0  0  0
   -2.3870    6.0078   -0.2046 H   0  0  0  0  0  0  0  0  0  0  0  0
   -4.4660    3.5112    0.8620 H   0  0  0  0  0  0  0  0  0  0  0  0
   -4.9520    6.3168    0.2141 H   0  0  0  0  0  0  0  0  0  0  0  0
   -5.1855    5.4824    2.4871 H   0  0  0  0  0  0  0  0  0  0  0  0
   -6.7398    6.1762    1.9205 H   0  0  0  0  0  0  0  0  0  0  0  0
   -6.5272    4.3760    1.9966 H   0  0  0  0  0  0  0  0  0  0  0  0
   -7.0550    3.1994   -0.6093 H   0  0  0  0  0  0  0  0  0  0  0  0
   -9.4044    3.7534   -1.4216 H   0  0  0  0  0  0  0  0  0  0  0  0
  -10.6158    5.6391   -0.3477 H   0  0  0  0  0  0  0  0  0  0  0  0
   -9.0814    6.2002    0.4239 H   0  0  0  0  0  0  0  0  0  0  0  0
   -9.2635    6.2128   -1.3746 H   0  0  0  0  0  0  0  0  0  0  0  0
  -10.7274    1.8488    1.1517 H   0  0  0  0  0  0  0  0  0  0  0  0
   -7.9484    1.2936    0.2724 H   0  0  0  0  0  0  0  0  0  0  0  0
   -8.5346   -0.0812   -1.7067 H   0  0  0  0  0  0  0  0  0  0  0  0
   -9.0678    1.6053   -1.9716 H   0  0  0  0  0  0  0  0  0  0  0  0
  -10.2811    0.3537   -1.5265 H   0  0  0  0  0  0  0  0  0  0  0  0
   -8.6672   -1.9251   -0.1032 H   0  0  0  0  0  0  0  0  0  0  0  0
  -11.0212   -2.2647   -0.7621 H   0  0  0  0  0  0  0  0  0  0  0  0
  -11.7283   -1.0663    1.9791 H   0  0  0  0  0  0  0  0  0  0  0  0
  -11.9760   -0.3168    0.3547 H   0  0  0  0  0  0  0  0  0  0  0  0
  -12.8884   -1.7976    0.8101 H   0  0  0  0  0  0  0  0  0  0  0  0
  -10.5090   -5.6262    0.6863 H   0  0  0  0  0  0  0  0  0  0  0  0
   -9.2931   -3.6736   -1.3171 H   0  0  0  0  0  0  0  0  0  0  0  0
  -11.0816   -6.0908   -1.9327 H   0  0  0  0  0  0  0  0  0  0  0  0
  -10.1772   -5.0912   -3.1474 H   0  0  0  0  0  0  0  0  0  0  0  0
  -11.4926   -4.3517   -2.1700 H   0  0  0  0  0  0  0  0  0  0  0  0
   -6.3072   -5.5016   -0.8811 H   0  0  0  0  0  0  0  0  0  0  0  0
   -8.1110   -4.0609    1.0895 H   0  0  0  0  0  0  0  0  0  0  0  0
   -6.1101   -7.0970    0.7357 H   0  0  0  0  0  0  0  0  0  0  0  0
   -5.9273   -7.3179    2.5050 H   0  0  0  0  0  0  0  0  0  0  0  0
   -6.2700   -2.7248   -0.1967 H   0  0  0  0  0  0  0  0  0  0  0  0
   -6.5307   -2.4987    1.5402 H   0  0  0  0  0  0  0  0  0  0  0  0
   -3.8219   -5.1361   -0.5484 H   0  0  0  0  0  0  0  0  0  0  0  0
   -4.5293   -3.6640   -1.2744 H   0  0  0  0  0  0  0  0  0  0  0  0
  1  2  1  0
  2  3  2  0
  2  4  1  0
  4  5  1  0
  5  6  1  0
  6  7  1  0
  7  8  1  0
  8  9  1  0
  9 10  1  0
 10 11  2  0
 11 12  1  0
 12 13  2  0
 13 14  1  0
 13 15  1  0
 15 16  1  0
 16 17  1  0
 17 18  1  0
 18 19  1  0
 19 20  1  0
 20 21  2  0
 20 22  1  0
 22 23  1  0
 22 24  1  0
 24 25  1  0
 25 26  2  0
 25 27  1  0
 27 28  1  0
 27 29  1  0
 29 30  1  0
 30 31  2  0
 30 32  1  0
 32 33  1  0
 32 34  1  0
 34 35  1  0
 35 36  2  0
 35 37  1  0
 37 38  1  0
 37 39  1  0
 39 40  1  0
 40 41  2  0
 40 42  1  0
 42 43  1  0
 42 44  1  0
 44 45  1  0
 45 46  2  0
 45 47  1  0
 47 48  1  0
 47 49  1  0
 49 50  1  0
 50 51  2  0
 50 52  1  0
 52 53  1  0
 52 54  1  0
 54 55  1  0
 55 56  2  0
 18 57  1  0
 57 58  2  0
 57 59  1  0
 59 60  1  0
 60 61  1  0
 60 62  1  0
 62 63  2  0
 62 64  1  0
 64 65  1  0
 65 66  1  0
 65 67  1  0
 67 68  2  0
 67 69  1  0
 69 70  1  0
 70 71  1  0
 70 72  1  0
 72 73  2  0
 72 74  1  0
 74 75  1  0
 75 76  1  0
 75 77  1  0
 77 78  2  0
 77 79  1  0
 79 80  1  0
 80 81  1  0
 80 82  1  0
 82 83  2  0
 82 84  1  0
 84 85  1  0
 85 86  1  0
 85 87  1  0
 87 88  2  0
 87 89  1  0
 89 90  1  0
 90 91  1  0
 91 92  1  0
 91 93  2  0
 90 94  1  0
 94 95  1  0
 95 96  1  0
 55  5  1  0
 14  9  2  0
 96 11  1  0
  1 97  1  0
  1 98  1  0
  1 99  1  0
  4100  1  0
  5101  1  6
  6102  1  0
  6103  1  0
  8104  1  0
  8105  1  0
 10106  1  0
 12107  1  0
 14108  1  0
 15109  1  0
 15110  1  0
 17111  1  0
 17112  1  0
 18113  1  6
 19114  1  0
 22115  1  6
 23116  1  0
 23117  1  0
 23118  1  0
 24119  1  0
 27120  1  6
 28121  1  0
 28122  1  0
 28123  1  0
 29124  1  0
 32125  1  6
 33126  1  0
 33127  1  0
 33128  1  0
 34129  1  0
 37130  1  6
 38131  1  0
 38132  1  0
 38133  1  0
 39134  1  0
 42135  1  6
 43136  1  0
 43137  1  0
 43138  1  0
 44139  1  0
 47140  1  6
 48141  1  0
 48142  1  0
 48143  1  0
 49144  1  0
 52145  1  6
 53146  1  0
 53147  1  0
 53148  1  0
 54149  1  0
 59150  1  0
 60151  1  6
 61152  1  0
 61153  1  0
 61154  1  0
 64155  1  0
 65156  1  6
 66157  1  0
 66158  1  0
 66159  1  0
 69160  1  0
 70161  1  6
 71162  1  0
 71163  1  0
 71164  1  0
 74165  1  0
 75166  1  6
 76167  1  0
 76168  1  0
 76169  1  0
 79170  1  0
 80171  1  6
 81172  1  0
 81173  1  0
 81174  1  0
 84175  1  0
 85176  1  6
 86177  1  0
 86178  1  0
 86179  1  0
 89180  1  0
 90181  1  1
 92182  1  0
 92183  1  0
 94184  1  0
 94185  1  0
 96186  1  0
 96187  1  0
M  END
