
     RDKit          3D

187189  0  0  0  0  0  0  0  0999 V2000
    4.7578    8.0292   -1.2888 C   0  0  0  0  0  0  0  0  0  0  0  0
    3.3677    7.9160   -0.7399 C   0  0  0  0  0  0  0  0  0  0  0  0
    2.4283    8.5017   -1.3331 O   0  0  0  0  0  0  0  0  0  0  0  0
    3.0877    7.2415    0.4967 N   0  0  0  0  0  0  0  0  0  0  0  0
    3.2697    5.8094    0.7819 C   0  0  1  0  0  0  0  0  0  0  0  0
    3.3639    4.8996   -0.4587 C   0  0  0  0  0  0  0  0  0  0  0  0
    1.9466    5.1608   -1.6067 S   0  0  0  0  0  0  0  0  0  0  0  0
    1.6768    3.3984   -2.0375 C   0  0  0  0  0  0  0  0  0  0  0  0
    0.7970    2.7317   -1.0187 C   0  0  0  0  0  0  0  0  0  0  0  0
    1.2829    1.6820   -0.2274 C   0  0  0  0  0  0  0  0  0  0  0  0
    0.4664    1.0798    0.7472 C   0  0  0  0  0  0  0  0  0  0  0  0
   -0.8355    1.5639    0.9477 C   0  0  0  0  0  0  0  0  0  0  0  0
   -1.3351    2.6271    0.1770 C   0  0  0  0  0  0  0  0  0  0  0  0
   -0.5120    3.2007   -0.8070 C   0  0  0  0  0  0  0  0  0  0  0  0
   -2.6612    3.2486    0.5105 C   0  0  0  0  0  0  0  0  0  0  0  0
   -3.7702    3.2592   -0.9492 S   0  0  0  0  0  0  0  0  0  0  0  0
   -5.2051    4.0652   -0.1381 C   0  0  0  0  0  0  0  0  0  0  0  0
   -5.0159    5.5875    0.0232 C   0  0  1  0  0  0  0  0  0  0  0  0
   -4.7768    6.3050   -1.2883 C   0  0  0  0  0  0  0  0  0  0  0  0
   -5.6568    6.1352   -2.4067 N   0  0  0  0  0  0  0  0  0  0  0  0
   -3.7880    7.0740   -1.3996 O   0  0  0  0  0  0  0  0  0  0  0  0
   -6.1538    6.1786    0.7380 N   0  0  0  0  0  0  0  0  0  0  0  0
   -7.4729    6.2625    0.2037 C   0  0  0  0  0  0  0  0  0  0  0  0
   -7.7651    7.2071   -0.5840 O   0  0  0  0  0  0  0  0  0  0  0  0
   -8.5169    5.2786    0.6306 C   0  0  1  0  0  0  0  0  0  0  0  0
   -9.4184    5.8907    1.6958 C   0  0  0  0  0  0  0  0  0  0  0  0
   -9.3151    4.8628   -0.5269 N   0  0  0  0  0  0  0  0  0  0  0  0
   -9.4635    3.5024   -0.9518 C   0  0  0  0  0  0  0  0  0  0  0  0
   -9.5493    3.2666   -2.1849 O   0  0  0  0  0  0  0  0  0  0  0  0
   -9.7360    2.3877    0.0386 C   0  0  1  0  0  0  0  0  0  0  0  0
  -11.2375    2.3365    0.3224 C   0  0  0  0  0  0  0  0  0  0  0  0
   -9.2745    1.0919   -0.4817 N   0  0  0  0  0  0  0  0  0  0  0  0
   -9.3644   -0.1094    0.2984 C   0  0  0  0  0  0  0  0  0  0  0  0
   -8.9984   -0.0945    1.4991 O   0  0  0  0  0  0  0  0  0  0  0  0
   -9.8635   -1.3884   -0.3206 C   0  0  1  0  0  0  0  0  0  0  0  0
  -11.1045   -1.1270   -1.1849 C   0  0  0  0  0  0  0  0  0  0  0  0
   -8.8062   -1.9892   -1.1425 N   0  0  0  0  0  0  0  0  0  0  0  0
   -8.6667   -3.4004   -1.3699 C   0  0  0  0  0  0  0  0  0  0  0  0
   -8.1623   -3.7946   -2.4552 O   0  0  0  0  0  0  0  0  0  0  0  0
   -9.1120   -4.4319   -0.3526 C   0  0  1  0  0  0  0  0  0  0  0  0
  -10.5734   -4.8228   -0.6008 C   0  0  0  0  0  0  0  0  0  0  0  0
   -8.2598   -5.6291   -0.4098 N   0  0  0  0  0  0  0  0  0  0  0  0
   -6.8167   -5.6708   -0.3883 C   0  0  0  0  0  0  0  0  0  0  0  0
   -6.2534   -6.6431   -0.9673 O   0  0  0  0  0  0  0  0  0  0  0  0
   -5.9166   -4.6031    0.2145 C   0  0  1  0  0  0  0  0  0  0  0  0
   -6.5347   -3.8350    1.3909 C   0  0  0  0  0  0  0  0  0  0  0  0
   -4.6919   -5.2480    0.7035 N   0  0  0  0  0  0  0  0  0  0  0  0
   -3.3424   -4.9263    0.3207 C   0  0  0  0  0  0  0  0  0  0  0  0
   -2.4060   -5.4220    1.0019 O   0  0  0  0  0  0  0  0  0  0  0  0
   -3.0030   -4.0040   -0.8239 C   0  0  1  0  0  0  0  0  0  0  0  0
   -3.0289   -2.5496   -0.3423 C   0  0  0  0  0  0  0  0  0  0  0  0
   -1.7121   -4.4030   -1.4078 N   0  0  0  0  0  0  0  0  0  0  0  0
   -0.6225   -3.5185   -1.7085 C   0  0  0  0  0  0  0  0  0  0  0  0
   -0.5483   -3.0164   -2.8660 O   0  0  0  0  0  0  0  0  0  0  0  0
    0.4887   -3.2427   -0.7116 C   0  0  1  0  0  0  0  0  0  0  0  0
    0.5306   -1.7442   -0.3957 C   0  0  0  0  0  0  0  0  0  0  0  0
    1.9026   -1.3268    0.7503 S   0  0  0  0  0  0  0  0  0  0  0  0
    1.0227    0.0110    1.6546 C   0  0  0  0  0  0  0  0  0  0  0  0
    0.3060   -4.0175    0.5166 N   0  0  0  0  0  0  0  0  0  0  0  0
    1.3387   -4.8463    1.0611 C   0  0  0  0  0  0  0  0  0  0  0  0
    2.0240   -4.4154    2.0140 O   0  0  0  0  0  0  0  0  0  0  0  0
    1.6049   -6.2387    0.5313 C   0  0  1  0  0  0  0  0  0  0  0  0
    0.3187   -7.0157    0.2616 C   0  0  0  0  0  0  0  0  0  0  0  0
    2.4063   -6.1651   -0.6963 N   0  0  0  0  0  0  0  0  0  0  0  0
    3.6753   -6.8051   -0.9118 C   0  0  0  0  0  0  0  0  0  0  0  0
    4.1866   -6.7348   -2.0622 O   0  0  0  0  0  0  0  0  0  0  0  0
    4.3784   -7.6195    0.1646 C   0  0  1  0  0  0  0  0  0  0  0  0
    5.6949   -8.2560   -0.3178 C   0  0  0  0  0  0  0  0  0  0  0  0
    4.6128   -6.8436    1.3949 N   0  0  0  0  0  0  0  0  0  0  0  0
    5.2613   -5.5640    1.5437 C   0  0  0  0  0  0  0  0  0  0  0  0
    5.2798   -5.0400    2.6899 O   0  0  0  0  0  0  0  0  0  0  0  0
    5.9751   -4.8512    0.4200 C   0  0  1  0  0  0  0  0  0  0  0  0
    5.5730   -3.3727    0.3878 C   0  0  0  0  0  0  0  0  0  0  0  0
    7.4224   -4.9782    0.5788 N   0  0  0  0  0  0  0  0  0  0  0  0
    8.3116   -4.5651   -0.4567 C   0  0  0  0  0  0  0  0  0  0  0  0
    8.3136   -5.1784   -1.5635 O   0  0  0  0  0  0  0  0  0  0  0  0
    9.2330   -3.4014   -0.2377 C   0  0  1  0  0  0  0  0  0  0  0  0
   10.6946   -3.8579   -0.3294 C   0  0  0  0  0  0  0  0  0  0  0  0
    8.9759   -2.3650   -1.2414 N   0  0  0  0  0  0  0  0  0  0  0  0
    9.3239   -0.9836   -1.0703 C   0  0  0  0  0  0  0  0  0  0  0  0
    9.8255   -0.3714   -2.0511 O   0  0  0  0  0  0  0  0  0  0  0  0
    9.1281   -0.2686    0.2494 C   0  0  1  0  0  0  0  0  0  0  0  0
   10.4497   -0.1562    1.0196 C   0  0  0  0  0  0  0  0  0  0  0  0
    8.5051    1.0564    0.0797 N   0  0  0  0  0  0  0  0  0  0  0  0
    9.2337    2.2146   -0.3712 C   0  0  0  0  0  0  0  0  0  0  0  0
    9.9031    2.1650   -1.4423 O   0  0  0  0  0  0  0  0  0  0  0  0
    9.1978    3.4930    0.4256 C   0  0  1  0  0  0  0  0  0  0  0  0
   10.6192    3.9272    0.7807 C   0  0  0  0  0  0  0  0  0  0  0  0
    8.5341    4.5469   -0.3508 N   0  0  0  0  0  0  0  0  0  0  0  0
    7.7850    5.6188    0.2421 C   0  0  0  0  0  0  0  0  0  0  0  0
    7.8124    6.7524   -0.3108 O   0  0  0  0  0  0  0  0  0  0  0  0
    6.9737    5.4371    1.5032 C   0  0  1  0  0  0  0  0  0  0  0  0
    7.7538    5.9209    2.7248 C   0  0  0  0  0  0  0  0  0  0  0  0
    5.7185    6.1870    1.3906 N   0  0  0  0  0  0  0  0  0  0  0  0
    4.4516    5.5817    1.6756 C   0  0  0  0  0  0  0  0  0  0  0  0
    4.3280    4.8468    2.7013 O   0  0  0  0  0  0  0  0  0  0  0  0
    5.3745    8.6485   -0.5976 H   0  0  0  0  0  0  0  0  0  0  0  0
    4.7358    8.5370   -2.2745 H   0  0  0  0  0  0  0  0  0  0  0  0
    5.2260    7.0355   -1.4141 H   0  0  0  0  0  0  0  0  0  0  0  0
    2.4408    7.7531    1.1495 H   0  0  0  0  0  0  0  0  0  0  0  0
    2.3656    5.4595    1.3381 H   0  0  0  0  0  0  0  0  0  0  0  0
    4.3124    5.0526   -1.0088 H   0  0  0  0  0  0  0  0  0  0  0  0
    3.3733    3.8372   -0.1017 H   0  0  0  0  0  0  0  0  0  0  0  0
    1.1867    3.3455   -3.0312 H   0  0  0  0  0  0  0  0  0  0  0  0
    2.6520    2.8733   -2.1334 H   0  0  0  0  0  0  0  0  0  0  0  0
    2.3005    1.3423   -0.3662 H   0  0  0  0  0  0  0  0  0  0  0  0
   -1.4593    1.1245    1.7159 H   0  0  0  0  0  0  0  0  0  0  0  0
   -0.8860    4.0287   -1.3957 H   0  0  0  0  0  0  0  0  0  0  0  0
   -2.4718    4.2918    0.8457 H   0  0  0  0  0  0  0  0  0  0  0  0
   -3.1637    2.7005    1.3471 H   0  0  0  0  0  0  0  0  0  0  0  0
   -6.1140    3.8548   -0.7447 H   0  0  0  0  0  0  0  0  0  0  0  0
   -5.3723    3.6049    0.8591 H   0  0  0  0  0  0  0  0  0  0  0  0
   -4.1271    5.7568    0.6730 H   0  0  0  0  0  0  0  0  0  0  0  0
   -5.5246    6.7095   -3.2658 H   0  0  0  0  0  0  0  0  0  0  0  0
   -6.4673    5.4745   -2.3648 H   0  0  0  0  0  0  0  0  0  0  0  0
   -6.0143    6.5065    1.7275 H   0  0  0  0  0  0  0  0  0  0  0  0
   -7.9969    4.4060    1.0718 H   0  0  0  0  0  0  0  0  0  0  0  0
  -10.1538    5.1391    2.0439 H   0  0  0  0  0  0  0  0  0  0  0  0
   -8.8147    6.2206    2.5684 H   0  0  0  0  0  0  0  0  0  0  0  0
   -9.9644    6.7623    1.2777 H   0  0  0  0  0  0  0  0  0  0  0  0
   -9.7322    5.6076   -1.1331 H   0  0  0  0  0  0  0  0  0  0  0  0
   -9.2023    2.5820    0.9870 H   0  0  0  0  0  0  0  0  0  0  0  0
  -11.4698    1.5263    1.0388 H   0  0  0  0  0  0  0  0  0  0  0  0
  -11.7930    2.1472   -0.6216 H   0  0  0  0  0  0  0  0  0  0  0  0
  -11.5762    3.2965    0.7612 H   0  0  0  0  0  0  0  0  0  0  0  0
   -8.9946    0.9945   -1.4872 H   0  0  0  0  0  0  0  0  0  0  0  0
  -10.1635   -2.0664    0.5030 H   0  0  0  0  0  0  0  0  0  0  0  0
  -11.4365   -2.0617   -1.6922 H   0  0  0  0  0  0  0  0  0  0  0  0
  -11.9404   -0.7513   -0.5537 H   0  0  0  0  0  0  0  0  0  0  0  0
  -10.8953   -0.3717   -1.9786 H   0  0  0  0  0  0  0  0  0  0  0  0
   -8.2607   -1.3514   -1.7691 H   0  0  0  0  0  0  0  0  0  0  0  0
   -9.0676   -4.0231    0.6755 H   0  0  0  0  0  0  0  0  0  0  0  0
  -11.2523   -3.9858   -0.3614 H   0  0  0  0  0  0  0  0  0  0  0  0
  -10.7249   -5.1245   -1.6606 H   0  0  0  0  0  0  0  0  0  0  0  0
  -10.8582   -5.6769    0.0530 H   0  0  0  0  0  0  0  0  0  0  0  0
   -8.7207   -6.5419   -0.6383 H   0  0  0  0  0  0  0  0  0  0  0  0
   -5.6968   -3.8686   -0.5813 H   0  0  0  0  0  0  0  0  0  0  0  0
   -7.1211   -4.5123    2.0493 H   0  0  0  0  0  0  0  0  0  0  0  0
   -5.7340   -3.3719    2.0055 H   0  0  0  0  0  0  0  0  0  0  0  0
   -7.1579   -2.9910    1.0338 H   0  0  0  0  0  0  0  0  0  0  0  0
   -4.8161   -5.9609    1.4653 H   0  0  0  0  0  0  0  0  0  0  0  0
   -3.7703   -4.1118   -1.6227 H   0  0  0  0  0  0  0  0  0  0  0  0
   -2.6806   -1.8600   -1.1389 H   0  0  0  0  0  0  0  0  0  0  0  0
   -2.3969   -2.4213    0.5618 H   0  0  0  0  0  0  0  0  0  0  0  0
   -4.0645   -2.2466   -0.0687 H   0  0  0  0  0  0  0  0  0  0  0  0
   -1.7154   -5.3138   -1.9151 H   0  0  0  0  0  0  0  0  0  0  0  0
    1.4526   -3.5109   -1.1820 H   0  0  0  0  0  0  0  0  0  0  0  0
   -0.4402   -1.4244    0.0261 H   0  0  0  0  0  0  0  0  0  0  0  0
    0.6946   -1.1720   -1.3378 H   0  0  0  0  0  0  0  0  0  0  0  0
    0.2070   -0.4585    2.2425 H   0  0  0  0  0  0  0  0  0  0  0  0
    1.7314    0.4824    2.3743 H   0  0  0  0  0  0  0  0  0  0  0  0
   -0.4698   -3.7452    1.1593 H   0  0  0  0  0  0  0  0  0  0  0  0
    2.1386   -6.8024    1.3103 H   0  0  0  0  0  0  0  0  0  0  0  0
   -0.2567   -6.5299   -0.5461 H   0  0  0  0  0  0  0  0  0  0  0  0
    0.5666   -8.0548   -0.0442 H   0  0  0  0  0  0  0  0  0  0  0  0
   -0.2894   -7.0560    1.1916 H   0  0  0  0  0  0  0  0  0  0  0  0
    1.9878   -5.6771   -1.5161 H   0  0  0  0  0  0  0  0  0  0  0  0
    3.6998   -8.4674    0.4118 H   0  0  0  0  0  0  0  0  0  0  0  0
    6.4198   -7.4941   -0.6579 H   0  0  0  0  0  0  0  0  0  0  0  0
    5.4838   -8.9581   -1.1461 H   0  0  0  0  0  0  0  0  0  0  0  0
    6.1504   -8.8364    0.5122 H   0  0  0  0  0  0  0  0  0  0  0  0
    4.2602   -7.2822    2.2753 H   0  0  0  0  0  0  0  0  0  0  0  0
    5.6946   -5.2810   -0.5617 H   0  0  0  0  0  0  0  0  0  0  0  0
    4.4664   -3.2780    0.3257 H   0  0  0  0  0  0  0  0  0  0  0  0
    5.9354   -2.8528    1.2989 H   0  0  0  0  0  0  0  0  0  0  0  0
    6.0205   -2.8758   -0.5018 H   0  0  0  0  0  0  0  0  0  0  0  0
    7.8161   -5.6370    1.3017 H   0  0  0  0  0  0  0  0  0  0  0  0
    9.0573   -3.0153    0.7836 H   0  0  0  0  0  0  0  0  0  0  0  0
   10.9419   -4.1742   -1.3648 H   0  0  0  0  0  0  0  0  0  0  0  0
   10.8782   -4.7011    0.3707 H   0  0  0  0  0  0  0  0  0  0  0  0
   11.3664   -3.0229   -0.0394 H   0  0  0  0  0  0  0  0  0  0  0  0
    8.8070   -2.6755   -2.2277 H   0  0  0  0  0  0  0  0  0  0  0  0
    8.4283   -0.8668    0.8764 H   0  0  0  0  0  0  0  0  0  0  0  0
   10.8122   -1.1635    1.3220 H   0  0  0  0  0  0  0  0  0  0  0  0
   11.2251    0.3437    0.3987 H   0  0  0  0  0  0  0  0  0  0  0  0
   10.2960    0.4431    1.9438 H   0  0  0  0  0  0  0  0  0  0  0  0
    7.6656    1.2453    0.6671 H   0  0  0  0  0  0  0  0  0  0  0  0
    8.6625    3.3039    1.3740 H   0  0  0  0  0  0  0  0  0  0  0  0
   10.5948    4.9019    1.3149 H   0  0  0  0  0  0  0  0  0  0  0  0
   11.2438    4.0523   -0.1318 H   0  0  0  0  0  0  0  0  0  0  0  0
   11.0970    3.1774    1.4522 H   0  0  0  0  0  0  0  0  0  0  0  0
    8.8667    4.6914   -1.3333 H   0  0  0  0  0  0  0  0  0  0  0  0
    6.7387    4.3594    1.6384 H   0  0  0  0  0  0  0  0  0  0  0  0
    8.0429    6.9888    2.6099 H   0  0  0  0  0  0  0  0  0  0  0  0
    7.1278    5.8211    3.6361 H   0  0  0  0  0  0  0  0  0  0  0  0
    8.6693    5.3144    2.8676 H   0  0  0  0  0  0  0  0  0  0  0  0
    5.7412    7.1924    1.1379 H   0  0  0  0  0  0  0  0  0  0  0  0
  1  2  1  0
  2  3  2  0
  2  4  1  0
  4  5  1  0
  5  6  1  0
  6  7  1  0
  7  8  1  0
  8  9  1  0
  9 10  1  0
 10 11  2  0
 11 12  1  0
 12 13  2  0
 13 14  1  0
 13 15  1  0
 15 16  1  0
 16 17  1  0
 17 18  1  0
 18 19  1  0
 19 20  1  0
 19 21  2  0
 18 22  1  0
 22 23  1  0
 23 24  2  0
 23 25  1  0
 25 26  1  0
 25 27  1  0
 27 28  1  0
 28 29  2  0
 28 30  1  0
 30 31  1  0
 30 32  1  0
 32 33  1  0
 33 34  2  0
 33 35  1  0
 35 36  1  0
 35 37  1  0
 37 38  1  0
 38 39  2  0
 38 40  1  0
 40 41  1  0
 40 42  1  0
 42 43  1  0
 43 44  2  0
 43 45  1  0
 45 46  1  0
 45 47  1  0
 47 48  1  0
 48 49  2  0
 48 50  1  0
 50 51  1  0
 50 52  1  0
 52 53  1  0
 53 54  2  0
 53 55  1  0
 55 56  1  0
 56 57  1  0
 57 58  1  0
 55 59  1  0
 59 60  1  0
 60 61  2  0
 60 62  1  0
 62 63  1  0
 62 64  1  0
 64 65  1  0
 65 66  2  0
 65 67  1  0
 67 68  1  0
 67 69  1  0
 69 70  1  0
 70 71  2  0
 70 72  1  0
 72 73  1  0
 72 74  1  0
 74 75  1  0
 75 76  2  0
 75 77  1  0
 77 78  1  0
 77 79  1  0
 79 80  1  0
 80 81  2  0
 80 82  1  0
 82 83  1  0
 82 84  1  0
 84 85  1  0
 85 86  2  0
 85 87  1  0
 87 88  1  0
 87 89  1  0
 89 90  1  0
 90 91  2  0
 90 92  1  0
 92 93  1  0
 92 94  1  0
 94 95  1  0
 95 96  2  0
 95  5  1  0
 14  9  2  0
 58 11  1  0
  1 97  1  0
  1 98  1  0
  1 99  1  0
  4100  1  0
  5101  1  1
  6102  1  0
  6103  1  0
  8104  1  0
  8105  1  0
 10106  1  0
 12107  1  0
 14108  1  0
 15109  1  0
 15110  1  0
 17111  1  0
 17112  1  0
 18113  1  1
 20114  1  0
 20115  1  0
 22116  1  0
 25117  1  1
 26118  1  0
 26119  1  0
 26120  1  0
 27121  1  0
 30122  1  1
 31123  1  0
 31124  1  0
 31125  1  0
 32126  1  0
 35127  1  1
 36128  1  0
 36129  1  0
 36130  1  0
 37131  1  0
 40132  1  1
 41133  1  0
 41134  1  0
 41135  1  0
 42136  1  0
 45137  1  6
 46138  1  0
 46139  1  0
 46140  1  0
 47141  1  0
 50142  1  6
 51143  1  0
 51144  1  0
 51145  1  0
 52146  1  0
 55147  1  6
 56148  1  0
 56149  1  0
 58150  1  0
 58151  1  0
 59152  1  0
 62153  1  1
 63154  1  0
 63155  1  0
 63156  1  0
 64157  1  0
 67158  1  1
 68159  1  0
 68160  1  0
 68161  1  0
 69162  1  0
 72163  1  6
 73164  1  0
 73165  1  0
 73166  1  0
 74167  1  0
 77168  1  1
 78169  1  0
 78170  1  0
 78171  1  0
 79172  1  0
 82173  1  1
 83174  1  0
 83175  1  0
 83176  1  0
 84177  1  0
 87178  1  1
 88179  1  0
 88180  1  0
 88181  1  0
 89182  1  0
 92183  1  1
 93184  1  0
 93185  1  0
 93186  1  0
 94187  1  0
M  END
