
     RDKit          3D

207209  0  0  0  0  0  0  0  0999 V2000
    3.5043    8.5054    2.3822 C   0  0  0  0  0  0  0  0  0  0  0  0
    4.0579    8.1373    1.0435 C   0  0  0  0  0  0  0  0  0  0  0  0
    3.8227    8.8791    0.0526 O   0  0  0  0  0  0  0  0  0  0  0  0
    4.8460    6.9472    0.8884 N   0  0  0  0  0  0  0  0  0  0  0  0
    5.2568    6.4173   -0.4169 C   0  0  2  0  0  0  0  0  0  0  0  0
    4.5332    5.0873   -0.6963 C   0  0  0  0  0  0  0  0  0  0  0  0
    4.7694    3.8530    0.6435 S   0  0  0  0  0  0  0  0  0  0  0  0
    3.0655    3.8998    1.3184 C   0  0  0  0  0  0  0  0  0  0  0  0
    2.0530    3.2802    0.3870 C   0  0  0  0  0  0  0  0  0  0  0  0
    2.3521    2.0986   -0.3120 C   0  0  0  0  0  0  0  0  0  0  0  0
    1.4052    1.5118   -1.1652 C   0  0  0  0  0  0  0  0  0  0  0  0
    0.1121    2.0583   -1.2393 C   0  0  0  0  0  0  0  0  0  0  0  0
   -0.2214    3.2107   -0.5033 C   0  0  0  0  0  0  0  0  0  0  0  0
    0.7673    3.8403    0.2735 C   0  0  0  0  0  0  0  0  0  0  0  0
   -1.6415    3.7151   -0.4764 C   0  0  0  0  0  0  0  0  0  0  0  0
   -2.3352    3.4297    1.1895 S   0  0  0  0  0  0  0  0  0  0  0  0
   -4.1270    3.4755    0.7651 C   0  0  0  0  0  0  0  0  0  0  0  0
   -4.7424    4.8874    0.6455 C   0  0  1  0  0  0  0  0  0  0  0  0
   -4.0939    5.8998    1.5654 C   0  0  0  0  0  0  0  0  0  0  0  0
   -3.2187    6.9182    1.0731 N   0  0  0  0  0  0  0  0  0  0  0  0
   -4.3072    5.8203    2.8067 O   0  0  0  0  0  0  0  0  0  0  0  0
   -4.7433    5.3381   -0.7542 N   0  0  0  0  0  0  0  0  0  0  0  0
   -5.8961    5.7888   -1.4993 C   0  0  0  0  0  0  0  0  0  0  0  0
   -5.7731    5.9235   -2.7507 O   0  0  0  0  0  0  0  0  0  0  0  0
   -7.2472    6.0550   -0.8548 C   0  0  1  0  0  0  0  0  0  0  0  0
   -7.1717    7.2424    0.1103 C   0  0  0  0  0  0  0  0  0  0  0  0
   -8.2498    6.3679   -1.8807 N   0  0  0  0  0  0  0  0  0  0  0  0
   -9.6299    5.9517   -1.8497 C   0  0  0  0  0  0  0  0  0  0  0  0
  -10.4469    6.5537   -2.5991 O   0  0  0  0  0  0  0  0  0  0  0  0
  -10.0968    4.7349   -1.0638 C   0  0  1  0  0  0  0  0  0  0  0  0
  -11.6280    4.7530   -0.8873 C   0  0  0  0  0  0  0  0  0  0  0  0
   -9.6571    3.5107   -1.7495 N   0  0  0  0  0  0  0  0  0  0  0  0
  -10.1243    2.1932   -1.4199 C   0  0  0  0  0  0  0  0  0  0  0  0
  -10.8280    1.5808   -2.2649 O   0  0  0  0  0  0  0  0  0  0  0  0
   -9.7452    1.4715   -0.1492 C   0  0  1  0  0  0  0  0  0  0  0  0
   -8.6804    2.1755    0.6927 C   0  0  0  0  0  0  0  0  0  0  0  0
  -10.9497    1.2403    0.6535 N   0  0  0  0  0  0  0  0  0  0  0  0
  -11.8050    0.1030    0.4680 C   0  0  0  0  0  0  0  0  0  0  0  0
  -13.0585    0.2707    0.4904 O   0  0  0  0  0  0  0  0  0  0  0  0
  -11.2536   -1.2738    0.1758 C   0  0  1  0  0  0  0  0  0  0  0  0
  -12.0656   -2.3379    0.9263 C   0  0  0  0  0  0  0  0  0  0  0  0
  -11.2905   -1.5210   -1.2749 N   0  0  0  0  0  0  0  0  0  0  0  0
  -10.5888   -2.5637   -1.9783 C   0  0  0  0  0  0  0  0  0  0  0  0
  -10.7135   -2.6227   -3.2350 O   0  0  0  0  0  0  0  0  0  0  0  0
   -9.7928   -3.6499   -1.2755 C   0  0  1  0  0  0  0  0  0  0  0  0
  -10.6510   -4.9222   -1.2179 C   0  0  0  0  0  0  0  0  0  0  0  0
   -8.5342   -3.9197   -1.9909 N   0  0  0  0  0  0  0  0  0  0  0  0
   -7.4923   -4.8071   -1.5401 C   0  0  0  0  0  0  0  0  0  0  0  0
   -6.6388   -5.2054   -2.3817 O   0  0  0  0  0  0  0  0  0  0  0  0
   -7.3408   -5.2556   -0.1032 C   0  0  1  0  0  0  0  0  0  0  0  0
   -7.4896   -6.7831   -0.0108 C   0  0  0  0  0  0  0  0  0  0  0  0
   -6.0463   -4.7923    0.4085 N   0  0  0  0  0  0  0  0  0  0  0  0
   -5.2060   -5.5615    1.2770 C   0  0  0  0  0  0  0  0  0  0  0  0
   -5.5398   -5.7057    2.4853 O   0  0  0  0  0  0  0  0  0  0  0  0
   -3.9768   -6.2587    0.7496 C   0  0  1  0  0  0  0  0  0  0  0  0
   -3.4378   -5.6286   -0.5429 C   0  0  0  0  0  0  0  0  0  0  0  0
   -2.9323   -6.3871    1.7810 N   0  0  0  0  0  0  0  0  0  0  0  0
   -2.4099   -5.3230    2.5963 C   0  0  0  0  0  0  0  0  0  0  0  0
   -2.3225   -5.5032    3.8408 O   0  0  0  0  0  0  0  0  0  0  0  0
   -1.9499   -4.0094    2.0146 C   0  0  1  0  0  0  0  0  0  0  0  0
   -2.9984   -2.9223    2.2481 C   0  0  0  0  0  0  0  0  0  0  0  0
   -0.6738   -3.5918    2.6141 N   0  0  0  0  0  0  0  0  0  0  0  0
    0.3288   -2.8256    1.9238 C   0  0  0  0  0  0  0  0  0  0  0  0
    1.2950   -2.3601    2.5842 O   0  0  0  0  0  0  0  0  0  0  0  0
    0.2824   -2.6230    0.4226 C   0  0  1  0  0  0  0  0  0  0  0  0
    1.0962   -1.4126   -0.0630 C   0  0  0  0  0  0  0  0  0  0  0  0
    0.6747   -1.0767   -1.8104 S   0  0  0  0  0  0  0  0  0  0  0  0
    1.7999    0.3441   -2.0242 C   0  0  0  0  0  0  0  0  0  0  0  0
    0.7100   -3.8494   -0.2678 N   0  0  0  0  0  0  0  0  0  0  0  0
    1.9495   -4.5316    0.0058 C   0  0  0  0  0  0  0  0  0  0  0  0
    2.8286   -3.9753    0.7153 O   0  0  0  0  0  0  0  0  0  0  0  0
    2.2667   -5.8781   -0.5936 C   0  0  1  0  0  0  0  0  0  0  0  0
    1.0261   -6.7442   -0.8253 C   0  0  0  0  0  0  0  0  0  0  0  0
    2.9971   -5.6949   -1.8555 N   0  0  0  0  0  0  0  0  0  0  0  0
    4.3734   -6.0493   -2.0751 C   0  0  0  0  0  0  0  0  0  0  0  0
    4.7638   -6.2346   -3.2629 O   0  0  0  0  0  0  0  0  0  0  0  0
    5.3475   -6.2774   -0.9389 C   0  0  1  0  0  0  0  0  0  0  0  0
    5.4633   -7.7764   -0.6612 C   0  0  0  0  0  0  0  0  0  0  0  0
    6.6725   -5.7326   -1.2695 N   0  0  0  0  0  0  0  0  0  0  0  0
    7.7233   -5.5390   -0.3037 C   0  0  0  0  0  0  0  0  0  0  0  0
    8.9131   -5.7927   -0.6463 O   0  0  0  0  0  0  0  0  0  0  0  0
    7.4670   -4.9550    1.0742 C   0  0  1  0  0  0  0  0  0  0  0  0
    7.8043   -5.9937    2.1477 C   0  0  0  0  0  0  0  0  0  0  0  0
    8.2788   -3.7438    1.2934 N   0  0  0  0  0  0  0  0  0  0  0  0
    8.6859   -2.8604    0.2438 C   0  0  0  0  0  0  0  0  0  0  0  0
    7.8526   -2.5313   -0.6435 O   0  0  0  0  0  0  0  0  0  0  0  0
   10.0941   -2.3065    0.1789 C   0  0  1  0  0  0  0  0  0  0  0  0
   11.0517   -3.0403    1.1296 C   0  0  0  0  0  0  0  0  0  0  0  0
   10.5874   -2.4399   -1.1954 N   0  0  0  0  0  0  0  0  0  0  0  0
   10.8310   -1.3356   -2.0797 C   0  0  0  0  0  0  0  0  0  0  0  0
   10.5533   -1.4851   -3.3033 O   0  0  0  0  0  0  0  0  0  0  0  0
   11.4782   -0.0484   -1.6084 C   0  0  1  0  0  0  0  0  0  0  0  0
   12.9323   -0.3136   -1.2150 C   0  0  0  0  0  0  0  0  0  0  0  0
   11.4459    0.9858   -2.6554 N   0  0  0  0  0  0  0  0  0  0  0  0
   11.1011    2.3622   -2.4286 C   0  0  0  0  0  0  0  0  0  0  0  0
   10.6236    3.0322   -3.3861 O   0  0  0  0  0  0  0  0  0  0  0  0
   11.3993    3.0645   -1.1223 C   0  0  1  0  0  0  0  0  0  0  0  0
   12.7035    3.8530   -1.2453 C   0  0  0  0  0  0  0  0  0  0  0  0
   10.2979    3.9718   -0.7800 N   0  0  0  0  0  0  0  0  0  0  0  0
    9.3145    3.6458    0.2176 C   0  0  0  0  0  0  0  0  0  0  0  0
    9.2987    2.4996    0.7449 O   0  0  0  0  0  0  0  0  0  0  0  0
    8.3092    4.6780    0.6667 C   0  0  1  0  0  0  0  0  0  0  0  0
    9.0387    5.8344    1.3656 C   0  0  0  0  0  0  0  0  0  0  0  0
    7.4982    5.1193   -0.4822 N   0  0  0  0  0  0  0  0  0  0  0  0
    6.7685    6.3587   -0.4734 C   0  0  0  0  0  0  0  0  0  0  0  0
    7.4118    7.4427   -0.4953 O   0  0  0  0  0  0  0  0  0  0  0  0
    3.7257    7.7179    3.1316 H   0  0  0  0  0  0  0  0  0  0  0  0
    2.3992    8.5970    2.3037 H   0  0  0  0  0  0  0  0  0  0  0  0
    3.9443    9.4682    2.7197 H   0  0  0  0  0  0  0  0  0  0  0  0
    5.1351    6.4333    1.7485 H   0  0  0  0  0  0  0  0  0  0  0  0
    4.9445    7.1127   -1.2215 H   0  0  0  0  0  0  0  0  0  0  0  0
    4.9035    4.6473   -1.6470 H   0  0  0  0  0  0  0  0  0  0  0  0
    3.4556    5.3001   -0.8522 H   0  0  0  0  0  0  0  0  0  0  0  0
    2.7981    4.9503    1.5644 H   0  0  0  0  0  0  0  0  0  0  0  0
    3.0640    3.3213    2.2663 H   0  0  0  0  0  0  0  0  0  0  0  0
    3.3251    1.6384   -0.2019 H   0  0  0  0  0  0  0  0  0  0  0  0
   -0.6372    1.5884   -1.8687 H   0  0  0  0  0  0  0  0  0  0  0  0
    0.5186    4.7415    0.8302 H   0  0  0  0  0  0  0  0  0  0  0  0
   -1.6493    4.8028   -0.7025 H   0  0  0  0  0  0  0  0  0  0  0  0
   -2.2604    3.1936   -1.2396 H   0  0  0  0  0  0  0  0  0  0  0  0
   -4.3254    2.8823   -0.1562 H   0  0  0  0  0  0  0  0  0  0  0  0
   -4.6439    2.9440    1.5926 H   0  0  0  0  0  0  0  0  0  0  0  0
   -5.7894    4.7896    0.9894 H   0  0  0  0  0  0  0  0  0  0  0  0
   -2.8029    7.6135    1.7360 H   0  0  0  0  0  0  0  0  0  0  0  0
   -2.9896    7.0144    0.0592 H   0  0  0  0  0  0  0  0  0  0  0  0
   -3.8472    5.2815   -1.2849 H   0  0  0  0  0  0  0  0  0  0  0  0
   -7.5416    5.1452   -0.3019 H   0  0  0  0  0  0  0  0  0  0  0  0
   -6.4817    7.0430    0.9557 H   0  0  0  0  0  0  0  0  0  0  0  0
   -6.8423    8.1596   -0.4259 H   0  0  0  0  0  0  0  0  0  0  0  0
   -8.1804    7.4230    0.5422 H   0  0  0  0  0  0  0  0  0  0  0  0
   -8.0168    7.1291   -2.5586 H   0  0  0  0  0  0  0  0  0  0  0  0
   -9.6635    4.7845   -0.0484 H   0  0  0  0  0  0  0  0  0  0  0  0
  -11.9557    3.9101   -0.2471 H   0  0  0  0  0  0  0  0  0  0  0  0
  -11.9419    5.6971   -0.3927 H   0  0  0  0  0  0  0  0  0  0  0  0
  -12.1366    4.6751   -1.8725 H   0  0  0  0  0  0  0  0  0  0  0  0
   -9.2418    3.6104   -2.7051 H   0  0  0  0  0  0  0  0  0  0  0  0
   -9.3052    0.5008   -0.4602 H   0  0  0  0  0  0  0  0  0  0  0  0
   -8.3080    1.4785    1.4747 H   0  0  0  0  0  0  0  0  0  0  0  0
   -7.8197    2.4890    0.0639 H   0  0  0  0  0  0  0  0  0  0  0  0
   -9.1037    3.0589    1.2193 H   0  0  0  0  0  0  0  0  0  0  0  0
  -11.3697    2.0634    1.1381 H   0  0  0  0  0  0  0  0  0  0  0  0
  -10.2074   -1.3129    0.5421 H   0  0  0  0  0  0  0  0  0  0  0  0
  -12.2802   -2.0068    1.9668 H   0  0  0  0  0  0  0  0  0  0  0  0
  -13.0281   -2.5310    0.4036 H   0  0  0  0  0  0  0  0  0  0  0  0
  -11.5016   -3.2880    1.0026 H   0  0  0  0  0  0  0  0  0  0  0  0
  -11.9444   -0.9411   -1.8459 H   0  0  0  0  0  0  0  0  0  0  0  0
   -9.5461   -3.3145   -0.2530 H   0  0  0  0  0  0  0  0  0  0  0  0
  -10.2250   -5.6456   -0.4969 H   0  0  0  0  0  0  0  0  0  0  0  0
  -11.6861   -4.6907   -0.8836 H   0  0  0  0  0  0  0  0  0  0  0  0
  -10.7139   -5.3873   -2.2226 H   0  0  0  0  0  0  0  0  0  0  0  0
   -8.4051   -3.5142   -2.9496 H   0  0  0  0  0  0  0  0  0  0  0  0
   -8.1262   -4.8020    0.5295 H   0  0  0  0  0  0  0  0  0  0  0  0
   -8.4233   -7.1204   -0.5047 H   0  0  0  0  0  0  0  0  0  0  0  0
   -7.5292   -7.1000    1.0498 H   0  0  0  0  0  0  0  0  0  0  0  0
   -6.6358   -7.2895   -0.5082 H   0  0  0  0  0  0  0  0  0  0  0  0
   -5.7838   -3.7867    0.2606 H   0  0  0  0  0  0  0  0  0  0  0  0
   -4.3005   -7.2891    0.4793 H   0  0  0  0  0  0  0  0  0  0  0  0
   -2.4061   -5.9846   -0.7460 H   0  0  0  0  0  0  0  0  0  0  0  0
   -3.4416   -4.5218   -0.4890 H   0  0  0  0  0  0  0  0  0  0  0  0
   -4.0794   -5.9226   -1.3986 H   0  0  0  0  0  0  0  0  0  0  0  0
   -2.7440   -7.3601    2.1210 H   0  0  0  0  0  0  0  0  0  0  0  0
   -1.8042   -4.1626    0.9347 H   0  0  0  0  0  0  0  0  0  0  0  0
   -3.9470   -3.1739    1.7271 H   0  0  0  0  0  0  0  0  0  0  0  0
   -2.6345   -1.9503    1.8472 H   0  0  0  0  0  0  0  0  0  0  0  0
   -3.2009   -2.8089    3.3376 H   0  0  0  0  0  0  0  0  0  0  0  0
   -0.5617   -3.6836    3.6520 H   0  0  0  0  0  0  0  0  0  0  0  0
   -0.7676   -2.4022    0.1446 H   0  0  0  0  0  0  0  0  0  0  0  0
    2.1828   -1.6025    0.0308 H   0  0  0  0  0  0  0  0  0  0  0  0
    0.8388   -0.5279    0.5513 H   0  0  0  0  0  0  0  0  0  0  0  0
    1.7644    0.6587   -3.0852 H   0  0  0  0  0  0  0  0  0  0  0  0
    2.8378    0.0112   -1.8137 H   0  0  0  0  0  0  0  0  0  0  0  0
    0.0265   -4.2743   -0.9289 H   0  0  0  0  0  0  0  0  0  0  0  0
    2.8826   -6.4359    0.1451 H   0  0  0  0  0  0  0  0  0  0  0  0
    0.4169   -6.3695   -1.6740 H   0  0  0  0  0  0  0  0  0  0  0  0
    0.4011   -6.7791    0.0900 H   0  0  0  0  0  0  0  0  0  0  0  0
    1.3348   -7.7832   -1.0721 H   0  0  0  0  0  0  0  0  0  0  0  0
    2.4560   -5.3368   -2.6750 H   0  0  0  0  0  0  0  0  0  0  0  0
    4.9670   -5.7729   -0.0304 H   0  0  0  0  0  0  0  0  0  0  0  0
    5.8908   -8.3028   -1.5421 H   0  0  0  0  0  0  0  0  0  0  0  0
    4.4702   -8.2133   -0.4289 H   0  0  0  0  0  0  0  0  0  0  0  0
    6.1309   -7.9536    0.2120 H   0  0  0  0  0  0  0  0  0  0  0  0
    6.9835   -5.7912   -2.2646 H   0  0  0  0  0  0  0  0  0  0  0  0
    6.3983   -4.6724    1.1862 H   0  0  0  0  0  0  0  0  0  0  0  0
    7.2069   -6.9169    2.0044 H   0  0  0  0  0  0  0  0  0  0  0  0
    7.5796   -5.5843    3.1562 H   0  0  0  0  0  0  0  0  0  0  0  0
    8.8876   -6.2451    2.1017 H   0  0  0  0  0  0  0  0  0  0  0  0
    8.5895   -3.5200    2.2671 H   0  0  0  0  0  0  0  0  0  0  0  0
   10.0419   -1.2479    0.4924 H   0  0  0  0  0  0  0  0  0  0  0  0
   11.0246   -4.1349    0.9394 H   0  0  0  0  0  0  0  0  0  0  0  0
   10.7810   -2.8365    2.1901 H   0  0  0  0  0  0  0  0  0  0  0  0
   12.0879   -2.6842    0.9779 H   0  0  0  0  0  0  0  0  0  0  0  0
   10.5799   -3.3970   -1.6205 H   0  0  0  0  0  0  0  0  0  0  0  0
   10.9228    0.3111   -0.7259 H   0  0  0  0  0  0  0  0  0  0  0  0
   13.4611    0.6478   -1.0432 H   0  0  0  0  0  0  0  0  0  0  0  0
   12.9738   -0.9044   -0.2764 H   0  0  0  0  0  0  0  0  0  0  0  0
   13.4661   -0.8663   -2.0202 H   0  0  0  0  0  0  0  0  0  0  0  0
   11.6327    0.7062   -3.6413 H   0  0  0  0  0  0  0  0  0  0  0  0
   11.5442    2.3351   -0.3010 H   0  0  0  0  0  0  0  0  0  0  0  0
   12.6224    4.6283   -2.0359 H   0  0  0  0  0  0  0  0  0  0  0  0
   13.5389    3.1648   -1.5022 H   0  0  0  0  0  0  0  0  0  0  0  0
   12.9418    4.3516   -0.2783 H   0  0  0  0  0  0  0  0  0  0  0  0
   10.1605    4.8414   -1.3426 H   0  0  0  0  0  0  0  0  0  0  0  0
    7.6284    4.2104    1.4124 H   0  0  0  0  0  0  0  0  0  0  0  0
    8.3006    6.5209    1.8354 H   0  0  0  0  0  0  0  0  0  0  0  0
    9.6943    5.4391    2.1754 H   0  0  0  0  0  0  0  0  0  0  0  0
    9.6681    6.4090    0.6480 H   0  0  0  0  0  0  0  0  0  0  0  0
    7.1253    4.3558   -1.0847 H   0  0  0  0  0  0  0  0  0  0  0  0
  1  2  1  0
  2  3  2  0
  2  4  1  0
  4  5  1  0
  5  6  1  0
  6  7  1  0
  7  8  1  0
  8  9  1  0
  9 10  1  0
 10 11  2  0
 11 12  1  0
 12 13  2  0
 13 14  1  0
 13 15  1  0
 15 16  1  0
 16 17  1  0
 17 18  1  0
 18 19  1  0
 19 20  1  0
 19 21  2  0
 18 22  1  0
 22 23  1  0
 23 24  2  0
 23 25  1  0
 25 26  1  0
 25 27  1  0
 27 28  1  0
 28 29  2  0
 28 30  1  0
 30 31  1  0
 30 32  1  0
 32 33  1  0
 33 34  2  0
 33 35  1  0
 35 36  1  0
 35 37  1  0
 37 38  1  0
 38 39  2  0
 38 40  1  0
 40 41  1  0
 40 42  1  0
 42 43  1  0
 43 44  2  0
 43 45  1  0
 45 46  1  0
 45 47  1  0
 47 48  1  0
 48 49  2  0
 48 50  1  0
 50 51  1  0
 50 52  1  0
 52 53  1  0
 53 54  2  0
 53 55  1  0
 55 56  1  0
 55 57  1  0
 57 58  1  0
 58 59  2  0
 58 60  1  0
 60 61  1  0
 60 62  1  0
 62 63  1  0
 63 64  2  0
 63 65  1  0
 65 66  1  0
 66 67  1  0
 67 68  1  0
 65 69  1  0
 69 70  1  0
 70 71  2  0
 70 72  1  0
 72 73  1  0
 72 74  1  0
 74 75  1  0
 75 76  2  0
 75 77  1  0
 77 78  1  0
 77 79  1  0
 79 80  1  0
 80 81  2  0
 80 82  1  0
 82 83  1  0
 82 84  1  0
 84 85  1  0
 85 86  2  0
 85 87  1  0
 87 88  1  0
 87 89  1  0
 89 90  1  0
 90 91  2  0
 90 92  1  0
 92 93  1  0
 92 94  1  0
 94 95  1  0
 95 96  2  0
 95 97  1  0
 97 98  1  0
 97 99  1  0
 99100  1  0
100101  2  0
100102  1  0
102103  1  0
102104  1  0
104105  1  0
105106  2  0
105  5  1  0
 14  9  2  0
 68 11  1  0
  1107  1  0
  1108  1  0
  1109  1  0
  4110  1  0
  5111  1  6
  6112  1  0
  6113  1  0
  8114  1  0
  8115  1  0
 10116  1  0
 12117  1  0
 14118  1  0
 15119  1  0
 15120  1  0
 17121  1  0
 17122  1  0
 18123  1  1
 20124  1  0
 20125  1  0
 22126  1  0
 25127  1  1
 26128  1  0
 26129  1  0
 26130  1  0
 27131  1  0
 30132  1  1
 31133  1  0
 31134  1  0
 31135  1  0
 32136  1  0
 35137  1  6
 36138  1  0
 36139  1  0
 36140  1  0
 37141  1  0
 40142  1  1
 41143  1  0
 41144  1  0
 41145  1  0
 42146  1  0
 45147  1  1
 46148  1  0
 46149  1  0
 46150  1  0
 47151  1  0
 50152  1  1
 51153  1  0
 51154  1  0
 51155  1  0
 52156  1  0
 55157  1  6
 56158  1  0
 56159  1  0
 56160  1  0
 57161  1  0
 60162  1  6
 61163  1  0
 61164  1  0
 61165  1  0
 62166  1  0
 65167  1  6
 66168  1  0
 66169  1  0
 68170  1  0
 68171  1  0
 69172  1  0
 72173  1  1
 73174  1  0
 73175  1  0
 73176  1  0
 74177  1  0
 77178  1  1
 78179  1  0
 78180  1  0
 78181  1  0
 79182  1  0
 82183  1  6
 83184  1  0
 83185  1  0
 83186  1  0
 84187  1  0
 87188  1  1
 88189  1  0
 88190  1  0
 88191  1  0
 89192  1  0
 92193  1  1
 93194  1  0
 93195  1  0
 93196  1  0
 94197  1  0
 97198  1  1
 98199  1  0
 98200  1  0
 98201  1  0
 99202  1  0
102203  1  1
103204  1  0
103205  1  0
103206  1  0
104207  1  0
M  END
