
     RDKit          3D

197199  0  0  0  0  0  0  0  0999 V2000
    5.9780    8.5615   -3.3953 C   0  0  0  0  0  0  0  0  0  0  0  0
    5.1105    7.7814   -2.4598 C   0  0  0  0  0  0  0  0  0  0  0  0
    4.0456    8.2981   -2.0139 O   0  0  0  0  0  0  0  0  0  0  0  0
    5.4646    6.4376   -2.0956 N   0  0  0  0  0  0  0  0  0  0  0  0
    5.4907    5.9648   -0.7064 C   0  0  2  0  0  0  0  0  0  0  0  0
    4.0630    5.8860   -0.1281 C   0  0  0  0  0  0  0  0  0  0  0  0
    4.0533    4.9059    1.4198 S   0  0  0  0  0  0  0  0  0  0  0  0
    2.3872    5.4185    1.9710 C   0  0  0  0  0  0  0  0  0  0  0  0
    1.3151    4.5517    1.3630 C   0  0  0  0  0  0  0  0  0  0  0  0
    0.5336    5.0401    0.3108 C   0  0  0  0  0  0  0  0  0  0  0  0
   -0.5187    4.2764   -0.2183 C   0  0  0  0  0  0  0  0  0  0  0  0
   -0.7855    3.0067    0.3192 C   0  0  0  0  0  0  0  0  0  0  0  0
    0.0062    2.4957    1.3595 C   0  0  0  0  0  0  0  0  0  0  0  0
    1.0733    3.2611    1.8623 C   0  0  0  0  0  0  0  0  0  0  0  0
   -0.2505    1.1082    1.8893 C   0  0  0  0  0  0  0  0  0  0  0  0
    0.0678   -0.1213    0.5709 S   0  0  0  0  0  0  0  0  0  0  0  0
    0.0917   -1.5944    1.6446 C   0  0  0  0  0  0  0  0  0  0  0  0
    0.5158   -2.8189    0.8273 C   0  0  1  0  0  0  0  0  0  0  0  0
    0.7076   -3.9745    1.7077 N   0  0  0  0  0  0  0  0  0  0  0  0
    1.9856   -4.6058    1.8226 C   0  0  0  0  0  0  0  0  0  0  0  0
    2.9049   -4.0266    2.4593 O   0  0  0  0  0  0  0  0  0  0  0  0
    2.2665   -5.9122    1.1363 C   0  0  1  0  0  0  0  0  0  0  0  0
    1.2543   -6.9845    1.5429 C   0  0  0  0  0  0  0  0  0  0  0  0
    2.2199   -5.7135   -0.3145 N   0  0  0  0  0  0  0  0  0  0  0  0
    3.2634   -6.0648   -1.2370 C   0  0  0  0  0  0  0  0  0  0  0  0
    2.9499   -6.2778   -2.4415 O   0  0  0  0  0  0  0  0  0  0  0  0
    4.7109   -6.2400   -0.8083 C   0  0  1  0  0  0  0  0  0  0  0  0
    4.9364   -7.7232   -0.4690 C   0  0  0  0  0  0  0  0  0  0  0  0
    5.6254   -5.7896   -1.8737 N   0  0  0  0  0  0  0  0  0  0  0  0
    7.0699   -5.8077   -1.8231 C   0  0  0  0  0  0  0  0  0  0  0  0
    7.7065   -5.6693   -2.9054 O   0  0  0  0  0  0  0  0  0  0  0  0
    7.8527   -5.9853   -0.5443 C   0  0  1  0  0  0  0  0  0  0  0  0
    8.5366   -7.3552   -0.5375 C   0  0  0  0  0  0  0  0  0  0  0  0
    8.8695   -4.9266   -0.4151 N   0  0  0  0  0  0  0  0  0  0  0  0
    8.5301   -3.5391   -0.2249 C   0  0  0  0  0  0  0  0  0  0  0  0
    7.3537   -3.1471   -0.4496 O   0  0  0  0  0  0  0  0  0  0  0  0
    9.5530   -2.5565    0.3023 C   0  0  1  0  0  0  0  0  0  0  0  0
    9.9294   -2.9356    1.7402 C   0  0  0  0  0  0  0  0  0  0  0  0
   10.7441   -2.5199   -0.5576 N   0  0  0  0  0  0  0  0  0  0  0  0
   11.6929   -1.4356   -0.6290 C   0  0  0  0  0  0  0  0  0  0  0  0
   12.6311   -1.5081   -1.4680 O   0  0  0  0  0  0  0  0  0  0  0  0
   11.6111   -0.2064    0.2544 C   0  0  1  0  0  0  0  0  0  0  0  0
   12.9094   -0.0363    1.0528 C   0  0  0  0  0  0  0  0  0  0  0  0
   11.3867    0.9824   -0.5736 N   0  0  0  0  0  0  0  0  0  0  0  0
   10.8603    2.2175   -0.0671 C   0  0  0  0  0  0  0  0  0  0  0  0
   11.3300    3.3020   -0.5057 O   0  0  0  0  0  0  0  0  0  0  0  0
    9.7238    2.2675    0.9244 C   0  0  1  0  0  0  0  0  0  0  0  0
   10.1800    2.9526    2.2185 C   0  0  0  0  0  0  0  0  0  0  0  0
    8.5692    2.9246    0.3054 N   0  0  0  0  0  0  0  0  0  0  0  0
    8.1074    4.2374    0.6431 C   0  0  0  0  0  0  0  0  0  0  0  0
    7.3729    4.3908    1.6563 O   0  0  0  0  0  0  0  0  0  0  0  0
    8.5767    5.4330   -0.1488 C   0  0  1  0  0  0  0  0  0  0  0  0
    8.5837    5.1805   -1.6643 C   0  0  0  0  0  0  0  0  0  0  0  0
    7.8270    6.6533    0.2009 N   0  0  0  0  0  0  0  0  0  0  0  0
    6.4050    6.8586    0.1161 C   0  0  0  0  0  0  0  0  0  0  0  0
    5.9262    7.8933    0.6541 O   0  0  0  0  0  0  0  0  0  0  0  0
   -0.4797   -3.1436   -0.2616 C   0  0  0  0  0  0  0  0  0  0  0  0
   -0.1124   -3.0738   -1.4664 O   0  0  0  0  0  0  0  0  0  0  0  0
   -1.8467   -3.4643    0.0344 N   0  0  0  0  0  0  0  0  0  0  0  0
   -2.3009   -4.8574    0.1550 C   0  0  2  0  0  0  0  0  0  0  0  0
   -1.9955   -5.6409   -1.1299 C   0  0  0  0  0  0  0  0  0  0  0  0
   -3.7900   -4.9552    0.4445 C   0  0  0  0  0  0  0  0  0  0  0  0
   -4.5185   -3.9303    0.4950 O   0  0  0  0  0  0  0  0  0  0  0  0
   -4.3823   -6.2641    0.5505 N   0  0  0  0  0  0  0  0  0  0  0  0
   -5.7892   -6.5957    0.2567 C   0  0  2  0  0  0  0  0  0  0  0  0
   -5.8926   -8.0804   -0.1253 C   0  0  0  0  0  0  0  0  0  0  0  0
   -6.3811   -5.7665   -0.8656 C   0  0  0  0  0  0  0  0  0  0  0  0
   -5.6400   -5.2104   -1.7235 O   0  0  0  0  0  0  0  0  0  0  0  0
   -7.7980   -5.7662   -1.0814 N   0  0  0  0  0  0  0  0  0  0  0  0
   -8.7213   -4.8684   -0.3696 C   0  0  2  0  0  0  0  0  0  0  0  0
   -8.7813   -5.2093    1.1266 C   0  0  0  0  0  0  0  0  0  0  0  0
  -10.1153   -4.9748   -0.9614 C   0  0  0  0  0  0  0  0  0  0  0  0
  -10.5733   -6.1067   -1.2825 O   0  0  0  0  0  0  0  0  0  0  0  0
  -10.9406   -3.8159   -1.1550 N   0  0  0  0  0  0  0  0  0  0  0  0
  -11.0728   -2.7677   -0.1409 C   0  0  2  0  0  0  0  0  0  0  0  0
  -12.1909   -3.1224    0.8398 C   0  0  0  0  0  0  0  0  0  0  0  0
  -11.3402   -1.4340   -0.7919 C   0  0  0  0  0  0  0  0  0  0  0  0
  -12.4430   -1.2120   -1.3643 O   0  0  0  0  0  0  0  0  0  0  0  0
  -10.3402   -0.4021   -0.7262 N   0  0  0  0  0  0  0  0  0  0  0  0
  -10.6054    0.9236   -0.1387 C   0  0  2  0  0  0  0  0  0  0  0  0
  -11.3672    0.7847    1.1852 C   0  0  0  0  0  0  0  0  0  0  0  0
  -11.3324    1.8468   -1.0918 C   0  0  0  0  0  0  0  0  0  0  0  0
  -11.8279    1.3753   -2.1518 O   0  0  0  0  0  0  0  0  0  0  0  0
  -11.5251    3.2469   -0.8041 N   0  0  0  0  0  0  0  0  0  0  0  0
  -10.6949    4.0457    0.1079 C   0  0  2  0  0  0  0  0  0  0  0  0
  -11.5961    4.8608    1.0347 C   0  0  0  0  0  0  0  0  0  0  0  0
   -9.7774    4.9661   -0.6681 C   0  0  0  0  0  0  0  0  0  0  0  0
   -9.9375    5.0964   -1.9129 O   0  0  0  0  0  0  0  0  0  0  0  0
   -8.7832    5.7705   -0.0148 N   0  0  0  0  0  0  0  0  0  0  0  0
   -7.9187    5.2819    1.0649 C   0  0  2  0  0  0  0  0  0  0  0  0
   -7.7007    6.4084    2.0849 C   0  0  0  0  0  0  0  0  0  0  0  0
   -6.6370    4.7648    0.4532 C   0  0  0  0  0  0  0  0  0  0  0  0
   -6.6907    3.7546   -0.2993 O   0  0  0  0  0  0  0  0  0  0  0  0
   -5.3815    5.4365    0.6471 N   0  0  0  0  0  0  0  0  0  0  0  0
   -4.4051    5.5624   -0.4384 C   0  0  1  0  0  0  0  0  0  0  0  0
   -4.9987    6.4036   -1.5428 C   0  0  0  0  0  0  0  0  0  0  0  0
   -5.0951    5.8929   -2.8743 N   0  0  0  0  0  0  0  0  0  0  0  0
   -5.4031    7.5725   -1.2924 O   0  0  0  0  0  0  0  0  0  0  0  0
   -3.0985    6.1861    0.0908 C   0  0  0  0  0  0  0  0  0  0  0  0
   -1.8634    6.4828   -1.2373 S   0  0  0  0  0  0  0  0  0  0  0  0
   -1.2788    4.7591   -1.4253 C   0  0  0  0  0  0  0  0  0  0  0  0
    5.3834    8.8470   -4.2879 H   0  0  0  0  0  0  0  0  0  0  0  0
    6.8452    7.9534   -3.7163 H   0  0  0  0  0  0  0  0  0  0  0  0
    6.3439    9.4791   -2.8861 H   0  0  0  0  0  0  0  0  0  0  0  0
    5.8836    5.8323   -2.8403 H   0  0  0  0  0  0  0  0  0  0  0  0
    5.8808    4.9266   -0.7016 H   0  0  0  0  0  0  0  0  0  0  0  0
    3.3904    5.3917   -0.8620 H   0  0  0  0  0  0  0  0  0  0  0  0
    3.6753    6.9084    0.0622 H   0  0  0  0  0  0  0  0  0  0  0  0
    2.3429    5.3405    3.0741 H   0  0  0  0  0  0  0  0  0  0  0  0
    2.2089    6.4892    1.7376 H   0  0  0  0  0  0  0  0  0  0  0  0
    0.7491    6.0125   -0.1132 H   0  0  0  0  0  0  0  0  0  0  0  0
   -1.5846    2.3961   -0.0899 H   0  0  0  0  0  0  0  0  0  0  0  0
    1.6878    2.8715    2.6698 H   0  0  0  0  0  0  0  0  0  0  0  0
   -1.3102    1.0339    2.2153 H   0  0  0  0  0  0  0  0  0  0  0  0
    0.3990    0.8973    2.7652 H   0  0  0  0  0  0  0  0  0  0  0  0
    0.8213   -1.4373    2.4663 H   0  0  0  0  0  0  0  0  0  0  0  0
   -0.9123   -1.7469    2.0984 H   0  0  0  0  0  0  0  0  0  0  0  0
    1.4923   -2.5672    0.3527 H   0  0  0  0  0  0  0  0  0  0  0  0
   -0.0959   -4.3493    2.2612 H   0  0  0  0  0  0  0  0  0  0  0  0
    3.2587   -6.2830    1.4587 H   0  0  0  0  0  0  0  0  0  0  0  0
    0.2142   -6.6331    1.3892 H   0  0  0  0  0  0  0  0  0  0  0  0
    1.3943   -7.8890    0.9157 H   0  0  0  0  0  0  0  0  0  0  0  0
    1.3914   -7.2644    2.6100 H   0  0  0  0  0  0  0  0  0  0  0  0
    1.3003   -5.4348   -0.7235 H   0  0  0  0  0  0  0  0  0  0  0  0
    4.8888   -5.6098    0.0890 H   0  0  0  0  0  0  0  0  0  0  0  0
    4.0354   -8.1761    0.0018 H   0  0  0  0  0  0  0  0  0  0  0  0
    5.1795   -8.3038   -1.3825 H   0  0  0  0  0  0  0  0  0  0  0  0
    5.7538   -7.8225    0.2687 H   0  0  0  0  0  0  0  0  0  0  0  0
    5.2262   -5.4844   -2.7919 H   0  0  0  0  0  0  0  0  0  0  0  0
    7.1890   -5.9189    0.3410 H   0  0  0  0  0  0  0  0  0  0  0  0
    9.0694   -7.5090    0.4261 H   0  0  0  0  0  0  0  0  0  0  0  0
    9.2779   -7.4273   -1.3612 H   0  0  0  0  0  0  0  0  0  0  0  0
    7.8004   -8.1750   -0.6671 H   0  0  0  0  0  0  0  0  0  0  0  0
    9.8846   -5.1982   -0.4329 H   0  0  0  0  0  0  0  0  0  0  0  0
    9.0753   -1.5538    0.2976 H   0  0  0  0  0  0  0  0  0  0  0  0
   10.6448   -2.2088    2.1718 H   0  0  0  0  0  0  0  0  0  0  0  0
   10.4088   -3.9428    1.7604 H   0  0  0  0  0  0  0  0  0  0  0  0
    9.0187   -2.9515    2.3770 H   0  0  0  0  0  0  0  0  0  0  0  0
   10.9625   -3.3498   -1.1685 H   0  0  0  0  0  0  0  0  0  0  0  0
   10.8027   -0.3219    0.9877 H   0  0  0  0  0  0  0  0  0  0  0  0
   12.7930    0.7838    1.7938 H   0  0  0  0  0  0  0  0  0  0  0  0
   13.1520   -0.9724    1.6065 H   0  0  0  0  0  0  0  0  0  0  0  0
   13.7594    0.2208    0.3790 H   0  0  0  0  0  0  0  0  0  0  0  0
   11.9265    1.0474   -1.4659 H   0  0  0  0  0  0  0  0  0  0  0  0
    9.3917    1.2492    1.2029 H   0  0  0  0  0  0  0  0  0  0  0  0
   10.5154    3.9941    2.0205 H   0  0  0  0  0  0  0  0  0  0  0  0
   11.0324    2.3904    2.6628 H   0  0  0  0  0  0  0  0  0  0  0  0
    9.3533    2.9647    2.9604 H   0  0  0  0  0  0  0  0  0  0  0  0
    7.9898    2.3676   -0.3699 H   0  0  0  0  0  0  0  0  0  0  0  0
    9.6421    5.6066    0.1401 H   0  0  0  0  0  0  0  0  0  0  0  0
    7.6864    4.6156   -1.9898 H   0  0  0  0  0  0  0  0  0  0  0  0
    9.4700    4.5698   -1.9398 H   0  0  0  0  0  0  0  0  0  0  0  0
    8.6396    6.1406   -2.2155 H   0  0  0  0  0  0  0  0  0  0  0  0
    8.3787    7.4214    0.6418 H   0  0  0  0  0  0  0  0  0  0  0  0
   -2.5442   -2.7008   -0.1431 H   0  0  0  0  0  0  0  0  0  0  0  0
   -1.7740   -5.3378    0.9997 H   0  0  0  0  0  0  0  0  0  0  0  0
   -2.5883   -5.2439   -1.9871 H   0  0  0  0  0  0  0  0  0  0  0  0
   -0.9193   -5.5851   -1.3924 H   0  0  0  0  0  0  0  0  0  0  0  0
   -2.2513   -6.7157   -0.9892 H   0  0  0  0  0  0  0  0  0  0  0  0
   -3.7705   -7.0321    0.9207 H   0  0  0  0  0  0  0  0  0  0  0  0
   -6.3703   -6.4546    1.1893 H   0  0  0  0  0  0  0  0  0  0  0  0
   -6.9514   -8.3578   -0.3394 H   0  0  0  0  0  0  0  0  0  0  0  0
   -5.2715   -8.2806   -1.0282 H   0  0  0  0  0  0  0  0  0  0  0  0
   -5.5271   -8.7139    0.7104 H   0  0  0  0  0  0  0  0  0  0  0  0
   -8.1151   -6.1968   -1.9804 H   0  0  0  0  0  0  0  0  0  0  0  0
   -8.3604   -3.8236   -0.4823 H   0  0  0  0  0  0  0  0  0  0  0  0
   -7.8586   -4.8608    1.6267 H   0  0  0  0  0  0  0  0  0  0  0  0
   -9.6285   -4.6824    1.6220 H   0  0  0  0  0  0  0  0  0  0  0  0
   -8.9087   -6.3049    1.2747 H   0  0  0  0  0  0  0  0  0  0  0  0
  -11.7224   -3.9077   -1.8484 H   0  0  0  0  0  0  0  0  0  0  0  0
  -10.1294   -2.6726    0.4403 H   0  0  0  0  0  0  0  0  0  0  0  0
  -11.9504   -4.0710    1.3672 H   0  0  0  0  0  0  0  0  0  0  0  0
  -12.3140   -2.3160    1.5985 H   0  0  0  0  0  0  0  0  0  0  0  0
  -13.1554   -3.2598    0.3041 H   0  0  0  0  0  0  0  0  0  0  0  0
   -9.3448   -0.7090   -0.7486 H   0  0  0  0  0  0  0  0  0  0  0  0
   -9.6084    1.3707    0.0772 H   0  0  0  0  0  0  0  0  0  0  0  0
  -11.4270    1.7507    1.7164 H   0  0  0  0  0  0  0  0  0  0  0  0
  -10.8464    0.0580    1.8461 H   0  0  0  0  0  0  0  0  0  0  0  0
  -12.4033    0.4267    0.9990 H   0  0  0  0  0  0  0  0  0  0  0  0
  -12.2188    3.7596   -1.3976 H   0  0  0  0  0  0  0  0  0  0  0  0
  -10.0812    3.3826    0.7380 H   0  0  0  0  0  0  0  0  0  0  0  0
  -12.2782    4.1855    1.5913 H   0  0  0  0  0  0  0  0  0  0  0  0
  -12.2028    5.5850    0.4455 H   0  0  0  0  0  0  0  0  0  0  0  0
  -10.9796    5.4232    1.7687 H   0  0  0  0  0  0  0  0  0  0  0  0
   -8.4505    6.6169   -0.5312 H   0  0  0  0  0  0  0  0  0  0  0  0
   -8.4011    4.4513    1.6219 H   0  0  0  0  0  0  0  0  0  0  0  0
   -7.2082    7.2821    1.6041 H   0  0  0  0  0  0  0  0  0  0  0  0
   -8.6749    6.7375    2.4923 H   0  0  0  0  0  0  0  0  0  0  0  0
   -7.0811    6.0480    2.9369 H   0  0  0  0  0  0  0  0  0  0  0  0
   -5.1760    5.8807    1.5672 H   0  0  0  0  0  0  0  0  0  0  0  0
   -4.1846    4.5498   -0.8255 H   0  0  0  0  0  0  0  0  0  0  0  0
   -4.6748    4.9711   -3.1192 H   0  0  0  0  0  0  0  0  0  0  0  0
   -5.5556    6.4608   -3.6228 H   0  0  0  0  0  0  0  0  0  0  0  0
   -3.3292    7.1626    0.5665 H   0  0  0  0  0  0  0  0  0  0  0  0
   -2.6648    5.5240    0.8762 H   0  0  0  0  0  0  0  0  0  0  0  0
   -0.6043    4.7166   -2.3012 H   0  0  0  0  0  0  0  0  0  0  0  0
   -2.1432    4.0915   -1.6545 H   0  0  0  0  0  0  0  0  0  0  0  0
  1  2  1  0
  2  3  2  0
  2  4  1  0
  4  5  1  0
  5  6  1  0
  6  7  1  0
  7  8  1  0
  8  9  1  0
  9 10  2  0
 10 11  1  0
 11 12  2  0
 12 13  1  0
 13 14  2  0
 13 15  1  0
 15 16  1  0
 16 17  1  0
 17 18  1  0
 18 19  1  0
 19 20  1  0
 20 21  2  0
 20 22  1  0
 22 23  1  0
 22 24  1  0
 24 25  1  0
 25 26  2  0
 25 27  1  0
 27 28  1  0
 27 29  1  0
 29 30  1  0
 30 31  2  0
 30 32  1  0
 32 33  1  0
 32 34  1  0
 34 35  1  0
 35 36  2  0
 35 37  1  0
 37 38  1  0
 37 39  1  0
 39 40  1  0
 40 41  2  0
 40 42  1  0
 42 43  1  0
 42 44  1  0
 44 45  1  0
 45 46  2  0
 45 47  1  0
 47 48  1  0
 47 49  1  0
 49 50  1  0
 50 51  2  0
 50 52  1  0
 52 53  1  0
 52 54  1  0
 54 55  1  0
 55 56  2  0
 18 57  1  0
 57 58  2  0
 57 59  1  0
 59 60  1  0
 60 61  1  0
 60 62  1  0
 62 63  2  0
 62 64  1  0
 64 65  1  0
 65 66  1  0
 65 67  1  0
 67 68  2  0
 67 69  1  0
 69 70  1  0
 70 71  1  0
 70 72  1  0
 72 73  2  0
 72 74  1  0
 74 75  1  0
 75 76  1  0
 75 77  1  0
 77 78  2  0
 77 79  1  0
 79 80  1  0
 80 81  1  0
 80 82  1  0
 82 83  2  0
 82 84  1  0
 84 85  1  0
 85 86  1  0
 85 87  1  0
 87 88  2  0
 87 89  1  0
 89 90  1  0
 90 91  1  0
 90 92  1  0
 92 93  2  0
 92 94  1  0
 94 95  1  0
 95 96  1  0
 96 97  1  0
 96 98  2  0
 95 99  1  0
 99100  1  0
100101  1  0
 55  5  1  0
 14  9  1  0
101 11  1  0
  1102  1  0
  1103  1  0
  1104  1  0
  4105  1  0
  5106  1  6
  6107  1  0
  6108  1  0
  8109  1  0
  8110  1  0
 10111  1  0
 12112  1  0
 14113  1  0
 15114  1  0
 15115  1  0
 17116  1  0
 17117  1  0
 18118  1  6
 19119  1  0
 22120  1  6
 23121  1  0
 23122  1  0
 23123  1  0
 24124  1  0
 27125  1  1
 28126  1  0
 28127  1  0
 28128  1  0
 29129  1  0
 32130  1  1
 33131  1  0
 33132  1  0
 33133  1  0
 34134  1  0
 37135  1  1
 38136  1  0
 38137  1  0
 38138  1  0
 39139  1  0
 42140  1  1
 43141  1  0
 43142  1  0
 43143  1  0
 44144  1  0
 47145  1  1
 48146  1  0
 48147  1  0
 48148  1  0
 49149  1  0
 52150  1  1
 53151  1  0
 53152  1  0
 53153  1  0
 54154  1  0
 59155  1  0
 60156  1  1
 61157  1  0
 61158  1  0
 61159  1  0
 64160  1  0
 65161  1  1
 66162  1  0
 66163  1  0
 66164  1  0
 69165  1  0
 70166  1  1
 71167  1  0
 71168  1  0
 71169  1  0
 74170  1  0
 75171  1  1
 76172  1  0
 76173  1  0
 76174  1  0
 79175  1  0
 80176  1  1
 81177  1  0
 81178  1  0
 81179  1  0
 84180  1  0
 85181  1  1
 86182  1  0
 86183  1  0
 86184  1  0
 89185  1  0
 90186  1  1
 91187  1  0
 91188  1  0
 91189  1  0
 94190  1  0
 95191  1  6
 97192  1  0
 97193  1  0
 99194  1  0
 99195  1  0
101196  1  0
101197  1  0
M  END
