
     RDKit          3D

117119  0  0  0  0  0  0  0  0999 V2000
    9.6341    1.7929   -1.3085 C   0  0  0  0  0  0  0  0  0  0  0  0
    8.2425    1.3013   -1.0735 C   0  0  0  0  0  0  0  0  0  0  0  0
    7.9509    0.8356    0.0630 O   0  0  0  0  0  0  0  0  0  0  0  0
    7.2669    1.3530   -2.1286 N   0  0  0  0  0  0  0  0  0  0  0  0
    5.8686    0.9048   -2.0237 C   0  0  2  0  0  0  0  0  0  0  0  0
    5.1190    1.5676   -0.8567 C   0  0  0  0  0  0  0  0  0  0  0  0
    5.1701    3.3919   -1.0011 S   0  0  0  0  0  0  0  0  0  0  0  0
    4.8116    3.7225    0.7576 C   0  0  0  0  0  0  0  0  0  0  0  0
    3.3684    3.4240    1.0602 C   0  0  0  0  0  0  0  0  0  0  0  0
    2.3718    4.3360    0.6795 C   0  0  0  0  0  0  0  0  0  0  0  0
    1.0274    4.0872    0.9909 C   0  0  0  0  0  0  0  0  0  0  0  0
    0.6754    2.8944    1.6313 C   0  0  0  0  0  0  0  0  0  0  0  0
    1.6576    1.9588    1.9972 C   0  0  0  0  0  0  0  0  0  0  0  0
    3.0092    2.2583    1.7517 C   0  0  0  0  0  0  0  0  0  0  0  0
    1.2389    0.7432    2.7865 C   0  0  0  0  0  0  0  0  0  0  0  0
    2.3574   -0.6980    2.6321 S   0  0  0  0  0  0  0  0  0  0  0  0
    1.9646   -1.1172    0.8902 C   0  0  0  0  0  0  0  0  0  0  0  0
    2.1924   -2.6229    0.6619 C   0  0  2  0  0  0  0  0  0  0  0  0
    3.5868   -2.9912    0.9361 N   0  0  0  0  0  0  0  0  0  0  0  0
    4.6525   -2.7908   -0.0026 C   0  0  0  0  0  0  0  0  0  0  0  0
    4.7521   -3.5492   -1.0096 O   0  0  0  0  0  0  0  0  0  0  0  0
    5.7022   -1.7452    0.2746 C   0  0  1  0  0  0  0  0  0  0  0  0
    6.6905   -2.2487    1.3244 C   0  0  0  0  0  0  0  0  0  0  0  0
    6.4169   -1.3689   -0.9526 N   0  0  0  0  0  0  0  0  0  0  0  0
    5.7821   -0.6021   -1.9823 C   0  0  0  0  0  0  0  0  0  0  0  0
    5.2241   -1.2082   -2.9379 O   0  0  0  0  0  0  0  0  0  0  0  0
    1.7793   -3.0348   -0.7390 C   0  0  0  0  0  0  0  0  0  0  0  0
    2.1555   -2.3290   -1.7138 O   0  0  0  0  0  0  0  0  0  0  0  0
    1.0110   -4.2195   -1.0132 N   0  0  0  0  0  0  0  0  0  0  0  0
    0.3244   -5.0336   -0.0014 C   0  0  2  0  0  0  0  0  0  0  0  0
    1.3286   -5.9524    0.7078 C   0  0  0  0  0  0  0  0  0  0  0  0
   -0.7528   -5.8738   -0.6428 C   0  0  0  0  0  0  0  0  0  0  0  0
   -0.4248   -6.7720   -1.4632 O   0  0  0  0  0  0  0  0  0  0  0  0
   -2.1428   -5.7235   -0.3059 N   0  0  0  0  0  0  0  0  0  0  0  0
   -2.9027   -4.4634   -0.3671 C   0  0  2  0  0  0  0  0  0  0  0  0
   -2.3514   -3.5023   -1.4247 C   0  0  0  0  0  0  0  0  0  0  0  0
   -3.0083   -3.7913    0.9789 C   0  0  0  0  0  0  0  0  0  0  0  0
   -2.3036   -4.1920    1.9437 O   0  0  0  0  0  0  0  0  0  0  0  0
   -3.8836   -2.6685    1.1883 N   0  0  0  0  0  0  0  0  0  0  0  0
   -5.3395   -2.7100    0.9975 C   0  0  2  0  0  0  0  0  0  0  0  0
   -5.9415   -3.9406    1.6872 C   0  0  0  0  0  0  0  0  0  0  0  0
   -5.7017   -2.6320   -0.4724 C   0  0  0  0  0  0  0  0  0  0  0  0
   -6.0828   -3.6622   -1.0904 O   0  0  0  0  0  0  0  0  0  0  0  0
   -5.5969   -1.3974   -1.1912 N   0  0  0  0  0  0  0  0  0  0  0  0
   -6.1783   -0.1398   -0.6986 C   0  0  2  0  0  0  0  0  0  0  0  0
   -7.6748   -0.3266   -0.4217 C   0  0  0  0  0  0  0  0  0  0  0  0
   -6.0100    0.9668   -1.7182 C   0  0  0  0  0  0  0  0  0  0  0  0
   -6.2107    0.7083   -2.9378 O   0  0  0  0  0  0  0  0  0  0  0  0
   -5.7175    2.3267   -1.3469 N   0  0  0  0  0  0  0  0  0  0  0  0
   -5.7908    2.8472    0.0259 C   0  0  2  0  0  0  0  0  0  0  0  0
   -6.2997    4.2935    0.0473 C   0  0  0  0  0  0  0  0  0  0  0  0
   -4.4726    2.6898    0.7579 C   0  0  0  0  0  0  0  0  0  0  0  0
   -4.4256    1.8687    1.7099 O   0  0  0  0  0  0  0  0  0  0  0  0
   -3.2854    3.4554    0.4758 N   0  0  0  0  0  0  0  0  0  0  0  0
   -2.9922    4.2097   -0.7529 C   0  0  1  0  0  0  0  0  0  0  0  0
   -3.3017    5.6819   -0.5853 C   0  0  0  0  0  0  0  0  0  0  0  0
   -3.4110    6.2860    0.7053 N   0  0  0  0  0  0  0  0  0  0  0  0
   -3.4820    6.3927   -1.6142 O   0  0  0  0  0  0  0  0  0  0  0  0
   -1.5374    3.9291   -1.2298 C   0  0  0  0  0  0  0  0  0  0  0  0
   -0.3470    5.3260   -1.0567 S   0  0  0  0  0  0  0  0  0  0  0  0
   -0.0063    5.1462    0.7263 C   0  0  0  0  0  0  0  0  0  0  0  0
   10.3524    0.9803   -1.0687 H   0  0  0  0  0  0  0  0  0  0  0  0
    9.8366    2.6651   -0.6492 H   0  0  0  0  0  0  0  0  0  0  0  0
    9.7949    2.0961   -2.3688 H   0  0  0  0  0  0  0  0  0  0  0  0
    7.5627    1.7801   -3.0373 H   0  0  0  0  0  0  0  0  0  0  0  0
    5.3371    1.2347   -2.9446 H   0  0  0  0  0  0  0  0  0  0  0  0
    5.5484    1.2610    0.1145 H   0  0  0  0  0  0  0  0  0  0  0  0
    4.0548    1.2413   -0.8799 H   0  0  0  0  0  0  0  0  0  0  0  0
    5.4926    3.1289    1.4008 H   0  0  0  0  0  0  0  0  0  0  0  0
    5.0277    4.7927    0.9722 H   0  0  0  0  0  0  0  0  0  0  0  0
    2.6494    5.2549    0.1750 H   0  0  0  0  0  0  0  0  0  0  0  0
   -0.3635    2.6988    1.8760 H   0  0  0  0  0  0  0  0  0  0  0  0
    3.7856    1.5863    2.0889 H   0  0  0  0  0  0  0  0  0  0  0  0
    0.2091    0.4264    2.5019 H   0  0  0  0  0  0  0  0  0  0  0  0
    1.2071    1.0172    3.8599 H   0  0  0  0  0  0  0  0  0  0  0  0
    0.9005   -0.8733    0.6658 H   0  0  0  0  0  0  0  0  0  0  0  0
    2.6229   -0.5185    0.2256 H   0  0  0  0  0  0  0  0  0  0  0  0
    1.5589   -3.1413    1.4069 H   0  0  0  0  0  0  0  0  0  0  0  0
    3.8558   -3.0741    1.9435 H   0  0  0  0  0  0  0  0  0  0  0  0
    5.1939   -0.8533    0.6868 H   0  0  0  0  0  0  0  0  0  0  0  0
    7.2027   -3.1715    0.9759 H   0  0  0  0  0  0  0  0  0  0  0  0
    6.1698   -2.4661    2.2775 H   0  0  0  0  0  0  0  0  0  0  0  0
    7.4509   -1.4631    1.5284 H   0  0  0  0  0  0  0  0  0  0  0  0
    7.2016   -1.9893   -1.2599 H   0  0  0  0  0  0  0  0  0  0  0  0
    0.8510   -4.4419   -2.0214 H   0  0  0  0  0  0  0  0  0  0  0  0
   -0.1513   -4.3697    0.7419 H   0  0  0  0  0  0  0  0  0  0  0  0
    2.1028   -5.3596    1.2356 H   0  0  0  0  0  0  0  0  0  0  0  0
    0.8033   -6.5805    1.4593 H   0  0  0  0  0  0  0  0  0  0  0  0
    1.8325   -6.6139   -0.0288 H   0  0  0  0  0  0  0  0  0  0  0  0
   -2.7133   -6.5988   -0.3593 H   0  0  0  0  0  0  0  0  0  0  0  0
   -3.9269   -4.7353   -0.6785 H   0  0  0  0  0  0  0  0  0  0  0  0
   -1.3887   -3.0607   -1.1026 H   0  0  0  0  0  0  0  0  0  0  0  0
   -2.2120   -4.0389   -2.3862 H   0  0  0  0  0  0  0  0  0  0  0  0
   -3.0569   -2.6652   -1.5933 H   0  0  0  0  0  0  0  0  0  0  0  0
   -3.5140   -1.8936    1.7838 H   0  0  0  0  0  0  0  0  0  0  0  0
   -5.7808   -1.8294    1.5068 H   0  0  0  0  0  0  0  0  0  0  0  0
   -7.0532   -3.9045    1.6203 H   0  0  0  0  0  0  0  0  0  0  0  0
   -5.5849   -4.8844    1.2185 H   0  0  0  0  0  0  0  0  0  0  0  0
   -5.6648   -3.9489    2.7608 H   0  0  0  0  0  0  0  0  0  0  0  0
   -5.2720   -1.4664   -2.1824 H   0  0  0  0  0  0  0  0  0  0  0  0
   -5.6686    0.1466    0.2440 H   0  0  0  0  0  0  0  0  0  0  0  0
   -8.1724   -0.7793   -1.3032 H   0  0  0  0  0  0  0  0  0  0  0  0
   -7.8263   -0.9905    0.4564 H   0  0  0  0  0  0  0  0  0  0  0  0
   -8.1641    0.6467   -0.2028 H   0  0  0  0  0  0  0  0  0  0  0  0
   -5.6537    3.0076   -2.1348 H   0  0  0  0  0  0  0  0  0  0  0  0
   -6.5592    2.2704    0.5844 H   0  0  0  0  0  0  0  0  0  0  0  0
   -6.1309    4.7509    1.0448 H   0  0  0  0  0  0  0  0  0  0  0  0
   -5.8122    4.9106   -0.7339 H   0  0  0  0  0  0  0  0  0  0  0  0
   -7.3901    4.3037   -0.1643 H   0  0  0  0  0  0  0  0  0  0  0  0
   -2.5516    3.4310    1.2132 H   0  0  0  0  0  0  0  0  0  0  0  0
   -3.6581    3.8423   -1.5543 H   0  0  0  0  0  0  0  0  0  0  0  0
   -3.1604    5.7657    1.5715 H   0  0  0  0  0  0  0  0  0  0  0  0
   -3.6833    7.2897    0.7851 H   0  0  0  0  0  0  0  0  0  0  0  0
   -1.1192    3.0285   -0.7300 H   0  0  0  0  0  0  0  0  0  0  0  0
   -1.5723    3.6818   -2.3118 H   0  0  0  0  0  0  0  0  0  0  0  0
   -0.9361    4.9610    1.2897 H   0  0  0  0  0  0  0  0  0  0  0  0
    0.3793    6.1196    1.1010 H   0  0  0  0  0  0  0  0  0  0  0  0
  1  2  1  0
  2  3  2  0
  2  4  1  0
  4  5  1  0
  5  6  1  0
  6  7  1  0
  7  8  1  0
  8  9  1  0
  9 10  1  0
 10 11  2  0
 11 12  1  0
 12 13  2  0
 13 14  1  0
 13 15  1  0
 15 16  1  0
 16 17  1  0
 17 18  1  0
 18 19  1  0
 19 20  1  0
 20 21  2  0
 20 22  1  0
 22 23  1  0
 22 24  1  0
 24 25  1  0
 25 26  2  0
 18 27  1  0
 27 28  2  0
 27 29  1  0
 29 30  1  0
 30 31  1  0
 30 32  1  0
 32 33  2  0
 32 34  1  0
 34 35  1  0
 35 36  1  0
 35 37  1  0
 37 38  2  0
 37 39  1  0
 39 40  1  0
 40 41  1  0
 40 42  1  0
 42 43  2  0
 42 44  1  0
 44 45  1  0
 45 46  1  0
 45 47  1  0
 47 48  2  0
 47 49  1  0
 49 50  1  0
 50 51  1  0
 50 52  1  0
 52 53  2  0
 52 54  1  0
 54 55  1  0
 55 56  1  0
 56 57  1  0
 56 58  2  0
 55 59  1  0
 59 60  1  0
 60 61  1  0
 25  5  1  0
 14  9  2  0
 61 11  1  0
  1 62  1  0
  1 63  1  0
  1 64  1  0
  4 65  1  0
  5 66  1  6
  6 67  1  0
  6 68  1  0
  8 69  1  0
  8 70  1  0
 10 71  1  0
 12 72  1  0
 14 73  1  0
 15 74  1  0
 15 75  1  0
 17 76  1  0
 17 77  1  0
 18 78  1  1
 19 79  1  0
 22 80  1  1
 23 81  1  0
 23 82  1  0
 23 83  1  0
 24 84  1  0
 29 85  1  0
 30 86  1  1
 31 87  1  0
 31 88  1  0
 31 89  1  0
 34 90  1  0
 35 91  1  6
 36 92  1  0
 36 93  1  0
 36 94  1  0
 39 95  1  0
 40 96  1  1
 41 97  1  0
 41 98  1  0
 41 99  1  0
 44100  1  0
 45101  1  1
 46102  1  0
 46103  1  0
 46104  1  0
 49105  1  0
 50106  1  1
 51107  1  0
 51108  1  0
 51109  1  0
 54110  1  0
 55111  1  6
 57112  1  0
 57113  1  0
 59114  1  0
 59115  1  0
 61116  1  0
 61117  1  0
M  END
