
     RDKit          3D

197199  0  0  0  0  0  0  0  0999 V2000
   -4.7744    7.6566   -0.9223 C   0  0  0  0  0  0  0  0  0  0  0  0
   -5.0988    6.2849   -1.4279 C   0  0  0  0  0  0  0  0  0  0  0  0
   -5.3554    6.1317   -2.6540 O   0  0  0  0  0  0  0  0  0  0  0  0
   -5.1051    5.1352   -0.5667 N   0  0  0  0  0  0  0  0  0  0  0  0
   -4.9368    5.1971    0.8911 C   0  0  2  0  0  0  0  0  0  0  0  0
   -4.1233    3.9853    1.3872 C   0  0  0  0  0  0  0  0  0  0  0  0
   -2.3277    4.2295    1.1269 S   0  0  0  0  0  0  0  0  0  0  0  0
   -2.2944    3.8891   -0.6702 C   0  0  0  0  0  0  0  0  0  0  0  0
   -0.9517    3.3243   -1.0367 C   0  0  0  0  0  0  0  0  0  0  0  0
   -0.8376    1.9845   -1.4415 C   0  0  0  0  0  0  0  0  0  0  0  0
    0.4218    1.3977   -1.6481 C   0  0  0  0  0  0  0  0  0  0  0  0
    1.5708    2.2082   -1.5622 C   0  0  0  0  0  0  0  0  0  0  0  0
    1.4728    3.5590   -1.1736 C   0  0  0  0  0  0  0  0  0  0  0  0
    0.2049    4.1027   -0.9055 C   0  0  0  0  0  0  0  0  0  0  0  0
    2.6993    4.4250   -1.0471 C   0  0  0  0  0  0  0  0  0  0  0  0
    3.9386    3.6226    0.0423 S   0  0  0  0  0  0  0  0  0  0  0  0
    4.5293    5.1110    0.9333 C   0  0  0  0  0  0  0  0  0  0  0  0
    5.1151    6.2298    0.0408 C   0  0  1  0  0  0  0  0  0  0  0  0
    5.7817    7.3197    0.8428 C   0  0  0  0  0  0  0  0  0  0  0  0
    6.2884    8.4806    0.1830 N   0  0  0  0  0  0  0  0  0  0  0  0
    5.8623    7.2452    2.0989 O   0  0  0  0  0  0  0  0  0  0  0  0
    6.0154    5.7361   -1.0178 N   0  0  0  0  0  0  0  0  0  0  0  0
    6.9204    4.6319   -0.8993 C   0  0  0  0  0  0  0  0  0  0  0  0
    6.6659    3.5754   -1.5364 O   0  0  0  0  0  0  0  0  0  0  0  0
    8.2325    4.7322   -0.1636 C   0  0  1  0  0  0  0  0  0  0  0  0
    8.9439    6.0598   -0.4228 C   0  0  0  0  0  0  0  0  0  0  0  0
    8.0453    4.5202    1.2747 N   0  0  0  0  0  0  0  0  0  0  0  0
    8.5832    3.4293    2.0507 C   0  0  0  0  0  0  0  0  0  0  0  0
    8.4704    3.4786    3.3091 O   0  0  0  0  0  0  0  0  0  0  0  0
    9.3157    2.2469    1.4450 C   0  0  1  0  0  0  0  0  0  0  0  0
    8.3946    1.4784    0.4721 C   0  0  0  0  0  0  0  0  0  0  0  0
   10.5639    2.7036    0.8058 N   0  0  0  0  0  0  0  0  0  0  0  0
   11.7143    1.8783    0.5606 C   0  0  0  0  0  0  0  0  0  0  0  0
   12.8569    2.4148    0.6033 O   0  0  0  0  0  0  0  0  0  0  0  0
   11.6140    0.4008    0.2501 C   0  0  1  0  0  0  0  0  0  0  0  0
   12.5496    0.0409   -0.9142 C   0  0  0  0  0  0  0  0  0  0  0  0
   11.9509   -0.3891    1.4400 N   0  0  0  0  0  0  0  0  0  0  0  0
   11.3732   -1.6647    1.7680 C   0  0  0  0  0  0  0  0  0  0  0  0
   11.3771   -2.0404    2.9709 O   0  0  0  0  0  0  0  0  0  0  0  0
   10.8892   -2.6272    0.7076 C   0  0  1  0  0  0  0  0  0  0  0  0
   12.0331   -3.5536    0.2857 C   0  0  0  0  0  0  0  0  0  0  0  0
    9.7700   -3.4285    1.2157 N   0  0  0  0  0  0  0  0  0  0  0  0
    8.4122   -3.0500    0.9796 C   0  0  0  0  0  0  0  0  0  0  0  0
    7.7904   -2.3978    1.8645 O   0  0  0  0  0  0  0  0  0  0  0  0
    7.6607   -3.5585   -0.2229 C   0  0  1  0  0  0  0  0  0  0  0  0
    8.4525   -3.3462   -1.5176 C   0  0  0  0  0  0  0  0  0  0  0  0
    7.3623   -4.9909   -0.0579 N   0  0  0  0  0  0  0  0  0  0  0  0
    6.4152   -5.6948   -0.8716 C   0  0  0  0  0  0  0  0  0  0  0  0
    6.7222   -6.8370   -1.3079 O   0  0  0  0  0  0  0  0  0  0  0  0
    5.0392   -5.1394   -1.1602 C   0  0  1  0  0  0  0  0  0  0  0  0
    5.0343   -4.2401   -2.4075 C   0  0  0  0  0  0  0  0  0  0  0  0
    4.0928   -6.2426   -1.3803 N   0  0  0  0  0  0  0  0  0  0  0  0
    3.3791   -6.9182   -0.3290 C   0  0  0  0  0  0  0  0  0  0  0  0
    3.2193   -8.1688   -0.4261 O   0  0  0  0  0  0  0  0  0  0  0  0
    2.8133   -6.2167    0.8816 C   0  0  1  0  0  0  0  0  0  0  0  0
    3.7995   -6.3148    2.0464 C   0  0  0  0  0  0  0  0  0  0  0  0
    2.4512   -4.8182    0.6129 N   0  0  0  0  0  0  0  0  0  0  0  0
    1.5278   -4.4320   -0.4175 C   0  0  0  0  0  0  0  0  0  0  0  0
    1.3492   -5.1791   -1.4165 O   0  0  0  0  0  0  0  0  0  0  0  0
    0.7479   -3.1488   -0.2673 C   0  0  1  0  0  0  0  0  0  0  0  0
    0.0125   -2.7324   -1.5513 C   0  0  0  0  0  0  0  0  0  0  0  0
   -0.7912   -1.1073   -1.3196 S   0  0  0  0  0  0  0  0  0  0  0  0
    0.5681   -0.0696   -2.0027 C   0  0  0  0  0  0  0  0  0  0  0  0
   -0.1795   -3.2267    0.8718 N   0  0  0  0  0  0  0  0  0  0  0  0
   -0.8694   -4.4227    1.2671 C   0  0  0  0  0  0  0  0  0  0  0  0
   -0.5416   -4.9848    2.3500 O   0  0  0  0  0  0  0  0  0  0  0  0
   -1.9799   -5.0204    0.4303 C   0  0  1  0  0  0  0  0  0  0  0  0
   -1.4602   -6.2005   -0.4015 C   0  0  0  0  0  0  0  0  0  0  0  0
   -3.0605   -5.4948    1.3023 N   0  0  0  0  0  0  0  0  0  0  0  0
   -4.4511   -5.1851    1.1566 C   0  0  0  0  0  0  0  0  0  0  0  0
   -5.2005   -5.3730    2.1551 O   0  0  0  0  0  0  0  0  0  0  0  0
   -5.0623   -4.6459   -0.1285 C   0  0  1  0  0  0  0  0  0  0  0  0
   -4.7440   -5.5235   -1.3543 C   0  0  0  0  0  0  0  0  0  0  0  0
   -6.5190   -4.4899    0.0045 N   0  0  0  0  0  0  0  0  0  0  0  0
   -7.4288   -5.5885    0.1913 C   0  0  0  0  0  0  0  0  0  0  0  0
   -6.9877   -6.7608    0.3463 O   0  0  0  0  0  0  0  0  0  0  0  0
   -8.9144   -5.3216    0.2413 C   0  0  1  0  0  0  0  0  0  0  0  0
   -9.7450   -6.6063    0.1300 C   0  0  0  0  0  0  0  0  0  0  0  0
   -9.2445   -4.6375    1.4955 N   0  0  0  0  0  0  0  0  0  0  0  0
  -10.0226   -3.4296    1.5981 C   0  0  0  0  0  0  0  0  0  0  0  0
  -10.5830   -3.1653    2.6957 O   0  0  0  0  0  0  0  0  0  0  0  0
  -10.2104   -2.4929    0.4251 C   0  0  1  0  0  0  0  0  0  0  0  0
  -11.4336   -2.9040   -0.4075 C   0  0  0  0  0  0  0  0  0  0  0  0
  -10.3976   -1.1187    0.8998 N   0  0  0  0  0  0  0  0  0  0  0  0
   -9.5108   -0.0698    0.5067 C   0  0  0  0  0  0  0  0  0  0  0  0
   -8.3091   -0.0941    0.9003 O   0  0  0  0  0  0  0  0  0  0  0  0
   -9.9774    1.0533   -0.3797 C   0  0  1  0  0  0  0  0  0  0  0  0
   -9.4580    0.8478   -1.7983 C   0  0  0  0  0  0  0  0  0  0  0  0
  -11.4432    1.1242   -0.4065 N   0  0  0  0  0  0  0  0  0  0  0  0
  -12.2259    2.2738   -0.0335 C   0  0  0  0  0  0  0  0  0  0  0  0
  -13.4692    2.1214    0.1314 O   0  0  0  0  0  0  0  0  0  0  0  0
  -11.6097    3.6472    0.1478 C   0  0  1  0  0  0  0  0  0  0  0  0
  -12.6529    4.7564   -0.0238 C   0  0  0  0  0  0  0  0  0  0  0  0
  -11.0091    3.7431    1.4833 N   0  0  0  0  0  0  0  0  0  0  0  0
   -9.6516    4.1028    1.7940 C   0  0  0  0  0  0  0  0  0  0  0  0
   -9.2737    4.0221    2.9947 O   0  0  0  0  0  0  0  0  0  0  0  0
   -8.6858    4.6642    0.7724 C   0  0  1  0  0  0  0  0  0  0  0  0
   -8.8797    6.1860    0.6405 C   0  0  0  0  0  0  0  0  0  0  0  0
   -7.3077    4.2848    1.1178 N   0  0  0  0  0  0  0  0  0  0  0  0
   -6.2944    5.2010    1.5445 C   0  0  0  0  0  0  0  0  0  0  0  0
   -6.5042    5.9648    2.5332 O   0  0  0  0  0  0  0  0  0  0  0  0
   -3.7453    7.6756   -0.5134 H   0  0  0  0  0  0  0  0  0  0  0  0
   -5.4953    7.9478   -0.1311 H   0  0  0  0  0  0  0  0  0  0  0  0
   -4.8391    8.4020   -1.7419 H   0  0  0  0  0  0  0  0  0  0  0  0
   -5.4022    4.2305   -0.9967 H   0  0  0  0  0  0  0  0  0  0  0  0
   -4.3872    6.1169    1.1895 H   0  0  0  0  0  0  0  0  0  0  0  0
   -4.2622    3.8688    2.4831 H   0  0  0  0  0  0  0  0  0  0  0  0
   -4.4662    3.0352    0.9232 H   0  0  0  0  0  0  0  0  0  0  0  0
   -3.0957    3.1727   -0.9429 H   0  0  0  0  0  0  0  0  0  0  0  0
   -2.4656    4.8373   -1.2216 H   0  0  0  0  0  0  0  0  0  0  0  0
   -1.7306    1.3908   -1.5456 H   0  0  0  0  0  0  0  0  0  0  0  0
    2.5418    1.7847   -1.7903 H   0  0  0  0  0  0  0  0  0  0  0  0
    0.1142    5.1233   -0.5689 H   0  0  0  0  0  0  0  0  0  0  0  0
    2.4086    5.4145   -0.6377 H   0  0  0  0  0  0  0  0  0  0  0  0
    3.1495    4.5665   -2.0549 H   0  0  0  0  0  0  0  0  0  0  0  0
    3.6890    5.5238    1.5258 H   0  0  0  0  0  0  0  0  0  0  0  0
    5.2873    4.7604    1.6551 H   0  0  0  0  0  0  0  0  0  0  0  0
    4.2586    6.7257   -0.4632 H   0  0  0  0  0  0  0  0  0  0  0  0
    6.7432    9.2438    0.7338 H   0  0  0  0  0  0  0  0  0  0  0  0
    6.2453    8.5707   -0.8535 H   0  0  0  0  0  0  0  0  0  0  0  0
    5.7641    6.0062   -1.9973 H   0  0  0  0  0  0  0  0  0  0  0  0
    8.8943    3.9550   -0.5893 H   0  0  0  0  0  0  0  0  0  0  0  0
    9.0285    6.2403   -1.5134 H   0  0  0  0  0  0  0  0  0  0  0  0
    8.3940    6.9025    0.0418 H   0  0  0  0  0  0  0  0  0  0  0  0
    9.9645    6.0295    0.0152 H   0  0  0  0  0  0  0  0  0  0  0  0
    7.5517    5.2705    1.8047 H   0  0  0  0  0  0  0  0  0  0  0  0
    9.5842    1.5529    2.2699 H   0  0  0  0  0  0  0  0  0  0  0  0
    8.6749    1.6586   -0.5860 H   0  0  0  0  0  0  0  0  0  0  0  0
    7.3280    1.7538    0.6134 H   0  0  0  0  0  0  0  0  0  0  0  0
    8.4598    0.3892    0.6701 H   0  0  0  0  0  0  0  0  0  0  0  0
   10.7429    3.7329    0.7803 H   0  0  0  0  0  0  0  0  0  0  0  0
   10.5846    0.1700   -0.0773 H   0  0  0  0  0  0  0  0  0  0  0  0
   12.4077   -1.0122   -1.2228 H   0  0  0  0  0  0  0  0  0  0  0  0
   13.6071    0.1974   -0.6282 H   0  0  0  0  0  0  0  0  0  0  0  0
   12.3231    0.6815   -1.7909 H   0  0  0  0  0  0  0  0  0  0  0  0
   12.5982    0.0334    2.1413 H   0  0  0  0  0  0  0  0  0  0  0  0
   10.5608   -2.0670   -0.1844 H   0  0  0  0  0  0  0  0  0  0  0  0
   12.9241   -2.9657   -0.0170 H   0  0  0  0  0  0  0  0  0  0  0  0
   11.7181   -4.1843   -0.5707 H   0  0  0  0  0  0  0  0  0  0  0  0
   12.3180   -4.2212    1.1244 H   0  0  0  0  0  0  0  0  0  0  0  0
    9.9509   -4.0935    1.9995 H   0  0  0  0  0  0  0  0  0  0  0  0
    6.7114   -2.9908   -0.2873 H   0  0  0  0  0  0  0  0  0  0  0  0
    7.8737   -3.7118   -2.3894 H   0  0  0  0  0  0  0  0  0  0  0  0
    9.4074   -3.9098   -1.4906 H   0  0  0  0  0  0  0  0  0  0  0  0
    8.6537   -2.2649   -1.6717 H   0  0  0  0  0  0  0  0  0  0  0  0
    8.0789   -5.5786    0.4288 H   0  0  0  0  0  0  0  0  0  0  0  0
    4.7287   -4.5253   -0.2935 H   0  0  0  0  0  0  0  0  0  0  0  0
    5.5492   -3.2796   -2.2190 H   0  0  0  0  0  0  0  0  0  0  0  0
    5.5250   -4.7554   -3.2624 H   0  0  0  0  0  0  0  0  0  0  0  0
    3.9875   -4.0059   -2.6913 H   0  0  0  0  0  0  0  0  0  0  0  0
    4.1554   -6.7459   -2.2952 H   0  0  0  0  0  0  0  0  0  0  0  0
    1.8798   -6.7535    1.1797 H   0  0  0  0  0  0  0  0  0  0  0  0
    3.3678   -5.8445    2.9543 H   0  0  0  0  0  0  0  0  0  0  0  0
    4.0095   -7.3809    2.2839 H   0  0  0  0  0  0  0  0  0  0  0  0
    4.7539   -5.8063    1.8002 H   0  0  0  0  0  0  0  0  0  0  0  0
    2.7414   -4.0844    1.2991 H   0  0  0  0  0  0  0  0  0  0  0  0
    1.4903   -2.3550   -0.0545 H   0  0  0  0  0  0  0  0  0  0  0  0
   -0.7655   -3.4725   -1.8082 H   0  0  0  0  0  0  0  0  0  0  0  0
    0.7191   -2.6933   -2.4054 H   0  0  0  0  0  0  0  0  0  0  0  0
    1.5348   -0.4313   -1.5968 H   0  0  0  0  0  0  0  0  0  0  0  0
    0.5825   -0.1817   -3.1054 H   0  0  0  0  0  0  0  0  0  0  0  0
   -0.0402   -2.5177    1.6290 H   0  0  0  0  0  0  0  0  0  0  0  0
   -2.3574   -4.2335   -0.2505 H   0  0  0  0  0  0  0  0  0  0  0  0
   -1.0082   -5.8378   -1.3412 H   0  0  0  0  0  0  0  0  0  0  0  0
   -0.7265   -6.8051    0.1695 H   0  0  0  0  0  0  0  0  0  0  0  0
   -2.2947   -6.8711   -0.6859 H   0  0  0  0  0  0  0  0  0  0  0  0
   -2.8000   -6.1475    2.0803 H   0  0  0  0  0  0  0  0  0  0  0  0
   -4.6281   -3.6376   -0.3133 H   0  0  0  0  0  0  0  0  0  0  0  0
   -3.7690   -5.2407   -1.7946 H   0  0  0  0  0  0  0  0  0  0  0  0
   -5.5049   -5.3776   -2.1529 H   0  0  0  0  0  0  0  0  0  0  0  0
   -4.7155   -6.5956   -1.0800 H   0  0  0  0  0  0  0  0  0  0  0  0
   -6.9155   -3.5342   -0.1155 H   0  0  0  0  0  0  0  0  0  0  0  0
   -9.1603   -4.6918   -0.6395 H   0  0  0  0  0  0  0  0  0  0  0  0
   -9.5387   -7.1148   -0.8360 H   0  0  0  0  0  0  0  0  0  0  0  0
   -9.5132   -7.2962    0.9686 H   0  0  0  0  0  0  0  0  0  0  0  0
  -10.8247   -6.3550    0.1720 H   0  0  0  0  0  0  0  0  0  0  0  0
   -9.0121   -5.1335    2.3854 H   0  0  0  0  0  0  0  0  0  0  0  0
   -9.3055   -2.5306   -0.2216 H   0  0  0  0  0  0  0  0  0  0  0  0
  -12.3641   -2.8258    0.1964 H   0  0  0  0  0  0  0  0  0  0  0  0
  -11.5240   -2.2361   -1.2901 H   0  0  0  0  0  0  0  0  0  0  0  0
  -11.3429   -3.9482   -0.7720 H   0  0  0  0  0  0  0  0  0  0  0  0
  -11.2976   -0.8590    1.3645 H   0  0  0  0  0  0  0  0  0  0  0  0
   -9.5401    1.9948    0.0127 H   0  0  0  0  0  0  0  0  0  0  0  0
   -9.8044    1.6733   -2.4627 H   0  0  0  0  0  0  0  0  0  0  0  0
   -8.3483    0.8461   -1.8062 H   0  0  0  0  0  0  0  0  0  0  0  0
   -9.8234   -0.1234   -2.2064 H   0  0  0  0  0  0  0  0  0  0  0  0
  -11.9631    0.2814   -0.7385 H   0  0  0  0  0  0  0  0  0  0  0  0
  -10.8693    3.7895   -0.6615 H   0  0  0  0  0  0  0  0  0  0  0  0
  -13.4321    4.6918    0.7672 H   0  0  0  0  0  0  0  0  0  0  0  0
  -13.1418    4.6798   -1.0183 H   0  0  0  0  0  0  0  0  0  0  0  0
  -12.1640    5.7496    0.0587 H   0  0  0  0  0  0  0  0  0  0  0  0
  -11.6319    3.5179    2.2952 H   0  0  0  0  0  0  0  0  0  0  0  0
   -8.8759    4.2383   -0.2305 H   0  0  0  0  0  0  0  0  0  0  0  0
   -9.8897    6.3974    0.2405 H   0  0  0  0  0  0  0  0  0  0  0  0
   -8.7680    6.6936    1.6207 H   0  0  0  0  0  0  0  0  0  0  0  0
   -8.1393    6.6020   -0.0777 H   0  0  0  0  0  0  0  0  0  0  0  0
   -6.9981    3.3317    0.8202 H   0  0  0  0  0  0  0  0  0  0  0  0
  1  2  1  0
  2  3  2  0
  2  4  1  0
  4  5  1  0
  5  6  1  0
  6  7  1  0
  7  8  1  0
  8  9  1  0
  9 10  2  0
 10 11  1  0
 11 12  2  0
 12 13  1  0
 13 14  2  0
 13 15  1  0
 15 16  1  0
 16 17  1  0
 17 18  1  0
 18 19  1  0
 19 20  1  0
 19 21  2  0
 18 22  1  0
 22 23  1  0
 23 24  2  0
 23 25  1  0
 25 26  1  0
 25 27  1  0
 27 28  1  0
 28 29  2  0
 28 30  1  0
 30 31  1  0
 30 32  1  0
 32 33  1  0
 33 34  2  0
 33 35  1  0
 35 36  1  0
 35 37  1  0
 37 38  1  0
 38 39  2  0
 38 40  1  0
 40 41  1  0
 40 42  1  0
 42 43  1  0
 43 44  2  0
 43 45  1  0
 45 46  1  0
 45 47  1  0
 47 48  1  0
 48 49  2  0
 48 50  1  0
 50 51  1  0
 50 52  1  0
 52 53  1  0
 53 54  2  0
 53 55  1  0
 55 56  1  0
 55 57  1  0
 57 58  1  0
 58 59  2  0
 58 60  1  0
 60 61  1  0
 61 62  1  0
 62 63  1  0
 60 64  1  0
 64 65  1  0
 65 66  2  0
 65 67  1  0
 67 68  1  0
 67 69  1  0
 69 70  1  0
 70 71  2  0
 70 72  1  0
 72 73  1  0
 72 74  1  0
 74 75  1  0
 75 76  2  0
 75 77  1  0
 77 78  1  0
 77 79  1  0
 79 80  1  0
 80 81  2  0
 80 82  1  0
 82 83  1  0
 82 84  1  0
 84 85  1  0
 85 86  2  0
 85 87  1  0
 87 88  1  0
 87 89  1  0
 89 90  1  0
 90 91  2  0
 90 92  1  0
 92 93  1  0
 92 94  1  0
 94 95  1  0
 95 96  2  0
 95 97  1  0
 97 98  1  0
 97 99  1  0
 99100  1  0
100101  2  0
100  5  1  0
 14  9  1  0
 63 11  1  0
  1102  1  0
  1103  1  0
  1104  1  0
  4105  1  0
  5106  1  6
  6107  1  0
  6108  1  0
  8109  1  0
  8110  1  0
 10111  1  0
 12112  1  0
 14113  1  0
 15114  1  0
 15115  1  0
 17116  1  0
 17117  1  0
 18118  1  6
 20119  1  0
 20120  1  0
 22121  1  0
 25122  1  6
 26123  1  0
 26124  1  0
 26125  1  0
 27126  1  0
 30127  1  1
 31128  1  0
 31129  1  0
 31130  1  0
 32131  1  0
 35132  1  6
 36133  1  0
 36134  1  0
 36135  1  0
 37136  1  0
 40137  1  6
 41138  1  0
 41139  1  0
 41140  1  0
 42141  1  0
 45142  1  6
 46143  1  0
 46144  1  0
 46145  1  0
 47146  1  0
 50147  1  1
 51148  1  0
 51149  1  0
 51150  1  0
 52151  1  0
 55152  1  1
 56153  1  0
 56154  1  0
 56155  1  0
 57156  1  0
 60157  1  1
 61158  1  0
 61159  1  0
 63160  1  0
 63161  1  0
 64162  1  0
 67163  1  6
 68164  1  0
 68165  1  0
 68166  1  0
 69167  1  0
 72168  1  6
 73169  1  0
 73170  1  0
 73171  1  0
 74172  1  0
 77173  1  6
 78174  1  0
 78175  1  0
 78176  1  0
 79177  1  0
 82178  1  6
 83179  1  0
 83180  1  0
 83181  1  0
 84182  1  0
 87183  1  1
 88184  1  0
 88185  1  0
 88186  1  0
 89187  1  0
 92188  1  6
 93189  1  0
 93190  1  0
 93191  1  0
 94192  1  0
 97193  1  6
 98194  1  0
 98195  1  0
 98196  1  0
 99197  1  0
M  END
