
     RDKit          3D

197199  0  0  0  0  0  0  0  0999 V2000
    5.9052    8.5753    2.0137 C   0  0  0  0  0  0  0  0  0  0  0  0
    5.6217    8.7729    0.5505 C   0  0  0  0  0  0  0  0  0  0  0  0
    5.5476    9.9482    0.0991 O   0  0  0  0  0  0  0  0  0  0  0  0
    5.4867    7.6638   -0.3503 N   0  0  0  0  0  0  0  0  0  0  0  0
    5.4774    6.2569    0.0662 C   0  0  1  0  0  0  0  0  0  0  0  0
    4.0641    5.8569    0.5138 C   0  0  0  0  0  0  0  0  0  0  0  0
    4.0427    4.1662    1.2133 S   0  0  0  0  0  0  0  0  0  0  0  0
    2.3657    4.2490    1.9159 C   0  0  0  0  0  0  0  0  0  0  0  0
    1.3321    3.8247    0.9141 C   0  0  0  0  0  0  0  0  0  0  0  0
    0.6991    4.7805    0.1045 C   0  0  0  0  0  0  0  0  0  0  0  0
   -0.3633    4.4181   -0.7377 C   0  0  0  0  0  0  0  0  0  0  0  0
   -0.7735    3.0758   -0.7902 C   0  0  0  0  0  0  0  0  0  0  0  0
   -0.1765    2.1139    0.0411 C   0  0  0  0  0  0  0  0  0  0  0  0
    0.8761    2.4938    0.8866 C   0  0  0  0  0  0  0  0  0  0  0  0
   -0.7486    0.7261    0.1277 C   0  0  0  0  0  0  0  0  0  0  0  0
    0.4042   -0.4880   -0.6160 S   0  0  0  0  0  0  0  0  0  0  0  0
    0.0726   -1.8038    0.6183 C   0  0  0  0  0  0  0  0  0  0  0  0
    0.5777   -3.1800    0.1658 C   0  0  1  0  0  0  0  0  0  0  0  0
    0.5415   -4.0993    1.2979 N   0  0  0  0  0  0  0  0  0  0  0  0
    1.7215   -4.6910    1.8480 C   0  0  0  0  0  0  0  0  0  0  0  0
    2.1297   -4.3047    2.9773 O   0  0  0  0  0  0  0  0  0  0  0  0
    2.4260   -5.8362    1.1641 C   0  0  1  0  0  0  0  0  0  0  0  0
    1.4477   -6.9724    0.8728 C   0  0  0  0  0  0  0  0  0  0  0  0
    3.0583   -5.3840   -0.0792 N   0  0  0  0  0  0  0  0  0  0  0  0
    4.4600   -5.0931   -0.2582 C   0  0  0  0  0  0  0  0  0  0  0  0
    4.8100   -4.4504   -1.2867 O   0  0  0  0  0  0  0  0  0  0  0  0
    5.5178   -5.5468    0.7291 C   0  0  1  0  0  0  0  0  0  0  0  0
    5.6932   -7.0806    0.6246 C   0  0  0  0  0  0  0  0  0  0  0  0
    6.7865   -4.8371    0.4721 N   0  0  0  0  0  0  0  0  0  0  0  0
    8.0719   -5.4612    0.4394 C   0  0  0  0  0  0  0  0  0  0  0  0
    8.5748   -5.8741    1.5231 O   0  0  0  0  0  0  0  0  0  0  0  0
    8.8253   -5.6779   -0.8603 C   0  0  1  0  0  0  0  0  0  0  0  0
    7.9803   -5.3024   -2.0770 C   0  0  0  0  0  0  0  0  0  0  0  0
   10.0983   -4.9440   -0.9307 N   0  0  0  0  0  0  0  0  0  0  0  0
   10.5666   -3.9908    0.0384 C   0  0  0  0  0  0  0  0  0  0  0  0
   11.0059   -4.4088    1.1493 O   0  0  0  0  0  0  0  0  0  0  0  0
   10.6969   -2.5316   -0.3256 C   0  0  1  0  0  0  0  0  0  0  0  0
   12.1466   -2.2037   -0.6841 C   0  0  0  0  0  0  0  0  0  0  0  0
    9.8307   -2.2070   -1.4709 N   0  0  0  0  0  0  0  0  0  0  0  0
    8.8589   -1.1551   -1.4576 C   0  0  0  0  0  0  0  0  0  0  0  0
    7.7603   -1.3378   -2.0547 O   0  0  0  0  0  0  0  0  0  0  0  0
    9.2004    0.2240   -0.9327 C   0  0  1  0  0  0  0  0  0  0  0  0
    9.4713    1.1376   -2.1404 C   0  0  0  0  0  0  0  0  0  0  0  0
    8.0760    0.7377   -0.1240 N   0  0  0  0  0  0  0  0  0  0  0  0
    7.9974    2.0036    0.5653 C   0  0  0  0  0  0  0  0  0  0  0  0
    6.8614    2.5491    0.6679 O   0  0  0  0  0  0  0  0  0  0  0  0
    9.1619    2.6850    1.2586 C   0  0  1  0  0  0  0  0  0  0  0  0
    9.9421    1.7215    2.1733 C   0  0  0  0  0  0  0  0  0  0  0  0
   10.0489    3.3566    0.3088 N   0  0  0  0  0  0  0  0  0  0  0  0
    9.6548    4.4331   -0.5706 C   0  0  0  0  0  0  0  0  0  0  0  0
   10.3504    4.6455   -1.6016 O   0  0  0  0  0  0  0  0  0  0  0  0
    8.4414    5.3063   -0.3109 C   0  0  1  0  0  0  0  0  0  0  0  0
    8.7892    6.7666   -0.6371 C   0  0  0  0  0  0  0  0  0  0  0  0
    7.3021    4.8525   -1.1256 N   0  0  0  0  0  0  0  0  0  0  0  0
    5.9674    5.3826   -1.0724 C   0  0  0  0  0  0  0  0  0  0  0  0
    5.1887    5.1448   -2.0363 O   0  0  0  0  0  0  0  0  0  0  0  0
   -0.2593   -3.7553   -0.9598 C   0  0  0  0  0  0  0  0  0  0  0  0
    0.3060   -4.2079   -1.9845 O   0  0  0  0  0  0  0  0  0  0  0  0
   -1.6775   -3.9050   -0.8001 N   0  0  0  0  0  0  0  0  0  0  0  0
   -2.3358   -5.1912   -1.0261 C   0  0  2  0  0  0  0  0  0  0  0  0
   -2.8295   -5.2902   -2.4786 C   0  0  0  0  0  0  0  0  0  0  0  0
   -3.4484   -5.3764   -0.0109 C   0  0  0  0  0  0  0  0  0  0  0  0
   -3.1495   -5.4474    1.2113 O   0  0  0  0  0  0  0  0  0  0  0  0
   -4.8238   -5.4380   -0.4064 N   0  0  0  0  0  0  0  0  0  0  0  0
   -5.7883   -6.3655    0.1974 C   0  0  2  0  0  0  0  0  0  0  0  0
   -5.1876   -7.7740    0.3505 C   0  0  0  0  0  0  0  0  0  0  0  0
   -7.0316   -6.4301   -0.6785 C   0  0  0  0  0  0  0  0  0  0  0  0
   -7.0729   -7.2759   -1.6185 O   0  0  0  0  0  0  0  0  0  0  0  0
   -8.1253   -5.5000   -0.5484 N   0  0  0  0  0  0  0  0  0  0  0  0
   -8.3104   -4.5387    0.5439 C   0  0  2  0  0  0  0  0  0  0  0  0
   -8.9395   -5.2200    1.7604 C   0  0  0  0  0  0  0  0  0  0  0  0
   -9.2051   -3.3967    0.1006 C   0  0  0  0  0  0  0  0  0  0  0  0
   -8.7899   -2.2123    0.2106 O   0  0  0  0  0  0  0  0  0  0  0  0
  -10.5349   -3.6489   -0.3669 N   0  0  0  0  0  0  0  0  0  0  0  0
  -11.6600   -2.7937    0.0377 C   0  0  2  0  0  0  0  0  0  0  0  0
  -12.7681   -3.6602    0.6421 C   0  0  0  0  0  0  0  0  0  0  0  0
  -12.1774   -2.0270   -1.1672 C   0  0  0  0  0  0  0  0  0  0  0  0
  -12.6255   -2.6867   -2.1396 O   0  0  0  0  0  0  0  0  0  0  0  0
  -12.1799   -0.5930   -1.2476 N   0  0  0  0  0  0  0  0  0  0  0  0
  -11.6589    0.3055   -0.2044 C   0  0  2  0  0  0  0  0  0  0  0  0
  -12.6881    0.4717    0.9086 C   0  0  0  0  0  0  0  0  0  0  0  0
  -11.2926    1.6561   -0.7643 C   0  0  0  0  0  0  0  0  0  0  0  0
  -12.0769    2.2557   -1.5417 O   0  0  0  0  0  0  0  0  0  0  0  0
  -10.0843    2.2756   -0.3555 N   0  0  0  0  0  0  0  0  0  0  0  0
  -10.0899    3.4244    0.5529 C   0  0  2  0  0  0  0  0  0  0  0  0
  -10.4574    4.7262   -0.1677 C   0  0  0  0  0  0  0  0  0  0  0  0
   -8.7843    3.5291    1.3151 C   0  0  0  0  0  0  0  0  0  0  0  0
   -8.8414    3.7598    2.5606 O   0  0  0  0  0  0  0  0  0  0  0  0
   -7.4938    3.3426    0.7178 N   0  0  0  0  0  0  0  0  0  0  0  0
   -7.1375    3.7352   -0.6497 C   0  0  2  0  0  0  0  0  0  0  0  0
   -6.1562    2.7185   -1.2488 C   0  0  0  0  0  0  0  0  0  0  0  0
   -6.5091    5.1109   -0.6555 C   0  0  0  0  0  0  0  0  0  0  0  0
   -6.9601    5.9935   -1.4331 O   0  0  0  0  0  0  0  0  0  0  0  0
   -5.3438    5.3691    0.1435 N   0  0  0  0  0  0  0  0  0  0  0  0
   -4.3150    6.3069   -0.3402 C   0  0  1  0  0  0  0  0  0  0  0  0
   -4.7662    7.7276   -0.1263 C   0  0  0  0  0  0  0  0  0  0  0  0
   -5.1591    8.1861    1.1705 N   0  0  0  0  0  0  0  0  0  0  0  0
   -4.8310    8.5140   -1.1104 O   0  0  0  0  0  0  0  0  0  0  0  0
   -2.9763    6.0361    0.3698 C   0  0  0  0  0  0  0  0  0  0  0  0
   -1.5962    6.8827   -0.4833 S   0  0  0  0  0  0  0  0  0  0  0  0
   -1.1021    5.4637   -1.5330 C   0  0  0  0  0  0  0  0  0  0  0  0
    5.9453    9.5595    2.5215 H   0  0  0  0  0  0  0  0  0  0  0  0
    6.8930    8.0768    2.1381 H   0  0  0  0  0  0  0  0  0  0  0  0
    5.1160    7.9553    2.4832 H   0  0  0  0  0  0  0  0  0  0  0  0
    5.3442    7.8809   -1.3629 H   0  0  0  0  0  0  0  0  0  0  0  0
    6.1505    6.1289    0.9342 H   0  0  0  0  0  0  0  0  0  0  0  0
    3.7207    6.5685    1.2799 H   0  0  0  0  0  0  0  0  0  0  0  0
    3.3725    5.9125   -0.3457 H   0  0  0  0  0  0  0  0  0  0  0  0
    2.1387    5.2655    2.3061 H   0  0  0  0  0  0  0  0  0  0  0  0
    2.3324    3.5612    2.7880 H   0  0  0  0  0  0  0  0  0  0  0  0
    1.0080    5.8134    0.1472 H   0  0  0  0  0  0  0  0  0  0  0  0
   -1.6254    2.7967   -1.4001 H   0  0  0  0  0  0  0  0  0  0  0  0
    1.3144    1.7633    1.5691 H   0  0  0  0  0  0  0  0  0  0  0  0
   -0.9548    0.4908    1.1941 H   0  0  0  0  0  0  0  0  0  0  0  0
   -1.7183    0.6724   -0.4124 H   0  0  0  0  0  0  0  0  0  0  0  0
    0.6004   -1.5184    1.5471 H   0  0  0  0  0  0  0  0  0  0  0  0
   -1.0081   -1.8612    0.8560 H   0  0  0  0  0  0  0  0  0  0  0  0
    1.6247   -3.0579   -0.1841 H   0  0  0  0  0  0  0  0  0  0  0  0
   -0.3389   -4.1668    1.8612 H   0  0  0  0  0  0  0  0  0  0  0  0
    3.1837   -6.2404    1.8704 H   0  0  0  0  0  0  0  0  0  0  0  0
    0.6689   -6.6556    0.1456 H   0  0  0  0  0  0  0  0  0  0  0  0
    1.9968   -7.8453    0.4445 H   0  0  0  0  0  0  0  0  0  0  0  0
    0.9428   -7.2971    1.8044 H   0  0  0  0  0  0  0  0  0  0  0  0
    2.4367   -5.1859   -0.8945 H   0  0  0  0  0  0  0  0  0  0  0  0
    5.2056   -5.2919    1.7565 H   0  0  0  0  0  0  0  0  0  0  0  0
    6.3398   -7.4471    1.4491 H   0  0  0  0  0  0  0  0  0  0  0  0
    4.7122   -7.5886    0.7272 H   0  0  0  0  0  0  0  0  0  0  0  0
    6.1407   -7.3660   -0.3516 H   0  0  0  0  0  0  0  0  0  0  0  0
    6.7651   -3.7869    0.4999 H   0  0  0  0  0  0  0  0  0  0  0  0
    9.0408   -6.7669   -0.9275 H   0  0  0  0  0  0  0  0  0  0  0  0
    8.5376   -5.5134   -3.0184 H   0  0  0  0  0  0  0  0  0  0  0  0
    7.7202   -4.2147   -2.0544 H   0  0  0  0  0  0  0  0  0  0  0  0
    7.0370   -5.8981   -2.1037 H   0  0  0  0  0  0  0  0  0  0  0  0
   10.7105   -5.1203   -1.7642 H   0  0  0  0  0  0  0  0  0  0  0  0
   10.3941   -1.9336    0.5636 H   0  0  0  0  0  0  0  0  0  0  0  0
   12.7829   -2.2381    0.2239 H   0  0  0  0  0  0  0  0  0  0  0  0
   12.2120   -1.1741   -1.0926 H   0  0  0  0  0  0  0  0  0  0  0  0
   12.5422   -2.9163   -1.4400 H   0  0  0  0  0  0  0  0  0  0  0  0
    9.8812   -2.7990   -2.3267 H   0  0  0  0  0  0  0  0  0  0  0  0
   10.1179    0.1760   -0.3126 H   0  0  0  0  0  0  0  0  0  0  0  0
   10.0171    2.0511   -1.8317 H   0  0  0  0  0  0  0  0  0  0  0  0
   10.1204    0.6203   -2.8814 H   0  0  0  0  0  0  0  0  0  0  0  0
    8.5182    1.4343   -2.6437 H   0  0  0  0  0  0  0  0  0  0  0  0
    7.1666    0.2319   -0.1904 H   0  0  0  0  0  0  0  0  0  0  0  0
    8.7344    3.4534    1.9500 H   0  0  0  0  0  0  0  0  0  0  0  0
   10.6966    1.1421    1.6060 H   0  0  0  0  0  0  0  0  0  0  0  0
    9.2475    1.0222    2.6851 H   0  0  0  0  0  0  0  0  0  0  0  0
   10.4739    2.3104    2.9483 H   0  0  0  0  0  0  0  0  0  0  0  0
   11.0391    3.0259    0.2108 H   0  0  0  0  0  0  0  0  0  0  0  0
    8.1857    5.2470    0.7673 H   0  0  0  0  0  0  0  0  0  0  0  0
    8.7823    6.9292   -1.7396 H   0  0  0  0  0  0  0  0  0  0  0  0
    9.7988    7.0272   -0.2496 H   0  0  0  0  0  0  0  0  0  0  0  0
    8.0592    7.4527   -0.1711 H   0  0  0  0  0  0  0  0  0  0  0  0
    7.4854    4.1502   -1.8787 H   0  0  0  0  0  0  0  0  0  0  0  0
   -2.2556   -3.0641   -0.5725 H   0  0  0  0  0  0  0  0  0  0  0  0
   -1.6082   -6.0129   -0.8646 H   0  0  0  0  0  0  0  0  0  0  0  0
   -3.5658   -4.4860   -2.7166 H   0  0  0  0  0  0  0  0  0  0  0  0
   -3.3069   -6.2871   -2.6531 H   0  0  0  0  0  0  0  0  0  0  0  0
   -1.9681   -5.1874   -3.1783 H   0  0  0  0  0  0  0  0  0  0  0  0
   -5.1840   -4.6856   -1.0464 H   0  0  0  0  0  0  0  0  0  0  0  0
   -6.0608   -6.0042    1.2121 H   0  0  0  0  0  0  0  0  0  0  0  0
   -4.4142   -7.7635    1.1487 H   0  0  0  0  0  0  0  0  0  0  0  0
   -4.7002   -8.0914   -0.5943 H   0  0  0  0  0  0  0  0  0  0  0  0
   -5.9670   -8.5060    0.6286 H   0  0  0  0  0  0  0  0  0  0  0  0
   -8.9040   -5.6316   -1.2329 H   0  0  0  0  0  0  0  0  0  0  0  0
   -7.3206   -4.1122    0.8379 H   0  0  0  0  0  0  0  0  0  0  0  0
   -9.1665   -4.4723    2.5565 H   0  0  0  0  0  0  0  0  0  0  0  0
   -9.8878   -5.7283    1.4665 H   0  0  0  0  0  0  0  0  0  0  0  0
   -8.2386   -5.9704    2.1894 H   0  0  0  0  0  0  0  0  0  0  0  0
  -10.7622   -4.5727   -0.7942 H   0  0  0  0  0  0  0  0  0  0  0  0
  -11.3266   -2.1193    0.8463 H   0  0  0  0  0  0  0  0  0  0  0  0
  -12.3612   -4.2270    1.5092 H   0  0  0  0  0  0  0  0  0  0  0  0
  -13.1498   -4.3925   -0.1080 H   0  0  0  0  0  0  0  0  0  0  0  0
  -13.6111   -3.0267    0.9888 H   0  0  0  0  0  0  0  0  0  0  0  0
  -12.7669   -0.1705   -2.0022 H   0  0  0  0  0  0  0  0  0  0  0  0
  -10.7182   -0.1304    0.2117 H   0  0  0  0  0  0  0  0  0  0  0  0
  -12.2693    1.1224    1.7120 H   0  0  0  0  0  0  0  0  0  0  0  0
  -13.6246    0.9391    0.5227 H   0  0  0  0  0  0  0  0  0  0  0  0
  -12.9411   -0.5109    1.3664 H   0  0  0  0  0  0  0  0  0  0  0  0
   -9.1821    1.8503   -0.6888 H   0  0  0  0  0  0  0  0  0  0  0  0
  -10.8851    3.2467    1.3143 H   0  0  0  0  0  0  0  0  0  0  0  0
  -10.2625    5.6006    0.4882 H   0  0  0  0  0  0  0  0  0  0  0  0
  -11.5403    4.7094   -0.4220 H   0  0  0  0  0  0  0  0  0  0  0  0
   -9.8906    4.8393   -1.1129 H   0  0  0  0  0  0  0  0  0  0  0  0
   -6.7188    3.1123    1.3728 H   0  0  0  0  0  0  0  0  0  0  0  0
   -8.0255    3.7428   -1.3035 H   0  0  0  0  0  0  0  0  0  0  0  0
   -5.2151    2.6824   -0.6643 H   0  0  0  0  0  0  0  0  0  0  0  0
   -5.9294    2.9989   -2.2989 H   0  0  0  0  0  0  0  0  0  0  0  0
   -6.6183    1.7066   -1.2479 H   0  0  0  0  0  0  0  0  0  0  0  0
   -5.0557    4.6346    0.8168 H   0  0  0  0  0  0  0  0  0  0  0  0
   -4.1653    6.1279   -1.4300 H   0  0  0  0  0  0  0  0  0  0  0  0
   -5.2666    7.5326    1.9813 H   0  0  0  0  0  0  0  0  0  0  0  0
   -5.4515    9.1797    1.3031 H   0  0  0  0  0  0  0  0  0  0  0  0
   -3.0301    6.3969    1.4251 H   0  0  0  0  0  0  0  0  0  0  0  0
   -2.7831    4.9407    0.4137 H   0  0  0  0  0  0  0  0  0  0  0  0
   -2.0017    5.0445   -2.0279 H   0  0  0  0  0  0  0  0  0  0  0  0
   -0.4461    5.8462   -2.3319 H   0  0  0  0  0  0  0  0  0  0  0  0
  1  2  1  0
  2  3  2  0
  2  4  1  0
  4  5  1  0
  5  6  1  0
  6  7  1  0
  7  8  1  0
  8  9  1  0
  9 10  2  0
 10 11  1  0
 11 12  2  0
 12 13  1  0
 13 14  2  0
 13 15  1  0
 15 16  1  0
 16 17  1  0
 17 18  1  0
 18 19  1  0
 19 20  1  0
 20 21  2  0
 20 22  1  0
 22 23  1  0
 22 24  1  0
 24 25  1  0
 25 26  2  0
 25 27  1  0
 27 28  1  0
 27 29  1  0
 29 30  1  0
 30 31  2  0
 30 32  1  0
 32 33  1  0
 32 34  1  0
 34 35  1  0
 35 36  2  0
 35 37  1  0
 37 38  1  0
 37 39  1  0
 39 40  1  0
 40 41  2  0
 40 42  1  0
 42 43  1  0
 42 44  1  0
 44 45  1  0
 45 46  2  0
 45 47  1  0
 47 48  1  0
 47 49  1  0
 49 50  1  0
 50 51  2  0
 50 52  1  0
 52 53  1  0
 52 54  1  0
 54 55  1  0
 55 56  2  0
 18 57  1  0
 57 58  2  0
 57 59  1  0
 59 60  1  0
 60 61  1  0
 60 62  1  0
 62 63  2  0
 62 64  1  0
 64 65  1  0
 65 66  1  0
 65 67  1  0
 67 68  2  0
 67 69  1  0
 69 70  1  0
 70 71  1  0
 70 72  1  0
 72 73  2  0
 72 74  1  0
 74 75  1  0
 75 76  1  0
 75 77  1  0
 77 78  2  0
 77 79  1  0
 79 80  1  0
 80 81  1  0
 80 82  1  0
 82 83  2  0
 82 84  1  0
 84 85  1  0
 85 86  1  0
 85 87  1  0
 87 88  2  0
 87 89  1  0
 89 90  1  0
 90 91  1  0
 90 92  1  0
 92 93  2  0
 92 94  1  0
 94 95  1  0
 95 96  1  0
 96 97  1  0
 96 98  2  0
 95 99  1  0
 99100  1  0
100101  1  0
 55  5  1  0
 14  9  1  0
101 11  1  0
  1102  1  0
  1103  1  0
  1104  1  0
  4105  1  0
  5106  1  1
  6107  1  0
  6108  1  0
  8109  1  0
  8110  1  0
 10111  1  0
 12112  1  0
 14113  1  0
 15114  1  0
 15115  1  0
 17116  1  0
 17117  1  0
 18118  1  6
 19119  1  0
 22120  1  1
 23121  1  0
 23122  1  0
 23123  1  0
 24124  1  0
 27125  1  1
 28126  1  0
 28127  1  0
 28128  1  0
 29129  1  0
 32130  1  6
 33131  1  0
 33132  1  0
 33133  1  0
 34134  1  0
 37135  1  1
 38136  1  0
 38137  1  0
 38138  1  0
 39139  1  0
 42140  1  1
 43141  1  0
 43142  1  0
 43143  1  0
 44144  1  0
 47145  1  1
 48146  1  0
 48147  1  0
 48148  1  0
 49149  1  0
 52150  1  1
 53151  1  0
 53152  1  0
 53153  1  0
 54154  1  0
 59155  1  0
 60156  1  1
 61157  1  0
 61158  1  0
 61159  1  0
 64160  1  0
 65161  1  1
 66162  1  0
 66163  1  0
 66164  1  0
 69165  1  0
 70166  1  1
 71167  1  0
 71168  1  0
 71169  1  0
 74170  1  0
 75171  1  1
 76172  1  0
 76173  1  0
 76174  1  0
 79175  1  0
 80176  1  1
 81177  1  0
 81178  1  0
 81179  1  0
 84180  1  0
 85181  1  1
 86182  1  0
 86183  1  0
 86184  1  0
 89185  1  0
 90186  1  6
 91187  1  0
 91188  1  0
 91189  1  0
 94190  1  0
 95191  1  6
 97192  1  0
 97193  1  0
 99194  1  0
 99195  1  0
101196  1  0
101197  1  0
M  END
