
     RDKit          3D

217219  0  0  0  0  0  0  0  0999 V2000
   -5.7784   -6.3248    3.2134 C   0  0  0  0  0  0  0  0  0  0  0  0
   -5.1478   -6.6010    1.8843 C   0  0  0  0  0  0  0  0  0  0  0  0
   -4.2250   -7.4579    1.8072 O   0  0  0  0  0  0  0  0  0  0  0  0
   -5.5608   -5.9239    0.6843 N   0  0  0  0  0  0  0  0  0  0  0  0
   -6.5382   -4.8277    0.6492 C   0  0  1  0  0  0  0  0  0  0  0  0
   -5.8370   -3.4614    0.7743 C   0  0  0  0  0  0  0  0  0  0  0  0
   -4.4774   -3.2500   -0.4346 S   0  0  0  0  0  0  0  0  0  0  0  0
   -3.1719   -2.8343    0.7817 C   0  0  0  0  0  0  0  0  0  0  0  0
   -1.8809   -2.5599    0.0623 C   0  0  0  0  0  0  0  0  0  0  0  0
   -1.2571   -3.5708   -0.6904 C   0  0  0  0  0  0  0  0  0  0  0  0
   -0.0938   -3.2971   -1.4229 C   0  0  0  0  0  0  0  0  0  0  0  0
    0.4603   -2.0072   -1.3880 C   0  0  0  0  0  0  0  0  0  0  0  0
   -0.1348   -0.9978   -0.6152 C   0  0  0  0  0  0  0  0  0  0  0  0
   -1.3107   -1.2781    0.0989 C   0  0  0  0  0  0  0  0  0  0  0  0
    0.3953    0.4060   -0.6533 C   0  0  0  0  0  0  0  0  0  0  0  0
   -0.6191    1.3809   -1.8143 S   0  0  0  0  0  0  0  0  0  0  0  0
    0.1660    3.0052   -1.4828 C   0  0  0  0  0  0  0  0  0  0  0  0
   -0.3903    3.7729   -0.2517 C   0  0  1  0  0  0  0  0  0  0  0  0
   -1.7673    3.3858    0.0837 N   0  0  0  0  0  0  0  0  0  0  0  0
   -2.7857    4.3777    0.2449 C   0  0  0  0  0  0  0  0  0  0  0  0
   -2.7386    5.1635    1.2316 O   0  0  0  0  0  0  0  0  0  0  0  0
   -3.8773    4.5231   -0.7764 C   0  0  1  0  0  0  0  0  0  0  0  0
   -3.2808    4.8253   -2.1515 C   0  0  0  0  0  0  0  0  0  0  0  0
   -4.6697    3.2931   -0.8367 N   0  0  0  0  0  0  0  0  0  0  0  0
   -6.1063    3.2539   -0.9125 C   0  0  0  0  0  0  0  0  0  0  0  0
   -6.6420    2.4354   -1.7090 O   0  0  0  0  0  0  0  0  0  0  0  0
   -7.0143    4.1184   -0.0627 C   0  0  1  0  0  0  0  0  0  0  0  0
   -6.4716    4.3613    1.3511 C   0  0  0  0  0  0  0  0  0  0  0  0
   -7.3037    5.3895   -0.7427 N   0  0  0  0  0  0  0  0  0  0  0  0
   -8.6031    6.0056   -0.8154 C   0  0  0  0  0  0  0  0  0  0  0  0
   -8.7909    6.9186   -1.6661 O   0  0  0  0  0  0  0  0  0  0  0  0
   -9.7565    5.5889    0.0749 C   0  0  1  0  0  0  0  0  0  0  0  0
  -10.4903    6.8091    0.6377 C   0  0  0  0  0  0  0  0  0  0  0  0
  -10.6915    4.7587   -0.6843 N   0  0  0  0  0  0  0  0  0  0  0  0
  -10.6343    3.3336   -0.6211 C   0  0  0  0  0  0  0  0  0  0  0  0
   -9.9352    2.7088   -1.4627 O   0  0  0  0  0  0  0  0  0  0  0  0
  -11.5011    2.5517    0.3355 C   0  0  1  0  0  0  0  0  0  0  0  0
  -11.7771    3.3155    1.6334 C   0  0  0  0  0  0  0  0  0  0  0  0
  -12.7674    2.2214   -0.3205 N   0  0  0  0  0  0  0  0  0  0  0  0
  -13.4259    0.9768   -0.0765 C   0  0  0  0  0  0  0  0  0  0  0  0
  -14.3457    0.9236    0.7811 O   0  0  0  0  0  0  0  0  0  0  0  0
  -13.1395   -0.2376   -0.9264 C   0  0  1  0  0  0  0  0  0  0  0  0
  -13.9079   -0.1337   -2.2432 C   0  0  0  0  0  0  0  0  0  0  0  0
  -11.7029   -0.3454   -1.2051 N   0  0  0  0  0  0  0  0  0  0  0  0
  -10.8831   -1.5009   -0.9525 C   0  0  0  0  0  0  0  0  0  0  0  0
   -9.7421   -1.5515   -1.4906 O   0  0  0  0  0  0  0  0  0  0  0  0
  -11.3432   -2.6713   -0.1033 C   0  0  1  0  0  0  0  0  0  0  0  0
  -12.1663   -3.6359   -0.9796 C   0  0  0  0  0  0  0  0  0  0  0  0
  -10.1931   -3.3735    0.4811 N   0  0  0  0  0  0  0  0  0  0  0  0
  -10.3035   -4.6632    1.0909 C   0  0  0  0  0  0  0  0  0  0  0  0
  -11.0795   -4.8168    2.0754 O   0  0  0  0  0  0  0  0  0  0  0  0
   -9.5058   -5.8301    0.5606 C   0  0  1  0  0  0  0  0  0  0  0  0
  -10.4438   -6.9780    0.1774 C   0  0  0  0  0  0  0  0  0  0  0  0
   -8.7277   -5.4248   -0.6207 N   0  0  0  0  0  0  0  0  0  0  0  0
   -7.3738   -4.9367   -0.6134 C   0  0  0  0  0  0  0  0  0  0  0  0
   -6.8556   -4.6253   -1.7206 O   0  0  0  0  0  0  0  0  0  0  0  0
    0.5179    3.6570    0.9494 C   0  0  0  0  0  0  0  0  0  0  0  0
    0.1848    2.9298    1.9184 O   0  0  0  0  0  0  0  0  0  0  0  0
    1.7795    4.3495    1.0023 N   0  0  0  0  0  0  0  0  0  0  0  0
    1.9517    5.8136    0.9424 C   0  0  2  0  0  0  0  0  0  0  0  0
    0.7547    6.5656    1.5413 C   0  0  0  0  0  0  0  0  0  0  0  0
    2.2626    6.2707   -0.4715 C   0  0  0  0  0  0  0  0  0  0  0  0
    1.4272    6.0454   -1.3819 O   0  0  0  0  0  0  0  0  0  0  0  0
    3.4972    6.9167   -0.8356 N   0  0  0  0  0  0  0  0  0  0  0  0
    4.4704    7.5241    0.0864 C   0  0  2  0  0  0  0  0  0  0  0  0
    3.8897    8.8022    0.7012 C   0  0  0  0  0  0  0  0  0  0  0  0
    5.7457    7.8482   -0.6512 C   0  0  0  0  0  0  0  0  0  0  0  0
    5.7190    8.6660   -1.6121 O   0  0  0  0  0  0  0  0  0  0  0  0
    7.0055    7.3261   -0.2148 N   0  0  0  0  0  0  0  0  0  0  0  0
    7.4256    5.9176   -0.3016 C   0  0  2  0  0  0  0  0  0  0  0  0
    6.2922    4.9473   -0.6753 C   0  0  0  0  0  0  0  0  0  0  0  0
    8.0502    5.5220    1.0143 C   0  0  0  0  0  0  0  0  0  0  0  0
    7.3009    5.4589    2.0251 O   0  0  0  0  0  0  0  0  0  0  0  0
    9.4556    5.2598    1.1890 N   0  0  0  0  0  0  0  0  0  0  0  0
   10.5515    5.4991    0.2366 C   0  0  2  0  0  0  0  0  0  0  0  0
   10.6288    6.9754   -0.1876 C   0  0  0  0  0  0  0  0  0  0  0  0
   10.5031    4.5229   -0.9205 C   0  0  0  0  0  0  0  0  0  0  0  0
   10.3031    4.9494   -2.0897 O   0  0  0  0  0  0  0  0  0  0  0  0
   10.6860    3.1074   -0.7357 N   0  0  0  0  0  0  0  0  0  0  0  0
   11.3020    2.4903    0.4508 C   0  0  2  0  0  0  0  0  0  0  0  0
   12.8176    2.7281    0.4672 C   0  0  0  0  0  0  0  0  0  0  0  0
   11.0317    1.0006    0.4673 C   0  0  0  0  0  0  0  0  0  0  0  0
   10.3685    0.5001    1.4140 O   0  0  0  0  0  0  0  0  0  0  0  0
   11.5633    0.1577   -0.5643 N   0  0  0  0  0  0  0  0  0  0  0  0
   11.9178   -1.2438   -0.3115 C   0  0  2  0  0  0  0  0  0  0  0  0
   13.2257   -1.3020    0.4882 C   0  0  0  0  0  0  0  0  0  0  0  0
   12.0766   -2.0012   -1.6147 C   0  0  0  0  0  0  0  0  0  0  0  0
   12.6590   -1.4502   -2.5834 O   0  0  0  0  0  0  0  0  0  0  0  0
   11.5819   -3.3419   -1.7836 N   0  0  0  0  0  0  0  0  0  0  0  0
   11.4298   -4.3074   -0.6852 C   0  0  2  0  0  0  0  0  0  0  0  0
   12.3206   -5.5218   -0.9562 C   0  0  0  0  0  0  0  0  0  0  0  0
    9.9758   -4.6702   -0.5078 C   0  0  0  0  0  0  0  0  0  0  0  0
    9.0908   -3.7824   -0.6699 O   0  0  0  0  0  0  0  0  0  0  0  0
    9.5864   -5.9674   -0.0390 N   0  0  0  0  0  0  0  0  0  0  0  0
    8.7680   -6.1275    1.1649 C   0  0  2  0  0  0  0  0  0  0  0  0
    9.5491   -5.6505    2.3963 C   0  0  0  0  0  0  0  0  0  0  0  0
    8.3703   -7.5726    1.3343 C   0  0  0  0  0  0  0  0  0  0  0  0
    9.2661   -8.4140    1.6245 O   0  0  0  0  0  0  0  0  0  0  0  0
    7.0212   -8.0523    1.1558 N   0  0  0  0  0  0  0  0  0  0  0  0
    5.8947   -7.3442    0.5291 C   0  0  2  0  0  0  0  0  0  0  0  0
    6.2803   -6.7434   -0.8367 C   0  0  0  0  0  0  0  0  0  0  0  0
    5.2927   -6.3157    1.4712 C   0  0  0  0  0  0  0  0  0  0  0  0
    5.8964   -6.0155    2.5355 O   0  0  0  0  0  0  0  0  0  0  0  0
    4.0384   -5.6661    1.1889 N   0  0  0  0  0  0  0  0  0  0  0  0
    2.9755   -6.2639    0.3726 C   0  0  1  0  0  0  0  0  0  0  0  0
    2.1507   -7.1959    1.2281 C   0  0  0  0  0  0  0  0  0  0  0  0
    2.0614   -8.5848    0.9114 N   0  0  0  0  0  0  0  0  0  0  0  0
    1.5479   -6.7450    2.2415 O   0  0  0  0  0  0  0  0  0  0  0  0
    2.1139   -5.1637   -0.2579 C   0  0  0  0  0  0  0  0  0  0  0  0
    0.8801   -5.9004   -1.3976 S   0  0  0  0  0  0  0  0  0  0  0  0
    0.5048   -4.3599   -2.3093 C   0  0  0  0  0  0  0  0  0  0  0  0
   -6.8600   -6.5694    3.1755 H   0  0  0  0  0  0  0  0  0  0  0  0
   -5.6459   -5.2543    3.4734 H   0  0  0  0  0  0  0  0  0  0  0  0
   -5.2989   -6.9457    4.0002 H   0  0  0  0  0  0  0  0  0  0  0  0
   -5.0509   -6.1572   -0.1984 H   0  0  0  0  0  0  0  0  0  0  0  0
   -7.2050   -4.8895    1.5266 H   0  0  0  0  0  0  0  0  0  0  0  0
   -5.4654   -3.3562    1.8140 H   0  0  0  0  0  0  0  0  0  0  0  0
   -6.5761   -2.6466    0.6142 H   0  0  0  0  0  0  0  0  0  0  0  0
   -3.0295   -3.6792    1.4935 H   0  0  0  0  0  0  0  0  0  0  0  0
   -3.4965   -1.9424    1.3653 H   0  0  0  0  0  0  0  0  0  0  0  0
   -1.6965   -4.5619   -0.7272 H   0  0  0  0  0  0  0  0  0  0  0  0
    1.3472   -1.7844   -1.9708 H   0  0  0  0  0  0  0  0  0  0  0  0
   -1.7932   -0.4833    0.6617 H   0  0  0  0  0  0  0  0  0  0  0  0
    1.4547    0.4207   -0.9872 H   0  0  0  0  0  0  0  0  0  0  0  0
    0.3293    0.8413    0.3662 H   0  0  0  0  0  0  0  0  0  0  0  0
   -0.0252    3.6205   -2.3878 H   0  0  0  0  0  0  0  0  0  0  0  0
    1.2687    2.8858   -1.4144 H   0  0  0  0  0  0  0  0  0  0  0  0
   -0.4259    4.8318   -0.5409 H   0  0  0  0  0  0  0  0  0  0  0  0
   -2.0094    2.3988    0.3104 H   0  0  0  0  0  0  0  0  0  0  0  0
   -4.5054    5.3914   -0.5065 H   0  0  0  0  0  0  0  0  0  0  0  0
   -4.0972    5.0061   -2.8825 H   0  0  0  0  0  0  0  0  0  0  0  0
   -2.6605    3.9781   -2.5118 H   0  0  0  0  0  0  0  0  0  0  0  0
   -2.6524    5.7402   -2.1057 H   0  0  0  0  0  0  0  0  0  0  0  0
   -4.1649    2.4180   -1.1081 H   0  0  0  0  0  0  0  0  0  0  0  0
   -7.9495    3.5395    0.0603 H   0  0  0  0  0  0  0  0  0  0  0  0
   -5.6379    5.0915    1.3602 H   0  0  0  0  0  0  0  0  0  0  0  0
   -6.1269    3.4070    1.7997 H   0  0  0  0  0  0  0  0  0  0  0  0
   -7.2753    4.7747    1.9947 H   0  0  0  0  0  0  0  0  0  0  0  0
   -6.5457    5.8386   -1.3049 H   0  0  0  0  0  0  0  0  0  0  0  0
   -9.3751    5.0275    0.9528 H   0  0  0  0  0  0  0  0  0  0  0  0
  -10.9525    7.4044   -0.1752 H   0  0  0  0  0  0  0  0  0  0  0  0
  -11.2919    6.4864    1.3322 H   0  0  0  0  0  0  0  0  0  0  0  0
   -9.7865    7.4615    1.2014 H   0  0  0  0  0  0  0  0  0  0  0  0
  -11.1839    5.1874   -1.5035 H   0  0  0  0  0  0  0  0  0  0  0  0
  -10.9647    1.6169    0.6049 H   0  0  0  0  0  0  0  0  0  0  0  0
  -10.8252    3.5707    2.1448 H   0  0  0  0  0  0  0  0  0  0  0  0
  -12.3777    2.6849    2.3215 H   0  0  0  0  0  0  0  0  0  0  0  0
  -12.3491    4.2457    1.4288 H   0  0  0  0  0  0  0  0  0  0  0  0
  -13.3461    3.0074   -0.6965 H   0  0  0  0  0  0  0  0  0  0  0  0
  -13.5111   -1.1302   -0.3846 H   0  0  0  0  0  0  0  0  0  0  0  0
  -13.5685    0.7521   -2.8257 H   0  0  0  0  0  0  0  0  0  0  0  0
  -13.7360   -1.0460   -2.8510 H   0  0  0  0  0  0  0  0  0  0  0  0
  -14.9977   -0.0373   -2.0483 H   0  0  0  0  0  0  0  0  0  0  0  0
  -11.2623    0.4248   -1.7602 H   0  0  0  0  0  0  0  0  0  0  0  0
  -11.9751   -2.3042    0.7322 H   0  0  0  0  0  0  0  0  0  0  0  0
  -12.6507   -4.4052   -0.3455 H   0  0  0  0  0  0  0  0  0  0  0  0
  -12.9661   -3.1003   -1.5246 H   0  0  0  0  0  0  0  0  0  0  0  0
  -11.5111   -4.1379   -1.7209 H   0  0  0  0  0  0  0  0  0  0  0  0
   -9.2529   -2.9104    0.5118 H   0  0  0  0  0  0  0  0  0  0  0  0
   -8.8490   -6.2241    1.3592 H   0  0  0  0  0  0  0  0  0  0  0  0
   -9.8526   -7.8259   -0.2230 H   0  0  0  0  0  0  0  0  0  0  0  0
  -11.1705   -6.6470   -0.5964 H   0  0  0  0  0  0  0  0  0  0  0  0
  -11.0020   -7.3372    1.0682 H   0  0  0  0  0  0  0  0  0  0  0  0
   -9.2461   -5.3539   -1.5288 H   0  0  0  0  0  0  0  0  0  0  0  0
    2.5699    3.8144    1.4328 H   0  0  0  0  0  0  0  0  0  0  0  0
    2.8053    6.0603    1.5997 H   0  0  0  0  0  0  0  0  0  0  0  0
   -0.1672    6.4336    0.9400 H   0  0  0  0  0  0  0  0  0  0  0  0
    0.9575    7.6553    1.5921 H   0  0  0  0  0  0  0  0  0  0  0  0
    0.5540    6.1993    2.5719 H   0  0  0  0  0  0  0  0  0  0  0  0
    3.6904    6.9773   -1.8600 H   0  0  0  0  0  0  0  0  0  0  0  0
    4.7213    6.8233    0.9062 H   0  0  0  0  0  0  0  0  0  0  0  0
    3.5241    9.4924   -0.0922 H   0  0  0  0  0  0  0  0  0  0  0  0
    4.6641    9.3275    1.3019 H   0  0  0  0  0  0  0  0  0  0  0  0
    3.0497    8.5573    1.3806 H   0  0  0  0  0  0  0  0  0  0  0  0
    7.7573    8.0302   -0.0616 H   0  0  0  0  0  0  0  0  0  0  0  0
    8.1546    5.8416   -1.1212 H   0  0  0  0  0  0  0  0  0  0  0  0
    5.5260    4.8731    0.1260 H   0  0  0  0  0  0  0  0  0  0  0  0
    6.7155    3.9347   -0.8352 H   0  0  0  0  0  0  0  0  0  0  0  0
    5.8039    5.2645   -1.6236 H   0  0  0  0  0  0  0  0  0  0  0  0
    9.7399    4.9414    2.1428 H   0  0  0  0  0  0  0  0  0  0  0  0
   11.5009    5.3242    0.7853 H   0  0  0  0  0  0  0  0  0  0  0  0
   10.5564    7.6348    0.7048 H   0  0  0  0  0  0  0  0  0  0  0  0
   11.6041    7.1683   -0.6862 H   0  0  0  0  0  0  0  0  0  0  0  0
    9.8297    7.2586   -0.9028 H   0  0  0  0  0  0  0  0  0  0  0  0
   10.3476    2.4886   -1.5019 H   0  0  0  0  0  0  0  0  0  0  0  0
   10.8568    2.9309    1.3691 H   0  0  0  0  0  0  0  0  0  0  0  0
   13.0543    3.8064    0.5361 H   0  0  0  0  0  0  0  0  0  0  0  0
   13.2937    2.3297   -0.4511 H   0  0  0  0  0  0  0  0  0  0  0  0
   13.2677    2.2260    1.3545 H   0  0  0  0  0  0  0  0  0  0  0  0
   11.9533    0.6251   -1.4133 H   0  0  0  0  0  0  0  0  0  0  0  0
   11.1058   -1.7098    0.2878 H   0  0  0  0  0  0  0  0  0  0  0  0
   14.0392   -0.7751   -0.0600 H   0  0  0  0  0  0  0  0  0  0  0  0
   13.5356   -2.3520    0.6643 H   0  0  0  0  0  0  0  0  0  0  0  0
   13.0868   -0.8058    1.4749 H   0  0  0  0  0  0  0  0  0  0  0  0
   11.4645   -3.6982   -2.7630 H   0  0  0  0  0  0  0  0  0  0  0  0
   11.7670   -3.8714    0.2800 H   0  0  0  0  0  0  0  0  0  0  0  0
   13.3728   -5.1943   -1.0949 H   0  0  0  0  0  0  0  0  0  0  0  0
   11.9980   -6.0557   -1.8776 H   0  0  0  0  0  0  0  0  0  0  0  0
   12.2961   -6.2248   -0.0973 H   0  0  0  0  0  0  0  0  0  0  0  0
    9.9880   -6.8135   -0.5072 H   0  0  0  0  0  0  0  0  0  0  0  0
    7.8783   -5.4785    1.0774 H   0  0  0  0  0  0  0  0  0  0  0  0
   10.5276   -6.1748    2.4687 H   0  0  0  0  0  0  0  0  0  0  0  0
    8.9662   -5.8484    3.3210 H   0  0  0  0  0  0  0  0  0  0  0  0
    9.7414   -4.5583    2.3339 H   0  0  0  0  0  0  0  0  0  0  0  0
    6.8575   -9.0570    1.3998 H   0  0  0  0  0  0  0  0  0  0  0  0
    5.1111   -8.1143    0.3451 H   0  0  0  0  0  0  0  0  0  0  0  0
    6.6167   -5.6879   -0.7500 H   0  0  0  0  0  0  0  0  0  0  0  0
    5.4098   -6.7570   -1.5275 H   0  0  0  0  0  0  0  0  0  0  0  0
    7.0930   -7.3397   -1.3119 H   0  0  0  0  0  0  0  0  0  0  0  0
    3.7713   -4.8731    1.8125 H   0  0  0  0  0  0  0  0  0  0  0  0
    3.4143   -6.8377   -0.4663 H   0  0  0  0  0  0  0  0  0  0  0  0
    1.5314   -9.2367    1.5345 H   0  0  0  0  0  0  0  0  0  0  0  0
    2.5114   -8.9619    0.0490 H   0  0  0  0  0  0  0  0  0  0  0  0
    1.5843   -4.5848    0.5315 H   0  0  0  0  0  0  0  0  0  0  0  0
    2.7800   -4.4664   -0.8175 H   0  0  0  0  0  0  0  0  0  0  0  0
   -0.2262   -4.6007   -3.1094 H   0  0  0  0  0  0  0  0  0  0  0  0
    1.4303   -4.0008   -2.8081 H   0  0  0  0  0  0  0  0  0  0  0  0
  1  2  1  0
  2  3  2  0
  2  4  1  0
  4  5  1  0
  5  6  1  0
  6  7  1  0
  7  8  1  0
  8  9  1  0
  9 10  1  0
 10 11  2  0
 11 12  1  0
 12 13  2  0
 13 14  1  0
 13 15  1  0
 15 16  1  0
 16 17  1  0
 17 18  1  0
 18 19  1  0
 19 20  1  0
 20 21  2  0
 20 22  1  0
 22 23  1  0
 22 24  1  0
 24 25  1  0
 25 26  2  0
 25 27  1  0
 27 28  1  0
 27 29  1  0
 29 30  1  0
 30 31  2  0
 30 32  1  0
 32 33  1  0
 32 34  1  0
 34 35  1  0
 35 36  2  0
 35 37  1  0
 37 38  1  0
 37 39  1  0
 39 40  1  0
 40 41  2  0
 40 42  1  0
 42 43  1  0
 42 44  1  0
 44 45  1  0
 45 46  2  0
 45 47  1  0
 47 48  1  0
 47 49  1  0
 49 50  1  0
 50 51  2  0
 50 52  1  0
 52 53  1  0
 52 54  1  0
 54 55  1  0
 55 56  2  0
 18 57  1  0
 57 58  2  0
 57 59  1  0
 59 60  1  0
 60 61  1  0
 60 62  1  0
 62 63  2  0
 62 64  1  0
 64 65  1  0
 65 66  1  0
 65 67  1  0
 67 68  2  0
 67 69  1  0
 69 70  1  0
 70 71  1  0
 70 72  1  0
 72 73  2  0
 72 74  1  0
 74 75  1  0
 75 76  1  0
 75 77  1  0
 77 78  2  0
 77 79  1  0
 79 80  1  0
 80 81  1  0
 80 82  1  0
 82 83  2  0
 82 84  1  0
 84 85  1  0
 85 86  1  0
 85 87  1  0
 87 88  2  0
 87 89  1  0
 89 90  1  0
 90 91  1  0
 90 92  1  0
 92 93  2  0
 92 94  1  0
 94 95  1  0
 95 96  1  0
 95 97  1  0
 97 98  2  0
 97 99  1  0
 99100  1  0
100101  1  0
100102  1  0
102103  2  0
102104  1  0
104105  1  0
105106  1  0
106107  1  0
106108  2  0
105109  1  0
109110  1  0
110111  1  0
 55  5  1  0
 14  9  2  0
111 11  1  0
  1112  1  0
  1113  1  0
  1114  1  0
  4115  1  0
  5116  1  1
  6117  1  0
  6118  1  0
  8119  1  0
  8120  1  0
 10121  1  0
 12122  1  0
 14123  1  0
 15124  1  0
 15125  1  0
 17126  1  0
 17127  1  0
 18128  1  6
 19129  1  0
 22130  1  1
 23131  1  0
 23132  1  0
 23133  1  0
 24134  1  0
 27135  1  1
 28136  1  0
 28137  1  0
 28138  1  0
 29139  1  0
 32140  1  1
 33141  1  0
 33142  1  0
 33143  1  0
 34144  1  0
 37145  1  1
 38146  1  0
 38147  1  0
 38148  1  0
 39149  1  0
 42150  1  1
 43151  1  0
 43152  1  0
 43153  1  0
 44154  1  0
 47155  1  1
 48156  1  0
 48157  1  0
 48158  1  0
 49159  1  0
 52160  1  1
 53161  1  0
 53162  1  0
 53163  1  0
 54164  1  0
 59165  1  0
 60166  1  1
 61167  1  0
 61168  1  0
 61169  1  0
 64170  1  0
 65171  1  1
 66172  1  0
 66173  1  0
 66174  1  0
 69175  1  0
 70176  1  6
 71177  1  0
 71178  1  0
 71179  1  0
 74180  1  0
 75181  1  1
 76182  1  0
 76183  1  0
 76184  1  0
 79185  1  0
 80186  1  1
 81187  1  0
 81188  1  0
 81189  1  0
 84190  1  0
 85191  1  1
 86192  1  0
 86193  1  0
 86194  1  0
 89195  1  0
 90196  1  1
 91197  1  0
 91198  1  0
 91199  1  0
 94200  1  0
 95201  1  6
 96202  1  0
 96203  1  0
 96204  1  0
 99205  1  0
100206  1  6
101207  1  0
101208  1  0
101209  1  0
104210  1  0
105211  1  6
107212  1  0
107213  1  0
109214  1  0
109215  1  0
111216  1  0
111217  1  0
M  END
