
     RDKit          3D

197199  0  0  0  0  0  0  0  0999 V2000
   -5.8981    6.4505   -2.8208 C   0  0  0  0  0  0  0  0  0  0  0  0
   -4.7951    7.0707   -2.0207 C   0  0  0  0  0  0  0  0  0  0  0  0
   -4.0050    7.8779   -2.5857 O   0  0  0  0  0  0  0  0  0  0  0  0
   -4.6075    6.7802   -0.6269 N   0  0  0  0  0  0  0  0  0  0  0  0
   -4.7013    5.4211   -0.0792 C   0  0  1  0  0  0  0  0  0  0  0  0
   -3.3721    4.6713   -0.3233 C   0  0  0  0  0  0  0  0  0  0  0  0
   -3.4032    3.7840   -1.9295 S   0  0  0  0  0  0  0  0  0  0  0  0
   -1.5904    3.6772   -2.2045 C   0  0  0  0  0  0  0  0  0  0  0  0
   -0.8398    3.1428   -1.0128 C   0  0  0  0  0  0  0  0  0  0  0  0
   -1.1498    1.8774   -0.4846 C   0  0  0  0  0  0  0  0  0  0  0  0
   -0.5206    1.4191    0.6836 C   0  0  0  0  0  0  0  0  0  0  0  0
    0.4529    2.2185    1.3022 C   0  0  0  0  0  0  0  0  0  0  0  0
    0.8144    3.4589    0.7524 C   0  0  0  0  0  0  0  0  0  0  0  0
    0.1550    3.9187   -0.3985 C   0  0  0  0  0  0  0  0  0  0  0  0
    1.8082    4.3491    1.4554 C   0  0  0  0  0  0  0  0  0  0  0  0
    3.3943    3.4879    1.7572 S   0  0  0  0  0  0  0  0  0  0  0  0
    4.1847    3.8415    0.1354 C   0  0  0  0  0  0  0  0  0  0  0  0
    5.2399    4.9661    0.2017 C   0  0  1  0  0  0  0  0  0  0  0  0
    4.5920    6.2945    0.5025 C   0  0  0  0  0  0  0  0  0  0  0  0
    4.3765    6.7267    1.8496 N   0  0  0  0  0  0  0  0  0  0  0  0
    4.2372    7.0399   -0.4468 O   0  0  0  0  0  0  0  0  0  0  0  0
    6.2920    4.6554    1.1820 N   0  0  0  0  0  0  0  0  0  0  0  0
    7.4580    5.4698    1.3726 C   0  0  0  0  0  0  0  0  0  0  0  0
    7.8340    5.7225    2.5471 O   0  0  0  0  0  0  0  0  0  0  0  0
    8.2626    5.9975    0.2093 C   0  0  1  0  0  0  0  0  0  0  0  0
    7.9435    7.4691   -0.0510 C   0  0  0  0  0  0  0  0  0  0  0  0
    9.6943    5.8578    0.5054 N   0  0  0  0  0  0  0  0  0  0  0  0
   10.5672    4.8736   -0.0780 C   0  0  0  0  0  0  0  0  0  0  0  0
   11.6213    4.5627    0.5422 O   0  0  0  0  0  0  0  0  0  0  0  0
   10.2496    4.2012   -1.3991 C   0  0  1  0  0  0  0  0  0  0  0  0
   11.5149    3.7331   -2.1273 C   0  0  0  0  0  0  0  0  0  0  0  0
    9.2991    3.0975   -1.2183 N   0  0  0  0  0  0  0  0  0  0  0  0
    9.4410    2.0771   -0.2184 C   0  0  0  0  0  0  0  0  0  0  0  0
    8.6731    2.0884    0.7792 O   0  0  0  0  0  0  0  0  0  0  0  0
   10.4301    0.9542   -0.3903 C   0  0  1  0  0  0  0  0  0  0  0  0
   11.4122    0.9128    0.7861 C   0  0  0  0  0  0  0  0  0  0  0  0
    9.7103   -0.3124   -0.5707 N   0  0  0  0  0  0  0  0  0  0  0  0
    9.5014   -1.2671    0.4742 C   0  0  0  0  0  0  0  0  0  0  0  0
    8.5600   -1.0980    1.2987 O   0  0  0  0  0  0  0  0  0  0  0  0
   10.3373   -2.5182    0.5175 C   0  0  1  0  0  0  0  0  0  0  0  0
   10.7608   -2.8394    1.9550 C   0  0  0  0  0  0  0  0  0  0  0  0
    9.6034   -3.6514   -0.0601 N   0  0  0  0  0  0  0  0  0  0  0  0
   10.2563   -4.8902   -0.3745 C   0  0  0  0  0  0  0  0  0  0  0  0
   11.5163   -4.9288   -0.4598 O   0  0  0  0  0  0  0  0  0  0  0  0
    9.4763   -6.1551   -0.6514 C   0  0  1  0  0  0  0  0  0  0  0  0
    9.9850   -7.2942    0.2387 C   0  0  0  0  0  0  0  0  0  0  0  0
    8.0403   -5.9713   -0.4122 N   0  0  0  0  0  0  0  0  0  0  0  0
    7.0467   -6.2352   -1.4175 C   0  0  0  0  0  0  0  0  0  0  0  0
    7.3701   -6.2683   -2.6347 O   0  0  0  0  0  0  0  0  0  0  0  0
    5.6210   -6.5443   -1.0283 C   0  0  1  0  0  0  0  0  0  0  0  0
    5.5793   -7.7591   -0.0988 C   0  0  0  0  0  0  0  0  0  0  0  0
    5.0014   -5.3831   -0.3773 N   0  0  0  0  0  0  0  0  0  0  0  0
    3.7544   -4.8146   -0.8119 C   0  0  0  0  0  0  0  0  0  0  0  0
    3.6718   -3.5637   -0.9456 O   0  0  0  0  0  0  0  0  0  0  0  0
    2.5362   -5.6849   -1.0401 C   0  0  1  0  0  0  0  0  0  0  0  0
    1.9573   -6.2406    0.2646 C   0  0  0  0  0  0  0  0  0  0  0  0
    1.5142   -5.0119   -1.8604 N   0  0  0  0  0  0  0  0  0  0  0  0
    0.7065   -3.8585   -1.5329 C   0  0  0  0  0  0  0  0  0  0  0  0
   -0.0197   -3.3689   -2.4428 O   0  0  0  0  0  0  0  0  0  0  0  0
    0.6019   -3.2719   -0.1349 C   0  0  1  0  0  0  0  0  0  0  0  0
    0.3340   -1.7549   -0.1649 C   0  0  0  0  0  0  0  0  0  0  0  0
    0.3770   -1.0653    1.5359 S   0  0  0  0  0  0  0  0  0  0  0  0
   -0.9863    0.1450    1.3461 C   0  0  0  0  0  0  0  0  0  0  0  0
   -0.4203   -3.9666    0.6658 N   0  0  0  0  0  0  0  0  0  0  0  0
   -1.6123   -4.5320    0.1125 C   0  0  0  0  0  0  0  0  0  0  0  0
   -1.6409   -5.7635   -0.1475 O   0  0  0  0  0  0  0  0  0  0  0  0
   -2.8476   -3.6837   -0.0733 C   0  0  1  0  0  0  0  0  0  0  0  0
   -3.5942   -3.9786   -1.3805 C   0  0  0  0  0  0  0  0  0  0  0  0
   -3.7066   -3.7125    1.1197 N   0  0  0  0  0  0  0  0  0  0  0  0
   -4.7220   -4.6735    1.4947 C   0  0  0  0  0  0  0  0  0  0  0  0
   -5.5070   -4.3686    2.4331 O   0  0  0  0  0  0  0  0  0  0  0  0
   -4.9063   -6.0112    0.8153 C   0  0  1  0  0  0  0  0  0  0  0  0
   -5.1754   -7.1310    1.8282 C   0  0  0  0  0  0  0  0  0  0  0  0
   -5.9873   -5.9440   -0.1733 N   0  0  0  0  0  0  0  0  0  0  0  0
   -7.3131   -5.5115    0.1583 C   0  0  0  0  0  0  0  0  0  0  0  0
   -8.1097   -6.3163    0.7255 O   0  0  0  0  0  0  0  0  0  0  0  0
   -7.7732   -4.1309   -0.2364 C   0  0  1  0  0  0  0  0  0  0  0  0
   -7.9446   -4.0451   -1.7580 C   0  0  0  0  0  0  0  0  0  0  0  0
   -8.9851   -3.7556    0.5123 N   0  0  0  0  0  0  0  0  0  0  0  0
  -10.2986   -3.6969   -0.0554 C   0  0  0  0  0  0  0  0  0  0  0  0
  -11.1160   -4.6275    0.1835 O   0  0  0  0  0  0  0  0  0  0  0  0
  -10.7543   -2.4683   -0.8003 C   0  0  1  0  0  0  0  0  0  0  0  0
  -11.3816   -2.8473   -2.1486 C   0  0  0  0  0  0  0  0  0  0  0  0
  -11.7285   -1.7397    0.0117 N   0  0  0  0  0  0  0  0  0  0  0  0
  -11.7058   -0.3106    0.1449 C   0  0  0  0  0  0  0  0  0  0  0  0
  -12.7056    0.3486   -0.2502 O   0  0  0  0  0  0  0  0  0  0  0  0
  -10.5556    0.4317    0.7990 C   0  0  1  0  0  0  0  0  0  0  0  0
   -9.7842   -0.4365    1.7948 C   0  0  0  0  0  0  0  0  0  0  0  0
   -9.6459    0.9564   -0.2221 N   0  0  0  0  0  0  0  0  0  0  0  0
   -9.3976    2.3364   -0.5641 C   0  0  0  0  0  0  0  0  0  0  0  0
   -8.6227    2.5696   -1.5328 O   0  0  0  0  0  0  0  0  0  0  0  0
   -9.9941    3.5343    0.1449 C   0  0  1  0  0  0  0  0  0  0  0  0
  -11.5104    3.6656   -0.0552 C   0  0  0  0  0  0  0  0  0  0  0  0
   -9.6289    3.5607    1.5667 N   0  0  0  0  0  0  0  0  0  0  0  0
   -8.6099    4.4177    2.1232 C   0  0  0  0  0  0  0  0  0  0  0  0
   -8.6494    4.6777    3.3595 O   0  0  0  0  0  0  0  0  0  0  0  0
   -7.5278    5.0498    1.2699 C   0  0  1  0  0  0  0  0  0  0  0  0
   -7.9427    6.4827    0.9030 C   0  0  0  0  0  0  0  0  0  0  0  0
   -6.2386    5.0674    1.9789 N   0  0  0  0  0  0  0  0  0  0  0  0
   -4.9926    5.5044    1.4052 C   0  0  0  0  0  0  0  0  0  0  0  0
   -4.0974    5.9547    2.1729 O   0  0  0  0  0  0  0  0  0  0  0  0
   -6.6598    5.9793   -2.1641 H   0  0  0  0  0  0  0  0  0  0  0  0
   -6.4069    7.2291   -3.4247 H   0  0  0  0  0  0  0  0  0  0  0  0
   -5.4667    5.6835   -3.4922 H   0  0  0  0  0  0  0  0  0  0  0  0
   -4.0564    7.4806   -0.0796 H   0  0  0  0  0  0  0  0  0  0  0  0
   -5.5100    4.8652   -0.5827 H   0  0  0  0  0  0  0  0  0  0  0  0
   -3.1981    3.9175    0.4738 H   0  0  0  0  0  0  0  0  0  0  0  0
   -2.5251    5.3917   -0.2980 H   0  0  0  0  0  0  0  0  0  0  0  0
   -1.4103    2.9985   -3.0621 H   0  0  0  0  0  0  0  0  0  0  0  0
   -1.2206    4.6825   -2.4934 H   0  0  0  0  0  0  0  0  0  0  0  0
   -1.9163    1.2767   -0.9583 H   0  0  0  0  0  0  0  0  0  0  0  0
    0.9151    1.8890    2.2243 H   0  0  0  0  0  0  0  0  0  0  0  0
    0.4066    4.8911   -0.8081 H   0  0  0  0  0  0  0  0  0  0  0  0
    1.9877    5.2866    0.8925 H   0  0  0  0  0  0  0  0  0  0  0  0
    1.3799    4.6469    2.4368 H   0  0  0  0  0  0  0  0  0  0  0  0
    4.6915    2.9095   -0.1903 H   0  0  0  0  0  0  0  0  0  0  0  0
    3.4275    4.0736   -0.6399 H   0  0  0  0  0  0  0  0  0  0  0  0
    5.7027    5.0253   -0.8046 H   0  0  0  0  0  0  0  0  0  0  0  0
    3.9772    7.6713    2.0373 H   0  0  0  0  0  0  0  0  0  0  0  0
    4.5947    6.1022    2.6551 H   0  0  0  0  0  0  0  0  0  0  0  0
    6.1218    3.9203    1.9011 H   0  0  0  0  0  0  0  0  0  0  0  0
    7.9942    5.4283   -0.6989 H   0  0  0  0  0  0  0  0  0  0  0  0
    8.1812    8.0840    0.8433 H   0  0  0  0  0  0  0  0  0  0  0  0
    8.5386    7.8381   -0.9134 H   0  0  0  0  0  0  0  0  0  0  0  0
    6.8712    7.5971   -0.2966 H   0  0  0  0  0  0  0  0  0  0  0  0
   10.0757    6.4101    1.3075 H   0  0  0  0  0  0  0  0  0  0  0  0
    9.7839    4.9618   -2.0672 H   0  0  0  0  0  0  0  0  0  0  0  0
   12.1223    4.6156   -2.4261 H   0  0  0  0  0  0  0  0  0  0  0  0
   12.1412    3.0858   -1.4784 H   0  0  0  0  0  0  0  0  0  0  0  0
   11.2415    3.1727   -3.0455 H   0  0  0  0  0  0  0  0  0  0  0  0
    8.3481    3.2079   -1.6384 H   0  0  0  0  0  0  0  0  0  0  0  0
   11.0196    1.1232   -1.3139 H   0  0  0  0  0  0  0  0  0  0  0  0
   10.8741    0.7630    1.7478 H   0  0  0  0  0  0  0  0  0  0  0  0
   12.1436    0.0906    0.6384 H   0  0  0  0  0  0  0  0  0  0  0  0
   11.9771    1.8671    0.8412 H   0  0  0  0  0  0  0  0  0  0  0  0
    9.1705   -0.4463   -1.4581 H   0  0  0  0  0  0  0  0  0  0  0  0
   11.2515   -2.3416   -0.0853 H   0  0  0  0  0  0  0  0  0  0  0  0
   11.2942   -1.9720    2.4001 H   0  0  0  0  0  0  0  0  0  0  0  0
   11.4441   -3.7117    1.9679 H   0  0  0  0  0  0  0  0  0  0  0  0
    9.8743   -3.0788    2.5812 H   0  0  0  0  0  0  0  0  0  0  0  0
    8.6425   -3.4925   -0.4542 H   0  0  0  0  0  0  0  0  0  0  0  0
    9.6581   -6.4466   -1.7113 H   0  0  0  0  0  0  0  0  0  0  0  0
    9.4010   -8.2179    0.0351 H   0  0  0  0  0  0  0  0  0  0  0  0
   11.0538   -7.5101    0.0244 H   0  0  0  0  0  0  0  0  0  0  0  0
    9.8740   -7.0317    1.3133 H   0  0  0  0  0  0  0  0  0  0  0  0
    7.7306   -5.7782    0.5675 H   0  0  0  0  0  0  0  0  0  0  0  0
    5.0657   -6.8028   -1.9530 H   0  0  0  0  0  0  0  0  0  0  0  0
    5.9739   -7.4982    0.9056 H   0  0  0  0  0  0  0  0  0  0  0  0
    4.5390   -8.1191    0.0057 H   0  0  0  0  0  0  0  0  0  0  0  0
    6.1880   -8.5873   -0.5196 H   0  0  0  0  0  0  0  0  0  0  0  0
    5.5585   -4.8340    0.3161 H   0  0  0  0  0  0  0  0  0  0  0  0
    2.8700   -6.5722   -1.6211 H   0  0  0  0  0  0  0  0  0  0  0  0
    1.8681   -5.4652    1.0447 H   0  0  0  0  0  0  0  0  0  0  0  0
    0.9618   -6.6988    0.0795 H   0  0  0  0  0  0  0  0  0  0  0  0
    2.6200   -7.0313    0.6687 H   0  0  0  0  0  0  0  0  0  0  0  0
    1.3912   -5.3878   -2.8274 H   0  0  0  0  0  0  0  0  0  0  0  0
    1.5773   -3.3856    0.3722 H   0  0  0  0  0  0  0  0  0  0  0  0
   -0.6302   -1.5430   -0.6676 H   0  0  0  0  0  0  0  0  0  0  0  0
    1.1286   -1.2505   -0.7517 H   0  0  0  0  0  0  0  0  0  0  0  0
   -1.8393   -0.3155    0.8020 H   0  0  0  0  0  0  0  0  0  0  0  0
   -1.3638    0.3909    2.3624 H   0  0  0  0  0  0  0  0  0  0  0  0
   -0.1598   -4.2667    1.6355 H   0  0  0  0  0  0  0  0  0  0  0  0
   -2.5009   -2.6357   -0.1759 H   0  0  0  0  0  0  0  0  0  0  0  0
   -3.7112   -5.0617   -1.5619 H   0  0  0  0  0  0  0  0  0  0  0  0
   -4.5907   -3.4928   -1.3702 H   0  0  0  0  0  0  0  0  0  0  0  0
   -3.0172   -3.5750   -2.2383 H   0  0  0  0  0  0  0  0  0  0  0  0
   -3.6220   -2.8865    1.7577 H   0  0  0  0  0  0  0  0  0  0  0  0
   -3.9733   -6.2977    0.2987 H   0  0  0  0  0  0  0  0  0  0  0  0
   -4.3260   -7.2119    2.5408 H   0  0  0  0  0  0  0  0  0  0  0  0
   -5.2845   -8.0999    1.2975 H   0  0  0  0  0  0  0  0  0  0  0  0
   -6.1046   -6.9368    2.4061 H   0  0  0  0  0  0  0  0  0  0  0  0
   -5.7535   -6.0538   -1.1824 H   0  0  0  0  0  0  0  0  0  0  0  0
   -6.9716   -3.4165    0.0466 H   0  0  0  0  0  0  0  0  0  0  0  0
   -8.2105   -3.0090   -2.0570 H   0  0  0  0  0  0  0  0  0  0  0  0
   -6.9913   -4.2943   -2.2700 H   0  0  0  0  0  0  0  0  0  0  0  0
   -8.7286   -4.7510   -2.1048 H   0  0  0  0  0  0  0  0  0  0  0  0
   -8.9256   -3.7757    1.5535 H   0  0  0  0  0  0  0  0  0  0  0  0
   -9.8758   -1.8305   -1.0038 H   0  0  0  0  0  0  0  0  0  0  0  0
  -11.6199   -1.9237   -2.7201 H   0  0  0  0  0  0  0  0  0  0  0  0
  -12.3201   -3.4223   -2.0022 H   0  0  0  0  0  0  0  0  0  0  0  0
  -10.6776   -3.4575   -2.7512 H   0  0  0  0  0  0  0  0  0  0  0  0
  -12.6354   -2.2162    0.2167 H   0  0  0  0  0  0  0  0  0  0  0  0
  -11.0012    1.2438    1.3919 H   0  0  0  0  0  0  0  0  0  0  0  0
  -10.4805   -0.9572    2.4867 H   0  0  0  0  0  0  0  0  0  0  0  0
   -9.1092    0.2089    2.3961 H   0  0  0  0  0  0  0  0  0  0  0  0
   -9.1613   -1.1870    1.2664 H   0  0  0  0  0  0  0  0  0  0  0  0
   -9.1165    0.2548   -0.7872 H   0  0  0  0  0  0  0  0  0  0  0  0
   -9.5829    4.4410   -0.3480 H   0  0  0  0  0  0  0  0  0  0  0  0
  -11.8674    4.6143    0.3999 H   0  0  0  0  0  0  0  0  0  0  0  0
  -12.0771    2.8421    0.4121 H   0  0  0  0  0  0  0  0  0  0  0  0
  -11.7456    3.6896   -1.1424 H   0  0  0  0  0  0  0  0  0  0  0  0
  -10.2549    3.0868    2.2545 H   0  0  0  0  0  0  0  0  0  0  0  0
   -7.4198    4.4416    0.3509 H   0  0  0  0  0  0  0  0  0  0  0  0
   -8.9878    6.5077    0.5325 H   0  0  0  0  0  0  0  0  0  0  0  0
   -7.2940    6.8759    0.0997 H   0  0  0  0  0  0  0  0  0  0  0  0
   -7.8670    7.1439    1.7893 H   0  0  0  0  0  0  0  0  0  0  0  0
   -6.2299    4.9245    3.0127 H   0  0  0  0  0  0  0  0  0  0  0  0
  1  2  1  0
  2  3  2  0
  2  4  1  0
  4  5  1  0
  5  6  1  0
  6  7  1  0
  7  8  1  0
  8  9  1  0
  9 10  2  0
 10 11  1  0
 11 12  2  0
 12 13  1  0
 13 14  2  0
 13 15  1  0
 15 16  1  0
 16 17  1  0
 17 18  1  0
 18 19  1  0
 19 20  1  0
 19 21  2  0
 18 22  1  0
 22 23  1  0
 23 24  2  0
 23 25  1  0
 25 26  1  0
 25 27  1  0
 27 28  1  0
 28 29  2  0
 28 30  1  0
 30 31  1  0
 30 32  1  0
 32 33  1  0
 33 34  2  0
 33 35  1  0
 35 36  1  0
 35 37  1  0
 37 38  1  0
 38 39  2  0
 38 40  1  0
 40 41  1  0
 40 42  1  0
 42 43  1  0
 43 44  2  0
 43 45  1  0
 45 46  1  0
 45 47  1  0
 47 48  1  0
 48 49  2  0
 48 50  1  0
 50 51  1  0
 50 52  1  0
 52 53  1  0
 53 54  2  0
 53 55  1  0
 55 56  1  0
 55 57  1  0
 57 58  1  0
 58 59  2  0
 58 60  1  0
 60 61  1  0
 61 62  1  0
 62 63  1  0
 60 64  1  0
 64 65  1  0
 65 66  2  0
 65 67  1  0
 67 68  1  0
 67 69  1  0
 69 70  1  0
 70 71  2  0
 70 72  1  0
 72 73  1  0
 72 74  1  0
 74 75  1  0
 75 76  2  0
 75 77  1  0
 77 78  1  0
 77 79  1  0
 79 80  1  0
 80 81  2  0
 80 82  1  0
 82 83  1  0
 82 84  1  0
 84 85  1  0
 85 86  2  0
 85 87  1  0
 87 88  1  0
 87 89  1  0
 89 90  1  0
 90 91  2  0
 90 92  1  0
 92 93  1  0
 92 94  1  0
 94 95  1  0
 95 96  2  0
 95 97  1  0
 97 98  1  0
 97 99  1  0
 99100  1  0
100101  2  0
100  5  1  0
 14  9  1  0
 63 11  1  0
  1102  1  0
  1103  1  0
  1104  1  0
  4105  1  0
  5106  1  6
  6107  1  0
  6108  1  0
  8109  1  0
  8110  1  0
 10111  1  0
 12112  1  0
 14113  1  0
 15114  1  0
 15115  1  0
 17116  1  0
 17117  1  0
 18118  1  6
 20119  1  0
 20120  1  0
 22121  1  0
 25122  1  6
 26123  1  0
 26124  1  0
 26125  1  0
 27126  1  0
 30127  1  6
 31128  1  0
 31129  1  0
 31130  1  0
 32131  1  0
 35132  1  6
 36133  1  0
 36134  1  0
 36135  1  0
 37136  1  0
 40137  1  6
 41138  1  0
 41139  1  0
 41140  1  0
 42141  1  0
 45142  1  6
 46143  1  0
 46144  1  0
 46145  1  0
 47146  1  0
 50147  1  6
 51148  1  0
 51149  1  0
 51150  1  0
 52151  1  0
 55152  1  6
 56153  1  0
 56154  1  0
 56155  1  0
 57156  1  0
 60157  1  1
 61158  1  0
 61159  1  0
 63160  1  0
 63161  1  0
 64162  1  0
 67163  1  6
 68164  1  0
 68165  1  0
 68166  1  0
 69167  1  0
 72168  1  6
 73169  1  0
 73170  1  0
 73171  1  0
 74172  1  0
 77173  1  1
 78174  1  0
 78175  1  0
 78176  1  0
 79177  1  0
 82178  1  6
 83179  1  0
 83180  1  0
 83181  1  0
 84182  1  0
 87183  1  1
 88184  1  0
 88185  1  0
 88186  1  0
 89187  1  0
 92188  1  6
 93189  1  0
 93190  1  0
 93191  1  0
 94192  1  0
 97193  1  6
 98194  1  0
 98195  1  0
 98196  1  0
 99197  1  0
M  END
