
     RDKit          3D

207209  0  0  0  0  0  0  0  0999 V2000
    4.5388   -6.8305   -0.3014 C   0  0  0  0  0  0  0  0  0  0  0  0
    4.5184   -6.0036    0.9487 C   0  0  0  0  0  0  0  0  0  0  0  0
    3.7473   -6.3386    1.8888 O   0  0  0  0  0  0  0  0  0  0  0  0
    5.3452   -4.8360    1.1073 N   0  0  0  0  0  0  0  0  0  0  0  0
    6.2434   -4.2953    0.0807 C   0  0  1  0  0  0  0  0  0  0  0  0
    5.7965   -2.8823   -0.3331 C   0  0  0  0  0  0  0  0  0  0  0  0
    4.2491   -2.9657   -1.3082 S   0  0  0  0  0  0  0  0  0  0  0  0
    3.1071   -2.5551    0.0582 C   0  0  0  0  0  0  0  0  0  0  0  0
    1.6874   -2.7596   -0.3943 C   0  0  0  0  0  0  0  0  0  0  0  0
    0.9116   -1.6642   -0.8077 C   0  0  0  0  0  0  0  0  0  0  0  0
   -0.3981   -1.8475   -1.2970 C   0  0  0  0  0  0  0  0  0  0  0  0
   -0.9490   -3.1362   -1.2599 C   0  0  0  0  0  0  0  0  0  0  0  0
   -0.2028   -4.2357   -0.8004 C   0  0  0  0  0  0  0  0  0  0  0  0
    1.1216   -4.0440   -0.3828 C   0  0  0  0  0  0  0  0  0  0  0  0
   -0.8626   -5.5691   -0.6094 C   0  0  0  0  0  0  0  0  0  0  0  0
   -1.4129   -5.7094    1.1267 S   0  0  0  0  0  0  0  0  0  0  0  0
   -1.9426   -7.4574    1.0358 C   0  0  0  0  0  0  0  0  0  0  0  0
   -3.4292   -7.5771    0.6687 C   0  0  1  0  0  0  0  0  0  0  0  0
   -3.7659   -9.0354    0.4520 C   0  0  0  0  0  0  0  0  0  0  0  0
   -4.1953   -9.5018   -0.8239 N   0  0  0  0  0  0  0  0  0  0  0  0
   -3.6255   -9.8576    1.4046 O   0  0  0  0  0  0  0  0  0  0  0  0
   -4.2707   -7.0244    1.7431 N   0  0  0  0  0  0  0  0  0  0  0  0
   -5.6973   -6.8411    1.6245 C   0  0  0  0  0  0  0  0  0  0  0  0
   -6.4281   -7.1260    2.6154 O   0  0  0  0  0  0  0  0  0  0  0  0
   -6.3443   -6.3597    0.3395 C   0  0  1  0  0  0  0  0  0  0  0  0
   -7.2205   -7.4557   -0.2661 C   0  0  0  0  0  0  0  0  0  0  0  0
   -7.1194   -5.1243    0.5251 N   0  0  0  0  0  0  0  0  0  0  0  0
   -8.3122   -5.0483    1.3274 C   0  0  0  0  0  0  0  0  0  0  0  0
   -8.2312   -5.1291    2.5875 O   0  0  0  0  0  0  0  0  0  0  0  0
   -9.6390   -4.8047    0.6680 C   0  0  1  0  0  0  0  0  0  0  0  0
  -10.6752   -5.8403    1.1086 C   0  0  0  0  0  0  0  0  0  0  0  0
  -10.1224   -3.4582    0.9806 N   0  0  0  0  0  0  0  0  0  0  0  0
  -10.2186   -2.4363   -0.0251 C   0  0  0  0  0  0  0  0  0  0  0  0
   -9.2683   -2.2771   -0.8410 O   0  0  0  0  0  0  0  0  0  0  0  0
  -11.4704   -1.6094   -0.1795 C   0  0  1  0  0  0  0  0  0  0  0  0
  -12.5888   -2.4735   -0.7631 C   0  0  0  0  0  0  0  0  0  0  0  0
  -11.9083   -1.0561    1.1117 N   0  0  0  0  0  0  0  0  0  0  0  0
  -12.2422    0.3199    1.3802 C   0  0  0  0  0  0  0  0  0  0  0  0
  -12.7149    0.6021    2.5146 O   0  0  0  0  0  0  0  0  0  0  0  0
  -12.0922    1.4311    0.3512 C   0  0  1  0  0  0  0  0  0  0  0  0
  -13.2342    1.3720   -0.6683 C   0  0  0  0  0  0  0  0  0  0  0  0
  -12.1154    2.7489    1.0044 N   0  0  0  0  0  0  0  0  0  0  0  0
  -11.3363    3.8940    0.6022 C   0  0  0  0  0  0  0  0  0  0  0  0
  -11.3035    4.8889    1.3748 O   0  0  0  0  0  0  0  0  0  0  0  0
  -10.6123    3.9678   -0.7266 C   0  0  1  0  0  0  0  0  0  0  0  0
  -10.9596    5.2599   -1.4763 C   0  0  0  0  0  0  0  0  0  0  0  0
   -9.1659    3.8322   -0.5350 N   0  0  0  0  0  0  0  0  0  0  0  0
   -8.4036    4.6795    0.3376 C   0  0  0  0  0  0  0  0  0  0  0  0
   -8.0207    4.2202    1.4514 O   0  0  0  0  0  0  0  0  0  0  0  0
   -7.9318    6.0427   -0.0999 C   0  0  1  0  0  0  0  0  0  0  0  0
   -8.4441    7.1020    0.8900 C   0  0  0  0  0  0  0  0  0  0  0  0
   -6.4670    6.0473   -0.1703 N   0  0  0  0  0  0  0  0  0  0  0  0
   -5.6652    7.2345   -0.2926 C   0  0  0  0  0  0  0  0  0  0  0  0
   -6.1503    8.2777   -0.8169 O   0  0  0  0  0  0  0  0  0  0  0  0
   -4.2638    7.2763    0.2661 C   0  0  1  0  0  0  0  0  0  0  0  0
   -4.3003    7.6751    1.7400 C   0  0  0  0  0  0  0  0  0  0  0  0
   -3.6075    5.9745    0.1194 N   0  0  0  0  0  0  0  0  0  0  0  0
   -2.8676    5.6531   -1.0627 C   0  0  0  0  0  0  0  0  0  0  0  0
   -3.3658    4.8484   -1.8977 O   0  0  0  0  0  0  0  0  0  0  0  0
   -1.5256    6.2913   -1.3359 C   0  0  1  0  0  0  0  0  0  0  0  0
   -0.7491    6.6508   -0.0634 C   0  0  0  0  0  0  0  0  0  0  0  0
   -0.7063    5.4624   -2.2360 N   0  0  0  0  0  0  0  0  0  0  0  0
   -0.1394    4.1612   -1.9486 C   0  0  0  0  0  0  0  0  0  0  0  0
    0.7769    3.7310   -2.7004 O   0  0  0  0  0  0  0  0  0  0  0  0
   -0.6650    3.2546   -0.8505 C   0  0  1  0  0  0  0  0  0  0  0  0
   -1.4609    2.0730   -1.4460 C   0  0  0  0  0  0  0  0  0  0  0  0
   -0.3566    0.8107   -2.1976 S   0  0  0  0  0  0  0  0  0  0  0  0
   -1.2896   -0.6905   -1.6907 C   0  0  0  0  0  0  0  0  0  0  0  0
    0.3788    2.7494    0.0605 N   0  0  0  0  0  0  0  0  0  0  0  0
    1.7883    2.9808   -0.0320 C   0  0  0  0  0  0  0  0  0  0  0  0
    2.5584    1.9803   -0.0595 O   0  0  0  0  0  0  0  0  0  0  0  0
    2.3649    4.3750    0.1468 C   0  0  1  0  0  0  0  0  0  0  0  0
    2.2613    4.7509    1.6277 C   0  0  0  0  0  0  0  0  0  0  0  0
    3.7655    4.4284   -0.3076 N   0  0  0  0  0  0  0  0  0  0  0  0
    4.6155    5.5630   -0.0777 C   0  0  0  0  0  0  0  0  0  0  0  0
    4.1365    6.7255   -0.1327 O   0  0  0  0  0  0  0  0  0  0  0  0
    6.0813    5.3637    0.2077 C   0  0  1  0  0  0  0  0  0  0  0  0
    6.2788    4.2378    1.2287 C   0  0  0  0  0  0  0  0  0  0  0  0
    6.7933    5.0536   -1.0364 N   0  0  0  0  0  0  0  0  0  0  0  0
    7.8194    5.8912   -1.5881 C   0  0  0  0  0  0  0  0  0  0  0  0
    7.5972    6.4588   -2.6923 O   0  0  0  0  0  0  0  0  0  0  0  0
    9.2057    6.0022   -0.9804 C   0  0  1  0  0  0  0  0  0  0  0  0
    9.2150    6.4943    0.4667 C   0  0  0  0  0  0  0  0  0  0  0  0
    9.9839    4.7618   -1.1222 N   0  0  0  0  0  0  0  0  0  0  0  0
    9.6184    3.5002   -0.5380 C   0  0  0  0  0  0  0  0  0  0  0  0
    8.5019    2.9797   -0.8293 O   0  0  0  0  0  0  0  0  0  0  0  0
   10.6182    2.6992    0.2487 C   0  0  1  0  0  0  0  0  0  0  0  0
   11.4618    3.5946    1.1650 C   0  0  0  0  0  0  0  0  0  0  0  0
    9.9309    1.6932    1.0726 N   0  0  0  0  0  0  0  0  0  0  0  0
   10.1274    0.2653    1.0216 C   0  0  0  0  0  0  0  0  0  0  0  0
    9.9665   -0.3887    2.0864 O   0  0  0  0  0  0  0  0  0  0  0  0
   10.4510   -0.5091   -0.2409 C   0  0  1  0  0  0  0  0  0  0  0  0
    9.6784   -0.0279   -1.4706 C   0  0  0  0  0  0  0  0  0  0  0  0
   11.8985   -0.5049   -0.5002 N   0  0  0  0  0  0  0  0  0  0  0  0
   12.7471   -1.6669   -0.4293 C   0  0  0  0  0  0  0  0  0  0  0  0
   13.9865   -1.4901   -0.2903 O   0  0  0  0  0  0  0  0  0  0  0  0
   12.1930   -3.0778   -0.4878 C   0  0  1  0  0  0  0  0  0  0  0  0
   13.2554   -4.0671   -0.9948 C   0  0  0  0  0  0  0  0  0  0  0  0
   11.7222   -3.4860    0.8422 N   0  0  0  0  0  0  0  0  0  0  0  0
   10.7651   -4.5336    1.0917 C   0  0  0  0  0  0  0  0  0  0  0  0
   10.5597   -4.8822    2.2868 O   0  0  0  0  0  0  0  0  0  0  0  0
    9.9665   -5.1863   -0.0226 C   0  0  1  0  0  0  0  0  0  0  0  0
    9.6145   -6.6450    0.3007 C   0  0  0  0  0  0  0  0  0  0  0  0
    8.7545   -4.4237   -0.3281 N   0  0  0  0  0  0  0  0  0  0  0  0
    7.6589   -4.2776    0.5933 C   0  0  0  0  0  0  0  0  0  0  0  0
    7.8886   -4.1140    1.8240 O   0  0  0  0  0  0  0  0  0  0  0  0
    4.2276   -6.2080   -1.1678 H   0  0  0  0  0  0  0  0  0  0  0  0
    5.5582   -7.2348   -0.4697 H   0  0  0  0  0  0  0  0  0  0  0  0
    3.8343   -7.6823   -0.2124 H   0  0  0  0  0  0  0  0  0  0  0  0
    5.2805   -4.3239    2.0166 H   0  0  0  0  0  0  0  0  0  0  0  0
    6.2347   -4.9399   -0.8256 H   0  0  0  0  0  0  0  0  0  0  0  0
    6.5732   -2.4263   -0.9843 H   0  0  0  0  0  0  0  0  0  0  0  0
    5.6830   -2.2205    0.5522 H   0  0  0  0  0  0  0  0  0  0  0  0
    3.3091   -3.1898    0.9438 H   0  0  0  0  0  0  0  0  0  0  0  0
    3.2814   -1.4967    0.3553 H   0  0  0  0  0  0  0  0  0  0  0  0
    1.3359   -0.6724   -0.7372 H   0  0  0  0  0  0  0  0  0  0  0  0
   -1.9804   -3.2846   -1.5559 H   0  0  0  0  0  0  0  0  0  0  0  0
    1.6997   -4.8783   -0.0130 H   0  0  0  0  0  0  0  0  0  0  0  0
   -1.7360   -5.6846   -1.2898 H   0  0  0  0  0  0  0  0  0  0  0  0
   -0.1380   -6.3767   -0.8540 H   0  0  0  0  0  0  0  0  0  0  0  0
   -1.3208   -8.0067    0.2951 H   0  0  0  0  0  0  0  0  0  0  0  0
   -1.7566   -7.9257    2.0247 H   0  0  0  0  0  0  0  0  0  0  0  0
   -3.5866   -7.0130   -0.2741 H   0  0  0  0  0  0  0  0  0  0  0  0
   -4.3911   -8.8313   -1.6064 H   0  0  0  0  0  0  0  0  0  0  0  0
   -4.3940  -10.5170   -0.9697 H   0  0  0  0  0  0  0  0  0  0  0  0
   -3.8928   -7.0495    2.7208 H   0  0  0  0  0  0  0  0  0  0  0  0
   -5.5566   -6.1325   -0.4015 H   0  0  0  0  0  0  0  0  0  0  0  0
   -7.6755   -7.0950   -1.2173 H   0  0  0  0  0  0  0  0  0  0  0  0
   -6.6215   -8.3648   -0.4834 H   0  0  0  0  0  0  0  0  0  0  0  0
   -8.0379   -7.7412    0.4326 H   0  0  0  0  0  0  0  0  0  0  0  0
   -7.0361   -4.4085   -0.2311 H   0  0  0  0  0  0  0  0  0  0  0  0
   -9.5126   -4.9111   -0.4323 H   0  0  0  0  0  0  0  0  0  0  0  0
  -10.8529   -5.7792    2.2045 H   0  0  0  0  0  0  0  0  0  0  0  0
  -10.3376   -6.8636    0.8519 H   0  0  0  0  0  0  0  0  0  0  0  0
  -11.6411   -5.6495    0.5929 H   0  0  0  0  0  0  0  0  0  0  0  0
  -10.4549   -3.2544    1.9497 H   0  0  0  0  0  0  0  0  0  0  0  0
  -11.2572   -0.7965   -0.9021 H   0  0  0  0  0  0  0  0  0  0  0  0
  -13.5231   -1.8826   -0.8659 H   0  0  0  0  0  0  0  0  0  0  0  0
  -12.7979   -3.3418   -0.0998 H   0  0  0  0  0  0  0  0  0  0  0  0
  -12.2984   -2.8498   -1.7679 H   0  0  0  0  0  0  0  0  0  0  0  0
  -12.1248   -1.7345    1.8740 H   0  0  0  0  0  0  0  0  0  0  0  0
  -11.1168    1.2949   -0.1619 H   0  0  0  0  0  0  0  0  0  0  0  0
  -14.2159    1.4195   -0.1511 H   0  0  0  0  0  0  0  0  0  0  0  0
  -13.1872    0.4458   -1.2738 H   0  0  0  0  0  0  0  0  0  0  0  0
  -13.1657    2.2313   -1.3685 H   0  0  0  0  0  0  0  0  0  0  0  0
  -12.8263    2.9172    1.7537 H   0  0  0  0  0  0  0  0  0  0  0  0
  -10.9485    3.1469   -1.3866 H   0  0  0  0  0  0  0  0  0  0  0  0
  -10.3798    5.3119   -2.4226 H   0  0  0  0  0  0  0  0  0  0  0  0
  -12.0426    5.2691   -1.7257 H   0  0  0  0  0  0  0  0  0  0  0  0
  -10.7357    6.1561   -0.8625 H   0  0  0  0  0  0  0  0  0  0  0  0
   -8.7405    2.9097   -0.7793 H   0  0  0  0  0  0  0  0  0  0  0  0
   -8.3366    6.2734   -1.1119 H   0  0  0  0  0  0  0  0  0  0  0  0
   -7.9007    7.0221    1.8590 H   0  0  0  0  0  0  0  0  0  0  0  0
   -9.5309    6.9716    1.0810 H   0  0  0  0  0  0  0  0  0  0  0  0
   -8.3014    8.1232    0.4816 H   0  0  0  0  0  0  0  0  0  0  0  0
   -5.9924    5.1303   -0.3577 H   0  0  0  0  0  0  0  0  0  0  0  0
   -3.6796    8.0444   -0.2886 H   0  0  0  0  0  0  0  0  0  0  0  0
   -4.7361    8.6901    1.8514 H   0  0  0  0  0  0  0  0  0  0  0  0
   -3.2676    7.6830    2.1543 H   0  0  0  0  0  0  0  0  0  0  0  0
   -4.9120    6.9588    2.3279 H   0  0  0  0  0  0  0  0  0  0  0  0
   -3.9432    5.1754    0.7042 H   0  0  0  0  0  0  0  0  0  0  0  0
   -1.7441    7.2484   -1.8595 H   0  0  0  0  0  0  0  0  0  0  0  0
   -1.2956    7.4237    0.5179 H   0  0  0  0  0  0  0  0  0  0  0  0
   -0.5921    5.7676    0.5878 H   0  0  0  0  0  0  0  0  0  0  0  0
    0.2426    7.0767   -0.3339 H   0  0  0  0  0  0  0  0  0  0  0  0
   -0.4417    5.8958   -3.1491 H   0  0  0  0  0  0  0  0  0  0  0  0
   -1.3771    3.8025   -0.2171 H   0  0  0  0  0  0  0  0  0  0  0  0
   -2.1656    2.4320   -2.2259 H   0  0  0  0  0  0  0  0  0  0  0  0
   -2.0714    1.6388   -0.6292 H   0  0  0  0  0  0  0  0  0  0  0  0
   -1.9678   -0.4988   -0.8343 H   0  0  0  0  0  0  0  0  0  0  0  0
   -1.9245   -0.9937   -2.5542 H   0  0  0  0  0  0  0  0  0  0  0  0
    0.0806    2.0237    0.7511 H   0  0  0  0  0  0  0  0  0  0  0  0
    1.7730    5.1094   -0.4398 H   0  0  0  0  0  0  0  0  0  0  0  0
    2.5917    5.7979    1.7920 H   0  0  0  0  0  0  0  0  0  0  0  0
    2.8959    4.0715    2.2436 H   0  0  0  0  0  0  0  0  0  0  0  0
    1.2092    4.6731    1.9819 H   0  0  0  0  0  0  0  0  0  0  0  0
    4.1968    3.5977   -0.7737 H   0  0  0  0  0  0  0  0  0  0  0  0
    6.4788    6.3025    0.6518 H   0  0  0  0  0  0  0  0  0  0  0  0
    7.3497    4.1072    1.4816 H   0  0  0  0  0  0  0  0  0  0  0  0
    5.7258    4.4705    2.1652 H   0  0  0  0  0  0  0  0  0  0  0  0
    5.9124    3.2657    0.8270 H   0  0  0  0  0  0  0  0  0  0  0  0
    6.3607    4.3556   -1.6858 H   0  0  0  0  0  0  0  0  0  0  0  0
    9.7383    6.7904   -1.5574 H   0  0  0  0  0  0  0  0  0  0  0  0
   10.2570    6.7288    0.7728 H   0  0  0  0  0  0  0  0  0  0  0  0
    8.8367    5.7106    1.1534 H   0  0  0  0  0  0  0  0  0  0  0  0
    8.6058    7.4182    0.5817 H   0  0  0  0  0  0  0  0  0  0  0  0
   10.9559    4.8491   -1.5000 H   0  0  0  0  0  0  0  0  0  0  0  0
   11.3068    2.2319   -0.4693 H   0  0  0  0  0  0  0  0  0  0  0  0
   10.8141    4.1534    1.8756 H   0  0  0  0  0  0  0  0  0  0  0  0
   12.0537    4.3234    0.5674 H   0  0  0  0  0  0  0  0  0  0  0  0
   12.1823    2.9734    1.7431 H   0  0  0  0  0  0  0  0  0  0  0  0
    9.3377    2.0569    1.8533 H   0  0  0  0  0  0  0  0  0  0  0  0
   10.0992   -1.5468   -0.0610 H   0  0  0  0  0  0  0  0  0  0  0  0
    9.7755   -0.7796   -2.2826 H   0  0  0  0  0  0  0  0  0  0  0  0
    8.5982    0.0797   -1.2303 H   0  0  0  0  0  0  0  0  0  0  0  0
   10.0703    0.9303   -1.8539 H   0  0  0  0  0  0  0  0  0  0  0  0
   12.3757    0.4030   -0.6879 H   0  0  0  0  0  0  0  0  0  0  0  0
   11.3505   -3.0765   -1.2142 H   0  0  0  0  0  0  0  0  0  0  0  0
   13.6011   -3.7559   -2.0043 H   0  0  0  0  0  0  0  0  0  0  0  0
   12.8408   -5.0910   -1.0628 H   0  0  0  0  0  0  0  0  0  0  0  0
   14.1291   -4.0959   -0.3051 H   0  0  0  0  0  0  0  0  0  0  0  0
   12.1584   -3.0350    1.6802 H   0  0  0  0  0  0  0  0  0  0  0  0
   10.5850   -5.2272   -0.9389 H   0  0  0  0  0  0  0  0  0  0  0  0
   10.5373   -7.2449    0.4507 H   0  0  0  0  0  0  0  0  0  0  0  0
    8.9847   -6.7150    1.2123 H   0  0  0  0  0  0  0  0  0  0  0  0
    9.0508   -7.0870   -0.5507 H   0  0  0  0  0  0  0  0  0  0  0  0
    8.5876   -4.1639   -1.3294 H   0  0  0  0  0  0  0  0  0  0  0  0
  1  2  1  0
  2  3  2  0
  2  4  1  0
  4  5  1  0
  5  6  1  0
  6  7  1  0
  7  8  1  0
  8  9  1  0
  9 10  1  0
 10 11  2  0
 11 12  1  0
 12 13  2  0
 13 14  1  0
 13 15  1  0
 15 16  1  0
 16 17  1  0
 17 18  1  0
 18 19  1  0
 19 20  1  0
 19 21  2  0
 18 22  1  0
 22 23  1  0
 23 24  2  0
 23 25  1  0
 25 26  1  0
 25 27  1  0
 27 28  1  0
 28 29  2  0
 28 30  1  0
 30 31  1  0
 30 32  1  0
 32 33  1  0
 33 34  2  0
 33 35  1  0
 35 36  1  0
 35 37  1  0
 37 38  1  0
 38 39  2  0
 38 40  1  0
 40 41  1  0
 40 42  1  0
 42 43  1  0
 43 44  2  0
 43 45  1  0
 45 46  1  0
 45 47  1  0
 47 48  1  0
 48 49  2  0
 48 50  1  0
 50 51  1  0
 50 52  1  0
 52 53  1  0
 53 54  2  0
 53 55  1  0
 55 56  1  0
 55 57  1  0
 57 58  1  0
 58 59  2  0
 58 60  1  0
 60 61  1  0
 60 62  1  0
 62 63  1  0
 63 64  2  0
 63 65  1  0
 65 66  1  0
 66 67  1  0
 67 68  1  0
 65 69  1  0
 69 70  1  0
 70 71  2  0
 70 72  1  0
 72 73  1  0
 72 74  1  0
 74 75  1  0
 75 76  2  0
 75 77  1  0
 77 78  1  0
 77 79  1  0
 79 80  1  0
 80 81  2  0
 80 82  1  0
 82 83  1  0
 82 84  1  0
 84 85  1  0
 85 86  2  0
 85 87  1  0
 87 88  1  0
 87 89  1  0
 89 90  1  0
 90 91  2  0
 90 92  1  0
 92 93  1  0
 92 94  1  0
 94 95  1  0
 95 96  2  0
 95 97  1  0
 97 98  1  0
 97 99  1  0
 99100  1  0
100101  2  0
100102  1  0
102103  1  0
102104  1  0
104105  1  0
105106  2  0
105  5  1  0
 14  9  2  0
 68 11  1  0
  1107  1  0
  1108  1  0
  1109  1  0
  4110  1  0
  5111  1  6
  6112  1  0
  6113  1  0
  8114  1  0
  8115  1  0
 10116  1  0
 12117  1  0
 14118  1  0
 15119  1  0
 15120  1  0
 17121  1  0
 17122  1  0
 18123  1  6
 20124  1  0
 20125  1  0
 22126  1  0
 25127  1  6
 26128  1  0
 26129  1  0
 26130  1  0
 27131  1  0
 30132  1  6
 31133  1  0
 31134  1  0
 31135  1  0
 32136  1  0
 35137  1  6
 36138  1  0
 36139  1  0
 36140  1  0
 37141  1  0
 40142  1  6
 41143  1  0
 41144  1  0
 41145  1  0
 42146  1  0
 45147  1  6
 46148  1  0
 46149  1  0
 46150  1  0
 47151  1  0
 50152  1  6
 51153  1  0
 51154  1  0
 51155  1  0
 52156  1  0
 55157  1  6
 56158  1  0
 56159  1  0
 56160  1  0
 57161  1  0
 60162  1  6
 61163  1  0
 61164  1  0
 61165  1  0
 62166  1  0
 65167  1  1
 66168  1  0
 66169  1  0
 68170  1  0
 68171  1  0
 69172  1  0
 72173  1  6
 73174  1  0
 73175  1  0
 73176  1  0
 74177  1  0
 77178  1  1
 78179  1  0
 78180  1  0
 78181  1  0
 79182  1  0
 82183  1  6
 83184  1  0
 83185  1  0
 83186  1  0
 84187  1  0
 87188  1  6
 88189  1  0
 88190  1  0
 88191  1  0
 89192  1  0
 92193  1  1
 93194  1  0
 93195  1  0
 93196  1  0
 94197  1  0
 97198  1  6
 98199  1  0
 98200  1  0
 98201  1  0
 99202  1  0
102203  1  6
103204  1  0
103205  1  0
103206  1  0
104207  1  0
M  END
