
     RDKit          3D

217219  0  0  0  0  0  0  0  0999 V2000
    8.2397    2.7898   -2.9623 C   0  0  0  0  0  0  0  0  0  0  0  0
    7.6894    3.8865   -2.1006 C   0  0  0  0  0  0  0  0  0  0  0  0
    7.1671    4.8953   -2.6495 O   0  0  0  0  0  0  0  0  0  0  0  0
    7.6885    3.7436   -0.6752 N   0  0  0  0  0  0  0  0  0  0  0  0
    7.7345    4.8374    0.3262 C   0  0  2  0  0  0  0  0  0  0  0  0
    6.4876    4.7785    1.2353 C   0  0  0  0  0  0  0  0  0  0  0  0
    4.9269    4.8901    0.2739 S   0  0  0  0  0  0  0  0  0  0  0  0
    3.8175    4.3690    1.6378 C   0  0  0  0  0  0  0  0  0  0  0  0
    2.4768    4.0229    1.0490 C   0  0  0  0  0  0  0  0  0  0  0  0
    2.0633    2.6863    0.9751 C   0  0  0  0  0  0  0  0  0  0  0  0
    0.9313    2.3223    0.2266 C   0  0  0  0  0  0  0  0  0  0  0  0
    0.1523    3.3342   -0.3639 C   0  0  0  0  0  0  0  0  0  0  0  0
    0.5097    4.6804   -0.2352 C   0  0  0  0  0  0  0  0  0  0  0  0
    1.6848    5.0172    0.4613 C   0  0  0  0  0  0  0  0  0  0  0  0
   -0.3549    5.7668   -0.8220 C   0  0  0  0  0  0  0  0  0  0  0  0
   -1.2112    6.6857    0.5052 S   0  0  0  0  0  0  0  0  0  0  0  0
   -2.4757    5.4123    0.8730 C   0  0  0  0  0  0  0  0  0  0  0  0
   -3.8145    5.7396    0.2019 C   0  0  1  0  0  0  0  0  0  0  0  0
   -3.7710    5.4429   -1.2732 C   0  0  0  0  0  0  0  0  0  0  0  0
   -3.7961    6.5070   -2.2217 N   0  0  0  0  0  0  0  0  0  0  0  0
   -3.7191    4.2496   -1.6735 O   0  0  0  0  0  0  0  0  0  0  0  0
   -4.9008    4.9708    0.8217 N   0  0  0  0  0  0  0  0  0  0  0  0
   -6.2923    5.3504    0.8118 C   0  0  0  0  0  0  0  0  0  0  0  0
   -7.0822    4.7420    1.5770 O   0  0  0  0  0  0  0  0  0  0  0  0
   -6.8318    6.4417   -0.0916 C   0  0  1  0  0  0  0  0  0  0  0  0
   -7.4934    5.8771   -1.3568 C   0  0  0  0  0  0  0  0  0  0  0  0
   -7.6973    7.3552    0.6733 N   0  0  0  0  0  0  0  0  0  0  0  0
   -9.1320    7.3327    0.7831 C   0  0  0  0  0  0  0  0  0  0  0  0
   -9.7196    8.4251    1.0086 O   0  0  0  0  0  0  0  0  0  0  0  0
   -9.9611    6.0713    0.7031 C   0  0  1  0  0  0  0  0  0  0  0  0
  -10.7449    5.8979    2.0143 C   0  0  0  0  0  0  0  0  0  0  0  0
  -10.8725    6.1466   -0.4520 N   0  0  0  0  0  0  0  0  0  0  0  0
  -11.2746    4.9916   -1.1951 C   0  0  0  0  0  0  0  0  0  0  0  0
  -10.9586    4.9151   -2.4129 O   0  0  0  0  0  0  0  0  0  0  0  0
  -12.1150    3.9070   -0.5528 C   0  0  1  0  0  0  0  0  0  0  0  0
  -13.4339    4.5145   -0.0537 C   0  0  0  0  0  0  0  0  0  0  0  0
  -12.4173    2.8456   -1.5184 N   0  0  0  0  0  0  0  0  0  0  0  0
  -12.1372    1.4410   -1.3530 C   0  0  0  0  0  0  0  0  0  0  0  0
  -12.3434    0.6824   -2.3438 O   0  0  0  0  0  0  0  0  0  0  0  0
  -11.6448    0.8389   -0.0435 C   0  0  1  0  0  0  0  0  0  0  0  0
  -12.6882    0.9324    1.0735 C   0  0  0  0  0  0  0  0  0  0  0  0
  -11.2218   -0.5638   -0.2110 N   0  0  0  0  0  0  0  0  0  0  0  0
  -12.1417   -1.6606   -0.3686 C   0  0  0  0  0  0  0  0  0  0  0  0
  -13.2662   -1.4765   -0.9157 O   0  0  0  0  0  0  0  0  0  0  0  0
  -11.8365   -2.9942    0.2734 C   0  0  1  0  0  0  0  0  0  0  0  0
  -12.7318   -3.1508    1.5167 C   0  0  0  0  0  0  0  0  0  0  0  0
  -12.1201   -4.0838   -0.6665 N   0  0  0  0  0  0  0  0  0  0  0  0
  -11.4332   -5.3490   -0.6659 C   0  0  0  0  0  0  0  0  0  0  0  0
  -12.0776   -6.3843   -0.9931 O   0  0  0  0  0  0  0  0  0  0  0  0
   -9.9882   -5.4933   -0.2356 C   0  0  1  0  0  0  0  0  0  0  0  0
   -9.9197   -5.8364    1.2491 C   0  0  0  0  0  0  0  0  0  0  0  0
   -9.3053   -6.5288   -1.0315 N   0  0  0  0  0  0  0  0  0  0  0  0
   -7.8804   -6.5886   -1.1414 C   0  0  0  0  0  0  0  0  0  0  0  0
   -7.3309   -6.1655   -2.1919 O   0  0  0  0  0  0  0  0  0  0  0  0
   -7.0560   -7.2419   -0.0574 C   0  0  1  0  0  0  0  0  0  0  0  0
   -6.5623   -8.6349   -0.4673 C   0  0  0  0  0  0  0  0  0  0  0  0
   -5.9665   -6.3613    0.4019 N   0  0  0  0  0  0  0  0  0  0  0  0
   -4.9816   -5.7345   -0.4407 C   0  0  0  0  0  0  0  0  0  0  0  0
   -4.8020   -4.4913   -0.3407 O   0  0  0  0  0  0  0  0  0  0  0  0
   -4.0841   -6.5500   -1.3402 C   0  0  1  0  0  0  0  0  0  0  0  0
   -3.4937   -5.7316   -2.4943 C   0  0  0  0  0  0  0  0  0  0  0  0
   -3.0369   -7.2230   -0.5592 N   0  0  0  0  0  0  0  0  0  0  0  0
   -1.8712   -6.5466   -0.0483 C   0  0  0  0  0  0  0  0  0  0  0  0
   -0.7451   -6.8264   -0.5351 O   0  0  0  0  0  0  0  0  0  0  0  0
   -1.9645   -5.5498    1.0759 C   0  0  1  0  0  0  0  0  0  0  0  0
   -1.1556   -6.0565    2.2837 C   0  0  0  0  0  0  0  0  0  0  0  0
   -1.5301   -4.2333    0.5844 N   0  0  0  0  0  0  0  0  0  0  0  0
   -0.5999   -3.3419    1.2252 C   0  0  0  0  0  0  0  0  0  0  0  0
   -0.6339   -3.1814    2.4816 O   0  0  0  0  0  0  0  0  0  0  0  0
    0.2687   -2.4582    0.3597 C   0  0  1  0  0  0  0  0  0  0  0  0
    1.2233   -1.5411    1.1504 C   0  0  0  0  0  0  0  0  0  0  0  0
    1.9395   -0.2662    0.0541 S   0  0  0  0  0  0  0  0  0  0  0  0
    0.5050    0.8805    0.0829 C   0  0  0  0  0  0  0  0  0  0  0  0
    0.9510   -3.2757   -0.6613 N   0  0  0  0  0  0  0  0  0  0  0  0
    2.3613   -3.5270   -0.7367 C   0  0  0  0  0  0  0  0  0  0  0  0
    2.9775   -3.2026   -1.7898 O   0  0  0  0  0  0  0  0  0  0  0  0
    3.0794   -4.2872    0.3518 C   0  0  1  0  0  0  0  0  0  0  0  0
    3.1915   -5.7738   -0.0208 C   0  0  0  0  0  0  0  0  0  0  0  0
    4.3797   -3.6544    0.6428 N   0  0  0  0  0  0  0  0  0  0  0  0
    5.6730   -4.2162    0.3582 C   0  0  0  0  0  0  0  0  0  0  0  0
    6.5041   -4.3153    1.2935 O   0  0  0  0  0  0  0  0  0  0  0  0
    6.0890   -4.5423   -1.0593 C   0  0  1  0  0  0  0  0  0  0  0  0
    7.0336   -3.4828   -1.6544 C   0  0  0  0  0  0  0  0  0  0  0  0
    6.6137   -5.9126   -1.1474 N   0  0  0  0  0  0  0  0  0  0  0  0
    7.9943   -6.3324   -1.1777 C   0  0  0  0  0  0  0  0  0  0  0  0
    8.3022   -7.3339   -1.8750 O   0  0  0  0  0  0  0  0  0  0  0  0
    9.0831   -5.6421   -0.3840 C   0  0  1  0  0  0  0  0  0  0  0  0
    9.8314   -6.6550    0.4878 C   0  0  0  0  0  0  0  0  0  0  0  0
   10.0195   -4.9682   -1.2888 N   0  0  0  0  0  0  0  0  0  0  0  0
   10.8557   -3.8470   -0.9390 C   0  0  0  0  0  0  0  0  0  0  0  0
   11.6128   -3.3658   -1.8333 O   0  0  0  0  0  0  0  0  0  0  0  0
   10.8951   -3.2352    0.4449 C   0  0  1  0  0  0  0  0  0  0  0  0
   12.3006   -3.3259    1.0493 C   0  0  0  0  0  0  0  0  0  0  0  0
   10.4113   -1.8520    0.4238 N   0  0  0  0  0  0  0  0  0  0  0  0
   11.0339   -0.7999   -0.3268 C   0  0  0  0  0  0  0  0  0  0  0  0
   10.6788   -0.5938   -1.5154 O   0  0  0  0  0  0  0  0  0  0  0  0
   12.0453    0.1113    0.3240 C   0  0  1  0  0  0  0  0  0  0  0  0
   13.3457    0.1479   -0.4803 C   0  0  0  0  0  0  0  0  0  0  0  0
   11.5029    1.4687    0.4420 N   0  0  0  0  0  0  0  0  0  0  0  0
   12.0718    2.3995    1.3815 C   0  0  0  0  0  0  0  0  0  0  0  0
   12.3664    2.0020    2.5376 O   0  0  0  0  0  0  0  0  0  0  0  0
   12.3470    3.8434    1.0138 C   0  0  1  0  0  0  0  0  0  0  0  0
   13.8506    4.1204    1.1269 C   0  0  0  0  0  0  0  0  0  0  0  0
   11.9078    4.1452   -0.3562 N   0  0  0  0  0  0  0  0  0  0  0  0
   10.9673    5.1637   -0.7465 C   0  0  0  0  0  0  0  0  0  0  0  0
   10.5994    5.2040   -1.9493 O   0  0  0  0  0  0  0  0  0  0  0  0
   10.4926    6.2625    0.1894 C   0  0  1  0  0  0  0  0  0  0  0  0
   11.5738    7.3426    0.2910 C   0  0  0  0  0  0  0  0  0  0  0  0
    9.2442    6.8563   -0.3001 N   0  0  0  0  0  0  0  0  0  0  0  0
    7.9559    6.2157   -0.2716 C   0  0  0  0  0  0  0  0  0  0  0  0
    6.9653    6.8422   -0.7526 O   0  0  0  0  0  0  0  0  0  0  0  0
    9.2984    2.6006   -2.6896 H   0  0  0  0  0  0  0  0  0  0  0  0
    7.6488    1.8650   -2.8029 H   0  0  0  0  0  0  0  0  0  0  0  0
    8.1905    3.0793   -4.0261 H   0  0  0  0  0  0  0  0  0  0  0  0
    7.7777    2.7742   -0.2937 H   0  0  0  0  0  0  0  0  0  0  0  0
    8.5923    4.6022    0.9919 H   0  0  0  0  0  0  0  0  0  0  0  0
    6.5208    3.8174    1.8020 H   0  0  0  0  0  0  0  0  0  0  0  0
    6.5302    5.6061    1.9824 H   0  0  0  0  0  0  0  0  0  0  0  0
    4.2477    3.4764    2.1446 H   0  0  0  0  0  0  0  0  0  0  0  0
    3.7109    5.1845    2.3923 H   0  0  0  0  0  0  0  0  0  0  0  0
    2.6520    1.9331    1.4665 H   0  0  0  0  0  0  0  0  0  0  0  0
   -0.7278    3.0701   -0.9318 H   0  0  0  0  0  0  0  0  0  0  0  0
    1.9843    6.0520    0.5301 H   0  0  0  0  0  0  0  0  0  0  0  0
    0.2882    6.4778   -1.3894 H   0  0  0  0  0  0  0  0  0  0  0  0
   -1.0888    5.3443   -1.5383 H   0  0  0  0  0  0  0  0  0  0  0  0
   -2.1360    4.3945    0.6056 H   0  0  0  0  0  0  0  0  0  0  0  0
   -2.6184    5.4207    1.9711 H   0  0  0  0  0  0  0  0  0  0  0  0
   -4.0009    6.8259    0.3813 H   0  0  0  0  0  0  0  0  0  0  0  0
   -3.8165    6.3012   -3.2454 H   0  0  0  0  0  0  0  0  0  0  0  0
   -3.8153    7.5035   -1.9125 H   0  0  0  0  0  0  0  0  0  0  0  0
   -4.6533    4.1235    1.3841 H   0  0  0  0  0  0  0  0  0  0  0  0
   -5.9896    7.0650   -0.4615 H   0  0  0  0  0  0  0  0  0  0  0  0
   -6.7112    5.6654   -2.1265 H   0  0  0  0  0  0  0  0  0  0  0  0
   -8.0249    4.9230   -1.1614 H   0  0  0  0  0  0  0  0  0  0  0  0
   -8.2050    6.6138   -1.7903 H   0  0  0  0  0  0  0  0  0  0  0  0
   -7.2216    8.2114    1.0420 H   0  0  0  0  0  0  0  0  0  0  0  0
   -9.3103    5.1837    0.6041 H   0  0  0  0  0  0  0  0  0  0  0  0
  -11.2005    4.8909    2.0760 H   0  0  0  0  0  0  0  0  0  0  0  0
  -11.5462    6.6657    2.0966 H   0  0  0  0  0  0  0  0  0  0  0  0
  -10.0509    6.0086    2.8822 H   0  0  0  0  0  0  0  0  0  0  0  0
  -10.9687    7.0647   -0.9449 H   0  0  0  0  0  0  0  0  0  0  0  0
  -11.5417    3.5142    0.3064 H   0  0  0  0  0  0  0  0  0  0  0  0
  -14.0175    3.7561    0.5008 H   0  0  0  0  0  0  0  0  0  0  0  0
  -14.0498    4.8665   -0.9088 H   0  0  0  0  0  0  0  0  0  0  0  0
  -13.2483    5.3672    0.6331 H   0  0  0  0  0  0  0  0  0  0  0  0
  -12.8840    3.1306   -2.4086 H   0  0  0  0  0  0  0  0  0  0  0  0
  -10.7488    1.4106    0.2703 H   0  0  0  0  0  0  0  0  0  0  0  0
  -13.6557    0.4822    0.7678 H   0  0  0  0  0  0  0  0  0  0  0  0
  -12.3185    0.3965    1.9806 H   0  0  0  0  0  0  0  0  0  0  0  0
  -12.8726    1.9847    1.3684 H   0  0  0  0  0  0  0  0  0  0  0  0
  -10.2184   -0.7842   -0.0488 H   0  0  0  0  0  0  0  0  0  0  0  0
  -10.7789   -3.0095    0.6003 H   0  0  0  0  0  0  0  0  0  0  0  0
  -12.5666   -4.1363    1.9968 H   0  0  0  0  0  0  0  0  0  0  0  0
  -13.8069   -3.0713    1.2472 H   0  0  0  0  0  0  0  0  0  0  0  0
  -12.4875   -2.3585    2.2605 H   0  0  0  0  0  0  0  0  0  0  0  0
  -13.0468   -4.0667   -1.1552 H   0  0  0  0  0  0  0  0  0  0  0  0
   -9.4592   -4.5253   -0.4171 H   0  0  0  0  0  0  0  0  0  0  0  0
   -8.8897   -5.7279    1.6333 H   0  0  0  0  0  0  0  0  0  0  0  0
  -10.5375   -5.1371    1.8515 H   0  0  0  0  0  0  0  0  0  0  0  0
  -10.2869   -6.8699    1.4312 H   0  0  0  0  0  0  0  0  0  0  0  0
   -9.8343   -7.0564   -1.7604 H   0  0  0  0  0  0  0  0  0  0  0  0
   -7.7108   -7.4255    0.8211 H   0  0  0  0  0  0  0  0  0  0  0  0
   -7.3641   -9.3787   -0.2833 H   0  0  0  0  0  0  0  0  0  0  0  0
   -6.3214   -8.7011   -1.5495 H   0  0  0  0  0  0  0  0  0  0  0  0
   -5.6728   -8.9303    0.1311 H   0  0  0  0  0  0  0  0  0  0  0  0
   -6.0966   -5.9209    1.3381 H   0  0  0  0  0  0  0  0  0  0  0  0
   -4.6870   -7.3267   -1.8424 H   0  0  0  0  0  0  0  0  0  0  0  0
   -4.3105   -5.3876   -3.1688 H   0  0  0  0  0  0  0  0  0  0  0  0
   -2.7939   -6.3571   -3.0894 H   0  0  0  0  0  0  0  0  0  0  0  0
   -2.9446   -4.8381   -2.1239 H   0  0  0  0  0  0  0  0  0  0  0  0
   -2.9624   -8.2596   -0.6693 H   0  0  0  0  0  0  0  0  0  0  0  0
   -3.0251   -5.4674    1.4102 H   0  0  0  0  0  0  0  0  0  0  0  0
   -1.3691   -5.4444    3.1816 H   0  0  0  0  0  0  0  0  0  0  0  0
   -0.0622   -6.0224    2.0661 H   0  0  0  0  0  0  0  0  0  0  0  0
   -1.4399   -7.1002    2.5336 H   0  0  0  0  0  0  0  0  0  0  0  0
   -1.7982   -3.9682   -0.3840 H   0  0  0  0  0  0  0  0  0  0  0  0
   -0.4396   -1.7896   -0.1827 H   0  0  0  0  0  0  0  0  0  0  0  0
    2.0381   -2.1198    1.6218 H   0  0  0  0  0  0  0  0  0  0  0  0
    0.6928   -1.0512    1.9973 H   0  0  0  0  0  0  0  0  0  0  0  0
   -0.0275    0.7441   -0.8847 H   0  0  0  0  0  0  0  0  0  0  0  0
   -0.2290    0.6394    0.8821 H   0  0  0  0  0  0  0  0  0  0  0  0
    0.3815   -3.5666   -1.4931 H   0  0  0  0  0  0  0  0  0  0  0  0
    2.4710   -4.2677    1.2802 H   0  0  0  0  0  0  0  0  0  0  0  0
    3.5396   -5.9165   -1.0647 H   0  0  0  0  0  0  0  0  0  0  0  0
    2.1902   -6.2521    0.0663 H   0  0  0  0  0  0  0  0  0  0  0  0
    3.8811   -6.2971    0.6763 H   0  0  0  0  0  0  0  0  0  0  0  0
    4.3587   -2.8190    1.2761 H   0  0  0  0  0  0  0  0  0  0  0  0
    5.1842   -4.5022   -1.7001 H   0  0  0  0  0  0  0  0  0  0  0  0
    7.8427   -3.2024   -0.9518 H   0  0  0  0  0  0  0  0  0  0  0  0
    7.4726   -3.8543   -2.6033 H   0  0  0  0  0  0  0  0  0  0  0  0
    6.4543   -2.5620   -1.8780 H   0  0  0  0  0  0  0  0  0  0  0  0
    5.9182   -6.6515   -1.3991 H   0  0  0  0  0  0  0  0  0  0  0  0
    8.6086   -4.9070    0.2888 H   0  0  0  0  0  0  0  0  0  0  0  0
   10.6128   -6.1531    1.0896 H   0  0  0  0  0  0  0  0  0  0  0  0
    9.1260   -7.1568    1.1834 H   0  0  0  0  0  0  0  0  0  0  0  0
   10.3239   -7.4261   -0.1423 H   0  0  0  0  0  0  0  0  0  0  0  0
   10.1181   -5.3406   -2.2603 H   0  0  0  0  0  0  0  0  0  0  0  0
   10.2488   -3.8004    1.1376 H   0  0  0  0  0  0  0  0  0  0  0  0
   13.0498   -2.8225    0.4041 H   0  0  0  0  0  0  0  0  0  0  0  0
   12.5919   -4.3929    1.1549 H   0  0  0  0  0  0  0  0  0  0  0  0
   12.3098   -2.8506    2.0573 H   0  0  0  0  0  0  0  0  0  0  0  0
    9.4565   -1.6605    0.8065 H   0  0  0  0  0  0  0  0  0  0  0  0
   12.2785   -0.2880    1.3400 H   0  0  0  0  0  0  0  0  0  0  0  0
   13.1826    0.6231   -1.4731 H   0  0  0  0  0  0  0  0  0  0  0  0
   14.1125    0.7404    0.0678 H   0  0  0  0  0  0  0  0  0  0  0  0
   13.7523   -0.8745   -0.6400 H   0  0  0  0  0  0  0  0  0  0  0  0
   10.9575    1.8443   -0.3708 H   0  0  0  0  0  0  0  0  0  0  0  0
   11.8335    4.4834    1.7576 H   0  0  0  0  0  0  0  0  0  0  0  0
   14.4222    3.4471    0.4498 H   0  0  0  0  0  0  0  0  0  0  0  0
   14.0735    5.1688    0.8503 H   0  0  0  0  0  0  0  0  0  0  0  0
   14.2012    3.9613    2.1698 H   0  0  0  0  0  0  0  0  0  0  0  0
   12.3371    3.5847   -1.1295 H   0  0  0  0  0  0  0  0  0  0  0  0
   10.3205    5.8818    1.2144 H   0  0  0  0  0  0  0  0  0  0  0  0
   12.4984    6.9308    0.7427 H   0  0  0  0  0  0  0  0  0  0  0  0
   11.8130    7.7612   -0.7088 H   0  0  0  0  0  0  0  0  0  0  0  0
   11.2197    8.1716    0.9432 H   0  0  0  0  0  0  0  0  0  0  0  0
    9.2804    7.8050   -0.7479 H   0  0  0  0  0  0  0  0  0  0  0  0
  1  2  1  0
  2  3  2  0
  2  4  1  0
  4  5  1  0
  5  6  1  0
  6  7  1  0
  7  8  1  0
  8  9  1  0
  9 10  1  0
 10 11  2  0
 11 12  1  0
 12 13  2  0
 13 14  1  0
 13 15  1  0
 15 16  1  0
 16 17  1  0
 17 18  1  0
 18 19  1  0
 19 20  1  0
 19 21  2  0
 18 22  1  0
 22 23  1  0
 23 24  2  0
 23 25  1  0
 25 26  1  0
 25 27  1  0
 27 28  1  0
 28 29  2  0
 28 30  1  0
 30 31  1  0
 30 32  1  0
 32 33  1  0
 33 34  2  0
 33 35  1  0
 35 36  1  0
 35 37  1  0
 37 38  1  0
 38 39  2  0
 38 40  1  0
 40 41  1  0
 40 42  1  0
 42 43  1  0
 43 44  2  0
 43 45  1  0
 45 46  1  0
 45 47  1  0
 47 48  1  0
 48 49  2  0
 48 50  1  0
 50 51  1  0
 50 52  1  0
 52 53  1  0
 53 54  2  0
 53 55  1  0
 55 56  1  0
 55 57  1  0
 57 58  1  0
 58 59  2  0
 58 60  1  0
 60 61  1  0
 60 62  1  0
 62 63  1  0
 63 64  2  0
 63 65  1  0
 65 66  1  0
 65 67  1  0
 67 68  1  0
 68 69  2  0
 68 70  1  0
 70 71  1  0
 71 72  1  0
 72 73  1  0
 70 74  1  0
 74 75  1  0
 75 76  2  0
 75 77  1  0
 77 78  1  0
 77 79  1  0
 79 80  1  0
 80 81  2  0
 80 82  1  0
 82 83  1  0
 82 84  1  0
 84 85  1  0
 85 86  2  0
 85 87  1  0
 87 88  1  0
 87 89  1  0
 89 90  1  0
 90 91  2  0
 90 92  1  0
 92 93  1  0
 92 94  1  0
 94 95  1  0
 95 96  2  0
 95 97  1  0
 97 98  1  0
 97 99  1  0
 99100  1  0
100101  2  0
100102  1  0
102103  1  0
102104  1  0
104105  1  0
105106  2  0
105107  1  0
107108  1  0
107109  1  0
109110  1  0
110111  2  0
110  5  1  0
 14  9  2  0
 73 11  1  0
  1112  1  0
  1113  1  0
  1114  1  0
  4115  1  0
  5116  1  1
  6117  1  0
  6118  1  0
  8119  1  0
  8120  1  0
 10121  1  0
 12122  1  0
 14123  1  0
 15124  1  0
 15125  1  0
 17126  1  0
 17127  1  0
 18128  1  6
 20129  1  0
 20130  1  0
 22131  1  0
 25132  1  6
 26133  1  0
 26134  1  0
 26135  1  0
 27136  1  0
 30137  1  6
 31138  1  0
 31139  1  0
 31140  1  0
 32141  1  0
 35142  1  1
 36143  1  0
 36144  1  0
 36145  1  0
 37146  1  0
 40147  1  1
 41148  1  0
 41149  1  0
 41150  1  0
 42151  1  0
 45152  1  1
 46153  1  0
 46154  1  0
 46155  1  0
 47156  1  0
 50157  1  1
 51158  1  0
 51159  1  0
 51160  1  0
 52161  1  0
 55162  1  1
 56163  1  0
 56164  1  0
 56165  1  0
 57166  1  0
 60167  1  6
 61168  1  0
 61169  1  0
 61170  1  0
 62171  1  0
 65172  1  1
 66173  1  0
 66174  1  0
 66175  1  0
 67176  1  0
 70177  1  6
 71178  1  0
 71179  1  0
 73180  1  0
 73181  1  0
 74182  1  0
 77183  1  1
 78184  1  0
 78185  1  0
 78186  1  0
 79187  1  0
 82188  1  6
 83189  1  0
 83190  1  0
 83191  1  0
 84192  1  0
 87193  1  1
 88194  1  0
 88195  1  0
 88196  1  0
 89197  1  0
 92198  1  1
 93199  1  0
 93200  1  0
 93201  1  0
 94202  1  0
 97203  1  1
 98204  1  0
 98205  1  0
 98206  1  0
 99207  1  0
102208  1  1
103209  1  0
103210  1  0
103211  1  0
104212  1  0
107213  1  1
108214  1  0
108215  1  0
108216  1  0
109217  1  0
M  END
