
     RDKit          3D

157159  0  0  0  0  0  0  0  0999 V2000
   -2.0132    8.8743   -0.4094 C   0  0  0  0  0  0  0  0  0  0  0  0
   -2.2382    7.6743   -1.2841 C   0  0  0  0  0  0  0  0  0  0  0  0
   -2.2280    7.8233   -2.5351 O   0  0  0  0  0  0  0  0  0  0  0  0
   -2.4067    6.3546   -0.7385 N   0  0  0  0  0  0  0  0  0  0  0  0
   -2.2783    6.0397    0.6906 C   0  0  2  0  0  0  0  0  0  0  0  0
   -2.0815    4.5194    0.9206 C   0  0  0  0  0  0  0  0  0  0  0  0
   -0.3345    4.0882    1.2345 S   0  0  0  0  0  0  0  0  0  0  0  0
    0.2920    4.4918   -0.4356 C   0  0  0  0  0  0  0  0  0  0  0  0
    1.5440    3.6982   -0.6888 C   0  0  0  0  0  0  0  0  0  0  0  0
    2.7986    4.3207   -0.7102 C   0  0  0  0  0  0  0  0  0  0  0  0
    3.9567    3.5752   -0.9853 C   0  0  0  0  0  0  0  0  0  0  0  0
    3.8466    2.1918   -1.2260 C   0  0  0  0  0  0  0  0  0  0  0  0
    2.5924    1.5546   -1.1958 C   0  0  0  0  0  0  0  0  0  0  0  0
    1.4437    2.3273   -0.9503 C   0  0  0  0  0  0  0  0  0  0  0  0
    2.4806    0.1071   -1.6159 C   0  0  0  0  0  0  0  0  0  0  0  0
    1.0797   -0.7597   -0.8037 S   0  0  0  0  0  0  0  0  0  0  0  0
    1.9396   -1.2189    0.7520 C   0  0  0  0  0  0  0  0  0  0  0  0
    2.1844   -2.7345    0.7791 C   0  0  2  0  0  0  0  0  0  0  0  0
    0.9114   -3.4626    0.8188 N   0  0  0  0  0  0  0  0  0  0  0  0
    0.8111   -4.7727    0.2541 C   0  0  0  0  0  0  0  0  0  0  0  0
    0.9895   -4.9197   -0.9832 O   0  0  0  0  0  0  0  0  0  0  0  0
    0.6831   -5.9733    1.1589 C   0  0  1  0  0  0  0  0  0  0  0  0
   -0.5077   -5.9110    2.1259 C   0  0  0  0  0  0  0  0  0  0  0  0
    0.7121   -7.2373    0.4111 N   0  0  0  0  0  0  0  0  0  0  0  0
   -0.2185   -7.7023   -0.5889 C   0  0  0  0  0  0  0  0  0  0  0  0
    0.0411   -8.7874   -1.1807 O   0  0  0  0  0  0  0  0  0  0  0  0
   -1.5338   -7.0130   -0.9065 C   0  0  1  0  0  0  0  0  0  0  0  0
   -1.7132   -6.9405   -2.4317 C   0  0  0  0  0  0  0  0  0  0  0  0
   -2.6289   -7.7706   -0.2759 N   0  0  0  0  0  0  0  0  0  0  0  0
   -4.0012   -7.3560   -0.1239 C   0  0  0  0  0  0  0  0  0  0  0  0
   -4.7931   -8.1304    0.4824 O   0  0  0  0  0  0  0  0  0  0  0  0
   -4.5589   -6.0921   -0.7382 C   0  0  1  0  0  0  0  0  0  0  0  0
   -5.2824   -6.4477   -2.0415 C   0  0  0  0  0  0  0  0  0  0  0  0
   -5.5030   -5.4341    0.1786 N   0  0  0  0  0  0  0  0  0  0  0  0
   -6.1053   -4.1698   -0.1466 C   0  0  0  0  0  0  0  0  0  0  0  0
   -5.5172   -3.3896   -0.9445 O   0  0  0  0  0  0  0  0  0  0  0  0
   -7.4361   -3.7455    0.4186 C   0  0  1  0  0  0  0  0  0  0  0  0
   -8.3368   -4.9241    0.8021 C   0  0  0  0  0  0  0  0  0  0  0  0
   -7.2380   -2.8793    1.5853 N   0  0  0  0  0  0  0  0  0  0  0  0
   -7.6451   -1.5035    1.6544 C   0  0  0  0  0  0  0  0  0  0  0  0
   -7.9522   -1.0211    2.7827 O   0  0  0  0  0  0  0  0  0  0  0  0
   -7.8000   -0.6451    0.4180 C   0  0  1  0  0  0  0  0  0  0  0  0
   -9.2764   -0.5562    0.0056 C   0  0  0  0  0  0  0  0  0  0  0  0
   -7.2175    0.6839    0.6231 N   0  0  0  0  0  0  0  0  0  0  0  0
   -7.9148    1.7769    1.2255 C   0  0  0  0  0  0  0  0  0  0  0  0
   -8.1061    1.7892    2.4721 O   0  0  0  0  0  0  0  0  0  0  0  0
   -8.3799    2.9211    0.3619 C   0  0  1  0  0  0  0  0  0  0  0  0
   -9.3916    3.8363    1.0660 C   0  0  0  0  0  0  0  0  0  0  0  0
   -7.2392    3.6940   -0.1422 N   0  0  0  0  0  0  0  0  0  0  0  0
   -6.3440    4.4494    0.6957 C   0  0  0  0  0  0  0  0  0  0  0  0
   -6.3662    4.2863    1.9478 O   0  0  0  0  0  0  0  0  0  0  0  0
   -5.3171    5.3797    0.0900 C   0  0  1  0  0  0  0  0  0  0  0  0
   -5.8854    6.1787   -1.0857 C   0  0  0  0  0  0  0  0  0  0  0  0
   -4.8385    6.3234    1.1067 N   0  0  0  0  0  0  0  0  0  0  0  0
   -3.4644    6.5623    1.4738 C   0  0  0  0  0  0  0  0  0  0  0  0
   -3.2313    7.2033    2.5334 O   0  0  0  0  0  0  0  0  0  0  0  0
    3.0058   -3.1111    1.9929 C   0  0  0  0  0  0  0  0  0  0  0  0
    2.4860   -2.9702    3.1346 O   0  0  0  0  0  0  0  0  0  0  0  0
    4.3406   -3.6386    1.9002 N   0  0  0  0  0  0  0  0  0  0  0  0
    5.1794   -3.5916    0.6930 C   0  0  2  0  0  0  0  0  0  0  0  0
    4.9386   -4.8433   -0.1572 C   0  0  0  0  0  0  0  0  0  0  0  0
    6.6419   -3.5339    1.0790 C   0  0  0  0  0  0  0  0  0  0  0  0
    7.0881   -4.3870    1.8953 O   0  0  0  0  0  0  0  0  0  0  0  0
    7.5549   -2.5573    0.5421 N   0  0  0  0  0  0  0  0  0  0  0  0
    7.3433   -1.7903   -0.6871 C   0  0  2  0  0  0  0  0  0  0  0  0
    8.5559   -1.9487   -1.6159 C   0  0  0  0  0  0  0  0  0  0  0  0
    7.0138   -0.3592   -0.3377 C   0  0  0  0  0  0  0  0  0  0  0  0
    5.8815   -0.1136    0.1525 O   0  0  0  0  0  0  0  0  0  0  0  0
    7.9032    0.7379   -0.6000 N   0  0  0  0  0  0  0  0  0  0  0  0
    9.1727    0.9413    0.1107 C   0  0  2  0  0  0  0  0  0  0  0  0
    8.9888    0.8227    1.6282 C   0  0  0  0  0  0  0  0  0  0  0  0
    9.7633    2.2776   -0.2624 C   0  0  0  0  0  0  0  0  0  0  0  0
   10.4965    2.3695   -1.2804 O   0  0  0  0  0  0  0  0  0  0  0  0
    9.4920    3.4463    0.5124 N   0  0  0  0  0  0  0  0  0  0  0  0
    8.4213    4.3751    0.1430 C   0  0  2  0  0  0  0  0  0  0  0  0
    8.8592    5.7943    0.4249 C   0  0  0  0  0  0  0  0  0  0  0  0
    9.0223    6.7286   -0.6429 N   0  0  0  0  0  0  0  0  0  0  0  0
    9.1052    6.1550    1.6067 O   0  0  0  0  0  0  0  0  0  0  0  0
    7.1374    4.0154    0.9152 C   0  0  0  0  0  0  0  0  0  0  0  0
    5.7382    5.1060    0.4633 S   0  0  0  0  0  0  0  0  0  0  0  0
    5.2824    4.2831   -1.1096 C   0  0  0  0  0  0  0  0  0  0  0  0
   -1.9101    9.7920   -1.0297 H   0  0  0  0  0  0  0  0  0  0  0  0
   -1.0874    8.7446    0.1845 H   0  0  0  0  0  0  0  0  0  0  0  0
   -2.8824    9.0105    0.2670 H   0  0  0  0  0  0  0  0  0  0  0  0
   -2.5533    5.5823   -1.4294 H   0  0  0  0  0  0  0  0  0  0  0  0
   -1.3711    6.5494    1.0768 H   0  0  0  0  0  0  0  0  0  0  0  0
   -2.4497    3.9102    0.0699 H   0  0  0  0  0  0  0  0  0  0  0  0
   -2.6515    4.1839    1.8158 H   0  0  0  0  0  0  0  0  0  0  0  0
    0.4941    5.5841   -0.4809 H   0  0  0  0  0  0  0  0  0  0  0  0
   -0.4552    4.2442   -1.2171 H   0  0  0  0  0  0  0  0  0  0  0  0
    2.8732    5.3837   -0.5185 H   0  0  0  0  0  0  0  0  0  0  0  0
    4.7292    1.6232   -1.4848 H   0  0  0  0  0  0  0  0  0  0  0  0
    0.4613    1.8765   -0.9864 H   0  0  0  0  0  0  0  0  0  0  0  0
    2.3173    0.0741   -2.7136 H   0  0  0  0  0  0  0  0  0  0  0  0
    3.4235   -0.4448   -1.4141 H   0  0  0  0  0  0  0  0  0  0  0  0
    1.2927   -0.9226    1.6075 H   0  0  0  0  0  0  0  0  0  0  0  0
    2.9028   -0.6764    0.8560 H   0  0  0  0  0  0  0  0  0  0  0  0
    2.7134   -2.9960   -0.1593 H   0  0  0  0  0  0  0  0  0  0  0  0
    0.1556   -3.1373    1.4729 H   0  0  0  0  0  0  0  0  0  0  0  0
    1.5923   -5.9589    1.8042 H   0  0  0  0  0  0  0  0  0  0  0  0
   -1.4681   -5.7460    1.6079 H   0  0  0  0  0  0  0  0  0  0  0  0
   -0.3616   -5.0850    2.8513 H   0  0  0  0  0  0  0  0  0  0  0  0
   -0.5667   -6.8591    2.7008 H   0  0  0  0  0  0  0  0  0  0  0  0
    1.5323   -7.8597    0.5951 H   0  0  0  0  0  0  0  0  0  0  0  0
   -1.5268   -5.9723   -0.5331 H   0  0  0  0  0  0  0  0  0  0  0  0
   -2.5277   -6.2478   -2.7002 H   0  0  0  0  0  0  0  0  0  0  0  0
   -1.9398   -7.9473   -2.8476 H   0  0  0  0  0  0  0  0  0  0  0  0
   -0.7864   -6.5522   -2.9020 H   0  0  0  0  0  0  0  0  0  0  0  0
   -2.3954   -8.6987    0.1504 H   0  0  0  0  0  0  0  0  0  0  0  0
   -3.7311   -5.3825   -0.9454 H   0  0  0  0  0  0  0  0  0  0  0  0
   -4.6499   -7.0952   -2.6907 H   0  0  0  0  0  0  0  0  0  0  0  0
   -5.5242   -5.5239   -2.6075 H   0  0  0  0  0  0  0  0  0  0  0  0
   -6.2235   -6.9933   -1.8271 H   0  0  0  0  0  0  0  0  0  0  0  0
   -5.8310   -5.9352    1.0309 H   0  0  0  0  0  0  0  0  0  0  0  0
   -7.9842   -3.2088   -0.3856 H   0  0  0  0  0  0  0  0  0  0  0  0
   -7.9610   -5.4311    1.7179 H   0  0  0  0  0  0  0  0  0  0  0  0
   -9.3650   -4.5525    1.0145 H   0  0  0  0  0  0  0  0  0  0  0  0
   -8.4014   -5.6551   -0.0313 H   0  0  0  0  0  0  0  0  0  0  0  0
   -6.8922   -3.3270    2.4690 H   0  0  0  0  0  0  0  0  0  0  0  0
   -7.2403   -1.1125   -0.4207 H   0  0  0  0  0  0  0  0  0  0  0  0
   -9.3741    0.0370   -0.9264 H   0  0  0  0  0  0  0  0  0  0  0  0
   -9.8841   -0.0842    0.8049 H   0  0  0  0  0  0  0  0  0  0  0  0
   -9.6877   -1.5713   -0.1842 H   0  0  0  0  0  0  0  0  0  0  0  0
   -6.1883    0.7975    0.4644 H   0  0  0  0  0  0  0  0  0  0  0  0
   -8.9060    2.4756   -0.5109 H   0  0  0  0  0  0  0  0  0  0  0  0
   -9.7210    4.6349    0.3716 H   0  0  0  0  0  0  0  0  0  0  0  0
  -10.2831    3.2458    1.3709 H   0  0  0  0  0  0  0  0  0  0  0  0
   -8.9532    4.3048    1.9703 H   0  0  0  0  0  0  0  0  0  0  0  0
   -7.0853    3.6890   -1.1737 H   0  0  0  0  0  0  0  0  0  0  0  0
   -4.4921    4.7558   -0.2898 H   0  0  0  0  0  0  0  0  0  0  0  0
   -5.1680    6.9700   -1.3936 H   0  0  0  0  0  0  0  0  0  0  0  0
   -6.8415    6.6633   -0.8010 H   0  0  0  0  0  0  0  0  0  0  0  0
   -6.0409    5.5247   -1.9684 H   0  0  0  0  0  0  0  0  0  0  0  0
   -5.5686    6.8714    1.6250 H   0  0  0  0  0  0  0  0  0  0  0  0
    4.7330   -4.0652    2.7720 H   0  0  0  0  0  0  0  0  0  0  0  0
    4.9101   -2.6894    0.1084 H   0  0  0  0  0  0  0  0  0  0  0  0
    5.5492   -4.7945   -1.0854 H   0  0  0  0  0  0  0  0  0  0  0  0
    5.2213   -5.7552    0.4062 H   0  0  0  0  0  0  0  0  0  0  0  0
    3.8695   -4.9335   -0.4463 H   0  0  0  0  0  0  0  0  0  0  0  0
    8.4668   -2.4412    1.0341 H   0  0  0  0  0  0  0  0  0  0  0  0
    6.4879   -2.1984   -1.2671 H   0  0  0  0  0  0  0  0  0  0  0  0
    8.5557   -2.9751   -2.0428 H   0  0  0  0  0  0  0  0  0  0  0  0
    8.5028   -1.2240   -2.4585 H   0  0  0  0  0  0  0  0  0  0  0  0
    9.5084   -1.8251   -1.0637 H   0  0  0  0  0  0  0  0  0  0  0  0
    7.5042    1.5264   -1.1602 H   0  0  0  0  0  0  0  0  0  0  0  0
    9.8946    0.1613   -0.2010 H   0  0  0  0  0  0  0  0  0  0  0  0
    8.2074    1.5194    1.9932 H   0  0  0  0  0  0  0  0  0  0  0  0
    9.9446    1.0455    2.1497 H   0  0  0  0  0  0  0  0  0  0  0  0
    8.6814   -0.2068    1.8990 H   0  0  0  0  0  0  0  0  0  0  0  0
   10.1844    3.7099    1.2517 H   0  0  0  0  0  0  0  0  0  0  0  0
    8.2253    4.2720   -0.9491 H   0  0  0  0  0  0  0  0  0  0  0  0
    8.8469    6.4480   -1.6336 H   0  0  0  0  0  0  0  0  0  0  0  0
    9.3207    7.7090   -0.4455 H   0  0  0  0  0  0  0  0  0  0  0  0
    7.3225    4.1133    2.0079 H   0  0  0  0  0  0  0  0  0  0  0  0
    6.8472    2.9637    0.7221 H   0  0  0  0  0  0  0  0  0  0  0  0
    6.0731    3.5826   -1.4610 H   0  0  0  0  0  0  0  0  0  0  0  0
    5.1911    5.0709   -1.8914 H   0  0  0  0  0  0  0  0  0  0  0  0
  1  2  1  0
  2  3  2  0
  2  4  1  0
  4  5  1  0
  5  6  1  0
  6  7  1  0
  7  8  1  0
  8  9  1  0
  9 10  1  0
 10 11  2  0
 11 12  1  0
 12 13  2  0
 13 14  1  0
 13 15  1  0
 15 16  1  0
 16 17  1  0
 17 18  1  0
 18 19  1  0
 19 20  1  0
 20 21  2  0
 20 22  1  0
 22 23  1  0
 22 24  1  0
 24 25  1  0
 25 26  2  0
 25 27  1  0
 27 28  1  0
 27 29  1  0
 29 30  1  0
 30 31  2  0
 30 32  1  0
 32 33  1  0
 32 34  1  0
 34 35  1  0
 35 36  2  0
 35 37  1  0
 37 38  1  0
 37 39  1  0
 39 40  1  0
 40 41  2  0
 40 42  1  0
 42 43  1  0
 42 44  1  0
 44 45  1  0
 45 46  2  0
 45 47  1  0
 47 48  1  0
 47 49  1  0
 49 50  1  0
 50 51  2  0
 50 52  1  0
 52 53  1  0
 52 54  1  0
 54 55  1  0
 55 56  2  0
 18 57  1  0
 57 58  2  0
 57 59  1  0
 59 60  1  0
 60 61  1  0
 60 62  1  0
 62 63  2  0
 62 64  1  0
 64 65  1  0
 65 66  1  0
 65 67  1  0
 67 68  2  0
 67 69  1  0
 69 70  1  0
 70 71  1  0
 70 72  1  0
 72 73  2  0
 72 74  1  0
 74 75  1  0
 75 76  1  0
 76 77  1  0
 76 78  2  0
 75 79  1  0
 79 80  1  0
 80 81  1  0
 55  5  1  0
 14  9  2  0
 81 11  1  0
  1 82  1  0
  1 83  1  0
  1 84  1  0
  4 85  1  0
  5 86  1  1
  6 87  1  0
  6 88  1  0
  8 89  1  0
  8 90  1  0
 10 91  1  0
 12 92  1  0
 14 93  1  0
 15 94  1  0
 15 95  1  0
 17 96  1  0
 17 97  1  0
 18 98  1  6
 19 99  1  0
 22100  1  1
 23101  1  0
 23102  1  0
 23103  1  0
 24104  1  0
 27105  1  1
 28106  1  0
 28107  1  0
 28108  1  0
 29109  1  0
 32110  1  6
 33111  1  0
 33112  1  0
 33113  1  0
 34114  1  0
 37115  1  6
 38116  1  0
 38117  1  0
 38118  1  0
 39119  1  0
 42120  1  6
 43121  1  0
 43122  1  0
 43123  1  0
 44124  1  0
 47125  1  6
 48126  1  0
 48127  1  0
 48128  1  0
 49129  1  0
 52130  1  6
 53131  1  0
 53132  1  0
 53133  1  0
 54134  1  0
 59135  1  0
 60136  1  6
 61137  1  0
 61138  1  0
 61139  1  0
 64140  1  0
 65141  1  6
 66142  1  0
 66143  1  0
 66144  1  0
 69145  1  0
 70146  1  6
 71147  1  0
 71148  1  0
 71149  1  0
 74150  1  0
 75151  1  6
 77152  1  0
 77153  1  0
 79154  1  0
 79155  1  0
 81156  1  0
 81157  1  0
M  END
