
     RDKit          3D

227229  0  0  0  0  0  0  0  0999 V2000
   -7.0431   -8.7632   -0.0417 C   0  0  0  0  0  0  0  0  0  0  0  0
   -7.2919   -7.5118   -0.8242 C   0  0  0  0  0  0  0  0  0  0  0  0
   -7.4145   -7.5888   -2.0753 O   0  0  0  0  0  0  0  0  0  0  0  0
   -7.4053   -6.2275   -0.1940 N   0  0  0  0  0  0  0  0  0  0  0  0
   -7.2406   -5.9895    1.2443 C   0  0  1  0  0  0  0  0  0  0  0  0
   -5.7650   -5.7031    1.5774 C   0  0  0  0  0  0  0  0  0  0  0  0
   -5.0644   -4.3855    0.5087 S   0  0  0  0  0  0  0  0  0  0  0  0
   -3.6862   -3.9599    1.6220 C   0  0  0  0  0  0  0  0  0  0  0  0
   -2.5474   -3.3899    0.8336 C   0  0  0  0  0  0  0  0  0  0  0  0
   -1.6549   -4.2621    0.1934 C   0  0  0  0  0  0  0  0  0  0  0  0
   -0.4744   -3.7825   -0.4035 C   0  0  0  0  0  0  0  0  0  0  0  0
   -0.2609   -2.3944   -0.4582 C   0  0  0  0  0  0  0  0  0  0  0  0
   -1.1754   -1.5038    0.1312 C   0  0  0  0  0  0  0  0  0  0  0  0
   -2.3142   -2.0090    0.7860 C   0  0  0  0  0  0  0  0  0  0  0  0
   -0.9897   -0.0205   -0.0116 C   0  0  0  0  0  0  0  0  0  0  0  0
   -2.0082    0.5698   -1.4190 S   0  0  0  0  0  0  0  0  0  0  0  0
   -1.1311    2.1519   -1.7398 C   0  0  0  0  0  0  0  0  0  0  0  0
   -1.8577    3.3917   -1.1674 C   0  0  1  0  0  0  0  0  0  0  0  0
   -3.3022    3.3304   -1.4536 N   0  0  0  0  0  0  0  0  0  0  0  0
   -4.2939    3.9512   -0.6206 C   0  0  0  0  0  0  0  0  0  0  0  0
   -4.7873    3.3044    0.3399 O   0  0  0  0  0  0  0  0  0  0  0  0
   -4.8092    5.3396   -0.9098 C   0  0  1  0  0  0  0  0  0  0  0  0
   -3.7409    6.2236   -1.5643 C   0  0  0  0  0  0  0  0  0  0  0  0
   -5.9874    5.2591   -1.7806 N   0  0  0  0  0  0  0  0  0  0  0  0
   -7.2373    5.9461   -1.5677 C   0  0  0  0  0  0  0  0  0  0  0  0
   -8.0683    5.9928   -2.5184 O   0  0  0  0  0  0  0  0  0  0  0  0
   -7.5730    6.6540   -0.2710 C   0  0  1  0  0  0  0  0  0  0  0  0
   -6.9162    8.0395   -0.2274 C   0  0  0  0  0  0  0  0  0  0  0  0
   -9.0261    6.8170   -0.1342 N   0  0  0  0  0  0  0  0  0  0  0  0
   -9.7731    6.2995    0.9734 C   0  0  0  0  0  0  0  0  0  0  0  0
  -10.5864    7.0563    1.5702 O   0  0  0  0  0  0  0  0  0  0  0  0
   -9.6580    4.8540    1.3988 C   0  0  1  0  0  0  0  0  0  0  0  0
   -8.8063    4.7205    2.6660 C   0  0  0  0  0  0  0  0  0  0  0  0
  -11.0002    4.3161    1.6708 N   0  0  0  0  0  0  0  0  0  0  0  0
  -11.8439    3.5681    0.7731 C   0  0  0  0  0  0  0  0  0  0  0  0
  -13.0548    3.4161    1.1000 O   0  0  0  0  0  0  0  0  0  0  0  0
  -11.3950    2.9776   -0.5464 C   0  0  1  0  0  0  0  0  0  0  0  0
  -11.2005    4.0632   -1.6058 C   0  0  0  0  0  0  0  0  0  0  0  0
  -10.1904    2.1511   -0.3958 N   0  0  0  0  0  0  0  0  0  0  0  0
  -10.1508    0.8892    0.2927 C   0  0  0  0  0  0  0  0  0  0  0  0
   -9.1364    0.6241    0.9976 O   0  0  0  0  0  0  0  0  0  0  0  0
  -11.2281   -0.1715    0.1585 C   0  0  1  0  0  0  0  0  0  0  0  0
  -12.4231    0.1325    1.0683 C   0  0  0  0  0  0  0  0  0  0  0  0
  -11.6590   -0.3299   -1.2326 N   0  0  0  0  0  0  0  0  0  0  0  0
  -12.3738   -1.4767   -1.7375 C   0  0  0  0  0  0  0  0  0  0  0  0
  -12.8983   -1.4011   -2.8882 O   0  0  0  0  0  0  0  0  0  0  0  0
  -12.3669   -2.8076   -1.0166 C   0  0  1  0  0  0  0  0  0  0  0  0
  -13.5683   -3.6733   -1.4057 C   0  0  0  0  0  0  0  0  0  0  0  0
  -11.1258   -3.5117   -1.3342 N   0  0  0  0  0  0  0  0  0  0  0  0
  -10.1809   -3.8801   -0.3288 C   0  0  0  0  0  0  0  0  0  0  0  0
   -9.0249   -3.3865   -0.3874 O   0  0  0  0  0  0  0  0  0  0  0  0
  -10.5641   -4.9070    0.7256 C   0  0  1  0  0  0  0  0  0  0  0  0
  -10.8958   -6.2510    0.0696 C   0  0  0  0  0  0  0  0  0  0  0  0
   -9.5760   -5.1142    1.8014 N   0  0  0  0  0  0  0  0  0  0  0  0
   -8.1670   -4.8786    1.7033 C   0  0  0  0  0  0  0  0  0  0  0  0
   -7.7077   -3.7696    2.0906 O   0  0  0  0  0  0  0  0  0  0  0  0
   -1.5492    3.5703    0.3052 C   0  0  0  0  0  0  0  0  0  0  0  0
   -2.1497    2.8610    1.1554 O   0  0  0  0  0  0  0  0  0  0  0  0
   -0.6120    4.5557    0.7638 N   0  0  0  0  0  0  0  0  0  0  0  0
    0.6797    4.7996    0.1047 C   0  0  2  0  0  0  0  0  0  0  0  0
    1.7404    3.8570    0.6742 C   0  0  0  0  0  0  0  0  0  0  0  0
    1.1238    6.2334    0.2777 C   0  0  0  0  0  0  0  0  0  0  0  0
    0.7071    6.9156    1.2554 O   0  0  0  0  0  0  0  0  0  0  0  0
    2.0674    6.8014   -0.6476 N   0  0  0  0  0  0  0  0  0  0  0  0
    2.8422    8.0155   -0.3428 C   0  0  2  0  0  0  0  0  0  0  0  0
    1.9608    9.2657   -0.5018 C   0  0  0  0  0  0  0  0  0  0  0  0
    4.0581    8.0856   -1.2464 C   0  0  0  0  0  0  0  0  0  0  0  0
    4.0317    8.8218   -2.2749 O   0  0  0  0  0  0  0  0  0  0  0  0
    5.2106    7.2546   -1.0346 N   0  0  0  0  0  0  0  0  0  0  0  0
    5.5527    6.6080    0.2361 C   0  0  2  0  0  0  0  0  0  0  0  0
    6.0993    7.6475    1.2284 C   0  0  0  0  0  0  0  0  0  0  0  0
    6.5071    5.4573   -0.0087 C   0  0  0  0  0  0  0  0  0  0  0  0
    6.0474    4.4089   -0.5360 O   0  0  0  0  0  0  0  0  0  0  0  0
    7.8887    5.4793    0.3945 N   0  0  0  0  0  0  0  0  0  0  0  0
    8.9095    6.3219   -0.2440 C   0  0  2  0  0  0  0  0  0  0  0  0
    8.8202    6.3018   -1.7754 C   0  0  0  0  0  0  0  0  0  0  0  0
   10.3004    5.9674    0.2675 C   0  0  0  0  0  0  0  0  0  0  0  0
   10.9344    6.8527    0.9014 O   0  0  0  0  0  0  0  0  0  0  0  0
   10.9069    4.6614    0.1403 N   0  0  0  0  0  0  0  0  0  0  0  0
   10.6952    3.7155   -0.9676 C   0  0  2  0  0  0  0  0  0  0  0  0
    9.5164    2.7816   -0.6778 C   0  0  0  0  0  0  0  0  0  0  0  0
   11.9576    2.9228   -1.2368 C   0  0  0  0  0  0  0  0  0  0  0  0
   12.4227    2.8934   -2.4067 O   0  0  0  0  0  0  0  0  0  0  0  0
   12.7147    2.3087   -0.1817 N   0  0  0  0  0  0  0  0  0  0  0  0
   12.2168    1.2132    0.6572 C   0  0  2  0  0  0  0  0  0  0  0  0
   12.0052    1.7342    2.0811 C   0  0  0  0  0  0  0  0  0  0  0  0
   13.2044    0.0657    0.6676 C   0  0  0  0  0  0  0  0  0  0  0  0
   14.3492    0.2209    0.1563 O   0  0  0  0  0  0  0  0  0  0  0  0
   12.9083   -1.1772    1.3195 N   0  0  0  0  0  0  0  0  0  0  0  0
   11.7127   -1.9805    1.0341 C   0  0  2  0  0  0  0  0  0  0  0  0
   10.5906   -1.6478    2.0198 C   0  0  0  0  0  0  0  0  0  0  0  0
   12.0702   -3.4504    1.1303 C   0  0  0  0  0  0  0  0  0  0  0  0
   12.3634   -3.9206    2.2614 O   0  0  0  0  0  0  0  0  0  0  0  0
   12.2010   -4.3146   -0.0164 N   0  0  0  0  0  0  0  0  0  0  0  0
   11.4268   -4.2587   -1.2664 C   0  0  2  0  0  0  0  0  0  0  0  0
   12.0418   -3.2731   -2.2736 C   0  0  0  0  0  0  0  0  0  0  0  0
    9.9578   -4.0381   -0.9968 C   0  0  0  0  0  0  0  0  0  0  0  0
    9.3206   -3.1346   -1.5988 O   0  0  0  0  0  0  0  0  0  0  0  0
    9.2878   -4.8185    0.0059 N   0  0  0  0  0  0  0  0  0  0  0  0
    8.6692   -6.1267   -0.2362 C   0  0  2  0  0  0  0  0  0  0  0  0
    9.5018   -7.0354   -1.1429 C   0  0  0  0  0  0  0  0  0  0  0  0
    7.2790   -5.9414   -0.7840 C   0  0  0  0  0  0  0  0  0  0  0  0
    7.1205   -5.4969   -1.9514 O   0  0  0  0  0  0  0  0  0  0  0  0
    6.1327   -6.1332    0.0493 N   0  0  0  0  0  0  0  0  0  0  0  0
    5.5577   -7.4459    0.3916 C   0  0  2  0  0  0  0  0  0  0  0  0
    6.4972   -8.2721    1.2682 C   0  0  0  0  0  0  0  0  0  0  0  0
    5.1684   -8.2212   -0.8520 C   0  0  0  0  0  0  0  0  0  0  0  0
    6.0786   -8.5360   -1.6696 O   0  0  0  0  0  0  0  0  0  0  0  0
    3.8322   -8.6940   -1.1068 N   0  0  0  0  0  0  0  0  0  0  0  0
    2.5963   -8.2623   -0.4406 C   0  0  1  0  0  0  0  0  0  0  0  0
    2.5898   -8.6975    1.0106 C   0  0  0  0  0  0  0  0  0  0  0  0
    2.7775  -10.0702    1.3456 N   0  0  0  0  0  0  0  0  0  0  0  0
    2.4083   -7.8623    1.9387 O   0  0  0  0  0  0  0  0  0  0  0  0
    2.3310   -6.7616   -0.6864 C   0  0  0  0  0  0  0  0  0  0  0  0
    0.6838   -6.2829   -0.0609 S   0  0  0  0  0  0  0  0  0  0  0  0
    0.5316   -4.7247   -1.0162 C   0  0  0  0  0  0  0  0  0  0  0  0
   -6.0739   -8.6954    0.4905 H   0  0  0  0  0  0  0  0  0  0  0  0
   -7.0093   -9.6413   -0.7248 H   0  0  0  0  0  0  0  0  0  0  0  0
   -7.8638   -8.9279    0.6861 H   0  0  0  0  0  0  0  0  0  0  0  0
   -7.5073   -5.3999   -0.8235 H   0  0  0  0  0  0  0  0  0  0  0  0
   -7.5454   -6.8894    1.8169 H   0  0  0  0  0  0  0  0  0  0  0  0
   -5.6790   -5.4194    2.6472 H   0  0  0  0  0  0  0  0  0  0  0  0
   -5.1652   -6.6252    1.4339 H   0  0  0  0  0  0  0  0  0  0  0  0
   -4.0491   -3.2360    2.3821 H   0  0  0  0  0  0  0  0  0  0  0  0
   -3.3268   -4.8626    2.1650 H   0  0  0  0  0  0  0  0  0  0  0  0
   -1.8563   -5.3233    0.2073 H   0  0  0  0  0  0  0  0  0  0  0  0
    0.6211   -2.0061   -0.9551 H   0  0  0  0  0  0  0  0  0  0  0  0
   -3.0131   -1.3249    1.2507 H   0  0  0  0  0  0  0  0  0  0  0  0
    0.0864    0.2108   -0.1767 H   0  0  0  0  0  0  0  0  0  0  0  0
   -1.3110    0.4965    0.9195 H   0  0  0  0  0  0  0  0  0  0  0  0
   -0.0756    2.1222   -1.3927 H   0  0  0  0  0  0  0  0  0  0  0  0
   -1.0851    2.2644   -2.8454 H   0  0  0  0  0  0  0  0  0  0  0  0
   -1.4647    4.2740   -1.7100 H   0  0  0  0  0  0  0  0  0  0  0  0
   -3.5693    3.2122   -2.4553 H   0  0  0  0  0  0  0  0  0  0  0  0
   -5.0605    5.8044    0.0597 H   0  0  0  0  0  0  0  0  0  0  0  0
   -3.4354    5.8084   -2.5467 H   0  0  0  0  0  0  0  0  0  0  0  0
   -2.8525    6.3023   -0.9039 H   0  0  0  0  0  0  0  0  0  0  0  0
   -4.1443    7.2461   -1.7272 H   0  0  0  0  0  0  0  0  0  0  0  0
   -5.8760    4.7583   -2.6907 H   0  0  0  0  0  0  0  0  0  0  0  0
   -7.1887    6.0529    0.5739 H   0  0  0  0  0  0  0  0  0  0  0  0
   -5.8121    7.9670   -0.1791 H   0  0  0  0  0  0  0  0  0  0  0  0
   -7.2557    8.5851    0.6790 H   0  0  0  0  0  0  0  0  0  0  0  0
   -7.1987    8.6344   -1.1244 H   0  0  0  0  0  0  0  0  0  0  0  0
   -9.4981    7.5274   -0.7355 H   0  0  0  0  0  0  0  0  0  0  0  0
   -9.1623    4.2834    0.5988 H   0  0  0  0  0  0  0  0  0  0  0  0
   -9.2672    5.2786    3.5095 H   0  0  0  0  0  0  0  0  0  0  0  0
   -7.7794    5.1030    2.5043 H   0  0  0  0  0  0  0  0  0  0  0  0
   -8.7308    3.6464    2.9509 H   0  0  0  0  0  0  0  0  0  0  0  0
  -11.4572    4.6479    2.5551 H   0  0  0  0  0  0  0  0  0  0  0  0
  -12.2146    2.3371   -0.9354 H   0  0  0  0  0  0  0  0  0  0  0  0
  -10.3726    4.7499   -1.3443 H   0  0  0  0  0  0  0  0  0  0  0  0
  -10.9653    3.5947   -2.5838 H   0  0  0  0  0  0  0  0  0  0  0  0
  -12.1334    4.6552   -1.7194 H   0  0  0  0  0  0  0  0  0  0  0  0
   -9.2819    2.5118   -0.7618 H   0  0  0  0  0  0  0  0  0  0  0  0
  -10.7754   -1.1272    0.5066 H   0  0  0  0  0  0  0  0  0  0  0  0
  -12.0801    0.4954    2.0601 H   0  0  0  0  0  0  0  0  0  0  0  0
  -13.0302   -0.7808    1.2348 H   0  0  0  0  0  0  0  0  0  0  0  0
  -13.0899    0.8895    0.6087 H   0  0  0  0  0  0  0  0  0  0  0  0
  -11.4457    0.4188   -1.9334 H   0  0  0  0  0  0  0  0  0  0  0  0
  -12.4411   -2.6422    0.0784 H   0  0  0  0  0  0  0  0  0  0  0  0
  -14.5154   -3.1158   -1.2401 H   0  0  0  0  0  0  0  0  0  0  0  0
  -13.5982   -4.5847   -0.7745 H   0  0  0  0  0  0  0  0  0  0  0  0
  -13.5063   -3.9807   -2.4744 H   0  0  0  0  0  0  0  0  0  0  0  0
  -10.8178   -3.5569   -2.3326 H   0  0  0  0  0  0  0  0  0  0  0  0
  -11.4936   -4.5441    1.2153 H   0  0  0  0  0  0  0  0  0  0  0  0
  -11.7198   -6.1377   -0.6636 H   0  0  0  0  0  0  0  0  0  0  0  0
  -11.2148   -6.9811    0.8395 H   0  0  0  0  0  0  0  0  0  0  0  0
  -10.0084   -6.6529   -0.4565 H   0  0  0  0  0  0  0  0  0  0  0  0
   -9.8804   -5.6893    2.6150 H   0  0  0  0  0  0  0  0  0  0  0  0
   -0.6860    4.8292    1.7740 H   0  0  0  0  0  0  0  0  0  0  0  0
    0.5983    4.6002   -0.9848 H   0  0  0  0  0  0  0  0  0  0  0  0
    1.9059    4.0589    1.7538 H   0  0  0  0  0  0  0  0  0  0  0  0
    2.7026    3.9932    0.1325 H   0  0  0  0  0  0  0  0  0  0  0  0
    1.4145    2.8019    0.5518 H   0  0  0  0  0  0  0  0  0  0  0  0
    2.3136    6.2481   -1.4982 H   0  0  0  0  0  0  0  0  0  0  0  0
    3.1780    7.9848    0.7144 H   0  0  0  0  0  0  0  0  0  0  0  0
    1.1032    9.2347    0.2029 H   0  0  0  0  0  0  0  0  0  0  0  0
    1.5638    9.3378   -1.5371 H   0  0  0  0  0  0  0  0  0  0  0  0
    2.5616   10.1761   -0.2744 H   0  0  0  0  0  0  0  0  0  0  0  0
    5.8354    7.1103   -1.8594 H   0  0  0  0  0  0  0  0  0  0  0  0
    4.6396    6.1627    0.6830 H   0  0  0  0  0  0  0  0  0  0  0  0
    5.2799    8.2960    1.5968 H   0  0  0  0  0  0  0  0  0  0  0  0
    6.8436    8.3065    0.7420 H   0  0  0  0  0  0  0  0  0  0  0  0
    6.5562    7.1481    2.1102 H   0  0  0  0  0  0  0  0  0  0  0  0
    8.1915    4.7235    1.0498 H   0  0  0  0  0  0  0  0  0  0  0  0
    8.7277    7.3723    0.0620 H   0  0  0  0  0  0  0  0  0  0  0  0
    8.0746    7.0462   -2.1164 H   0  0  0  0  0  0  0  0  0  0  0  0
    9.7885    6.5834   -2.2396 H   0  0  0  0  0  0  0  0  0  0  0  0
    8.4967    5.3111   -2.1525 H   0  0  0  0  0  0  0  0  0  0  0  0
   11.7368    4.5113    0.7524 H   0  0  0  0  0  0  0  0  0  0  0  0
   10.4860    4.2688   -1.9011 H   0  0  0  0  0  0  0  0  0  0  0  0
    9.5097    2.4542    0.3822 H   0  0  0  0  0  0  0  0  0  0  0  0
    9.5528    1.8870   -1.3361 H   0  0  0  0  0  0  0  0  0  0  0  0
    8.5614    3.2968   -0.8898 H   0  0  0  0  0  0  0  0  0  0  0  0
   13.6855    2.6576   -0.0308 H   0  0  0  0  0  0  0  0  0  0  0  0
   11.2549    0.8337    0.2495 H   0  0  0  0  0  0  0  0  0  0  0  0
   12.9363    2.2119    2.4569 H   0  0  0  0  0  0  0  0  0  0  0  0
   11.7336    0.9116    2.7751 H   0  0  0  0  0  0  0  0  0  0  0  0
   11.1932    2.4879    2.1000 H   0  0  0  0  0  0  0  0  0  0  0  0
   13.7219   -1.6508    1.7828 H   0  0  0  0  0  0  0  0  0  0  0  0
   11.3423   -1.7400    0.0226 H   0  0  0  0  0  0  0  0  0  0  0  0
   10.1860   -0.6349    1.8247 H   0  0  0  0  0  0  0  0  0  0  0  0
    9.7509   -2.3649    1.9104 H   0  0  0  0  0  0  0  0  0  0  0  0
   10.9662   -1.6920    3.0657 H   0  0  0  0  0  0  0  0  0  0  0  0
   12.7529   -5.1868    0.1342 H   0  0  0  0  0  0  0  0  0  0  0  0
   11.5144   -5.2538   -1.7497 H   0  0  0  0  0  0  0  0  0  0  0  0
   11.5642   -3.4094   -3.2657 H   0  0  0  0  0  0  0  0  0  0  0  0
   13.1261   -3.4861   -2.3859 H   0  0  0  0  0  0  0  0  0  0  0  0
   11.9176   -2.2158   -1.9798 H   0  0  0  0  0  0  0  0  0  0  0  0
    8.9109   -4.2837    0.8192 H   0  0  0  0  0  0  0  0  0  0  0  0
    8.6005   -6.6322    0.7481 H   0  0  0  0  0  0  0  0  0  0  0  0
    9.5916   -6.6061   -2.1639 H   0  0  0  0  0  0  0  0  0  0  0  0
    9.0181   -8.0332   -1.2276 H   0  0  0  0  0  0  0  0  0  0  0  0
   10.5147   -7.1786   -0.7095 H   0  0  0  0  0  0  0  0  0  0  0  0
    5.5826   -5.2868    0.3070 H   0  0  0  0  0  0  0  0  0  0  0  0
    4.6706   -7.2471    1.0119 H   0  0  0  0  0  0  0  0  0  0  0  0
    6.8347   -7.6705    2.1344 H   0  0  0  0  0  0  0  0  0  0  0  0
    5.9585   -9.1676    1.6503 H   0  0  0  0  0  0  0  0  0  0  0  0
    7.3819   -8.6199    0.6966 H   0  0  0  0  0  0  0  0  0  0  0  0
    3.7206   -9.3631   -1.9059 H   0  0  0  0  0  0  0  0  0  0  0  0
    1.7499   -8.8083   -0.9200 H   0  0  0  0  0  0  0  0  0  0  0  0
    2.8363  -10.3651    2.3414 H   0  0  0  0  0  0  0  0  0  0  0  0
    2.8408  -10.7964    0.5960 H   0  0  0  0  0  0  0  0  0  0  0  0
    3.0997   -6.1258   -0.2029 H   0  0  0  0  0  0  0  0  0  0  0  0
    2.3713   -6.5739   -1.7829 H   0  0  0  0  0  0  0  0  0  0  0  0
    0.2236   -4.9678   -2.0553 H   0  0  0  0  0  0  0  0  0  0  0  0
    1.5289   -4.2289   -1.0675 H   0  0  0  0  0  0  0  0  0  0  0  0
  1  2  1  0
  2  3  2  0
  2  4  1  0
  4  5  1  0
  5  6  1  0
  6  7  1  0
  7  8  1  0
  8  9  1  0
  9 10  1  0
 10 11  2  0
 11 12  1  0
 12 13  2  0
 13 14  1  0
 13 15  1  0
 15 16  1  0
 16 17  1  0
 17 18  1  0
 18 19  1  0
 19 20  1  0
 20 21  2  0
 20 22  1  0
 22 23  1  0
 22 24  1  0
 24 25  1  0
 25 26  2  0
 25 27  1  0
 27 28  1  0
 27 29  1  0
 29 30  1  0
 30 31  2  0
 30 32  1  0
 32 33  1  0
 32 34  1  0
 34 35  1  0
 35 36  2  0
 35 37  1  0
 37 38  1  0
 37 39  1  0
 39 40  1  0
 40 41  2  0
 40 42  1  0
 42 43  1  0
 42 44  1  0
 44 45  1  0
 45 46  2  0
 45 47  1  0
 47 48  1  0
 47 49  1  0
 49 50  1  0
 50 51  2  0
 50 52  1  0
 52 53  1  0
 52 54  1  0
 54 55  1  0
 55 56  2  0
 18 57  1  0
 57 58  2  0
 57 59  1  0
 59 60  1  0
 60 61  1  0
 60 62  1  0
 62 63  2  0
 62 64  1  0
 64 65  1  0
 65 66  1  0
 65 67  1  0
 67 68  2  0
 67 69  1  0
 69 70  1  0
 70 71  1  0
 70 72  1  0
 72 73  2  0
 72 74  1  0
 74 75  1  0
 75 76  1  0
 75 77  1  0
 77 78  2  0
 77 79  1  0
 79 80  1  0
 80 81  1  0
 80 82  1  0
 82 83  2  0
 82 84  1  0
 84 85  1  0
 85 86  1  0
 85 87  1  0
 87 88  2  0
 87 89  1  0
 89 90  1  0
 90 91  1  0
 90 92  1  0
 92 93  2  0
 92 94  1  0
 94 95  1  0
 95 96  1  0
 95 97  1  0
 97 98  2  0
 97 99  1  0
 99100  1  0
100101  1  0
100102  1  0
102103  2  0
102104  1  0
104105  1  0
105106  1  0
105107  1  0
107108  2  0
107109  1  0
109110  1  0
110111  1  0
111112  1  0
111113  2  0
110114  1  0
114115  1  0
115116  1  0
 55  5  1  0
 14  9  2  0
116 11  1  0
  1117  1  0
  1118  1  0
  1119  1  0
  4120  1  0
  5121  1  1
  6122  1  0
  6123  1  0
  8124  1  0
  8125  1  0
 10126  1  0
 12127  1  0
 14128  1  0
 15129  1  0
 15130  1  0
 17131  1  0
 17132  1  0
 18133  1  6
 19134  1  0
 22135  1  1
 23136  1  0
 23137  1  0
 23138  1  0
 24139  1  0
 27140  1  1
 28141  1  0
 28142  1  0
 28143  1  0
 29144  1  0
 32145  1  6
 33146  1  0
 33147  1  0
 33148  1  0
 34149  1  0
 37150  1  6
 38151  1  0
 38152  1  0
 38153  1  0
 39154  1  0
 42155  1  1
 43156  1  0
 43157  1  0
 43158  1  0
 44159  1  0
 47160  1  1
 48161  1  0
 48162  1  0
 48163  1  0
 49164  1  0
 52165  1  1
 53166  1  0
 53167  1  0
 53168  1  0
 54169  1  0
 59170  1  0
 60171  1  6
 61172  1  0
 61173  1  0
 61174  1  0
 64175  1  0
 65176  1  1
 66177  1  0
 66178  1  0
 66179  1  0
 69180  1  0
 70181  1  1
 71182  1  0
 71183  1  0
 71184  1  0
 74185  1  0
 75186  1  1
 76187  1  0
 76188  1  0
 76189  1  0
 79190  1  0
 80191  1  6
 81192  1  0
 81193  1  0
 81194  1  0
 84195  1  0
 85196  1  6
 86197  1  0
 86198  1  0
 86199  1  0
 89200  1  0
 90201  1  6
 91202  1  0
 91203  1  0
 91204  1  0
 94205  1  0
 95206  1  6
 96207  1  0
 96208  1  0
 96209  1  0
 99210  1  0
100211  1  1
101212  1  0
101213  1  0
101214  1  0
104215  1  0
105216  1  1
106217  1  0
106218  1  0
106219  1  0
109220  1  0
110221  1  6
112222  1  0
112223  1  0
114224  1  0
114225  1  0
116226  1  0
116227  1  0
M  END
