
     RDKit          3D

117119  0  0  0  0  0  0  0  0999 V2000
   -9.8267    1.6326   -0.1152 C   0  0  0  0  0  0  0  0  0  0  0  0
   -8.5919    1.8323   -0.9305 C   0  0  0  0  0  0  0  0  0  0  0  0
   -8.6968    2.1117   -2.1590 O   0  0  0  0  0  0  0  0  0  0  0  0
   -7.2920    1.6846   -0.3362 N   0  0  0  0  0  0  0  0  0  0  0  0
   -6.0500    1.8380   -1.1059 C   0  0  1  0  0  0  0  0  0  0  0  0
   -4.9189    2.3233   -0.1893 C   0  0  0  0  0  0  0  0  0  0  0  0
   -5.2942    3.9903    0.4862 S   0  0  0  0  0  0  0  0  0  0  0  0
   -4.4343    3.7704    2.0936 C   0  0  0  0  0  0  0  0  0  0  0  0
   -2.9431    3.6545    1.8938 C   0  0  0  0  0  0  0  0  0  0  0  0
   -2.1791    4.7943    1.5871 C   0  0  0  0  0  0  0  0  0  0  0  0
   -0.7890    4.6993    1.4598 C   0  0  0  0  0  0  0  0  0  0  0  0
   -0.1697    3.4446    1.5782 C   0  0  0  0  0  0  0  0  0  0  0  0
   -0.9261    2.2896    1.8467 C   0  0  0  0  0  0  0  0  0  0  0  0
   -2.3047    2.4147    2.0565 C   0  0  0  0  0  0  0  0  0  0  0  0
   -0.2001    0.9631    1.9599 C   0  0  0  0  0  0  0  0  0  0  0  0
   -1.2419   -0.5262    1.7285 S   0  0  0  0  0  0  0  0  0  0  0  0
   -1.6440   -0.2193   -0.0373 C   0  0  0  0  0  0  0  0  0  0  0  0
   -2.2814   -1.4474   -0.7168 C   0  0  2  0  0  0  0  0  0  0  0  0
   -3.2642   -2.0921    0.1664 N   0  0  0  0  0  0  0  0  0  0  0  0
   -4.6614   -1.7951    0.1108 C   0  0  0  0  0  0  0  0  0  0  0  0
   -5.2704   -1.5178    1.1801 O   0  0  0  0  0  0  0  0  0  0  0  0
   -5.4323   -1.9128   -1.1767 C   0  0  1  0  0  0  0  0  0  0  0  0
   -6.3232   -3.1534   -1.1317 C   0  0  0  0  0  0  0  0  0  0  0  0
   -6.2413   -0.7081   -1.3695 N   0  0  0  0  0  0  0  0  0  0  0  0
   -5.6485    0.5361   -1.7538 C   0  0  0  0  0  0  0  0  0  0  0  0
   -4.7331    0.5558   -2.6289 O   0  0  0  0  0  0  0  0  0  0  0  0
   -1.2504   -2.4553   -1.1532 C   0  0  0  0  0  0  0  0  0  0  0  0
   -1.3334   -2.9745   -2.3060 O   0  0  0  0  0  0  0  0  0  0  0  0
   -0.1822   -2.8399   -0.2830 N   0  0  0  0  0  0  0  0  0  0  0  0
   -0.2154   -4.1169    0.4400 C   0  0  2  0  0  0  0  0  0  0  0  0
    0.5070   -3.9754    1.7854 C   0  0  0  0  0  0  0  0  0  0  0  0
    0.3280   -5.2322   -0.4246 C   0  0  0  0  0  0  0  0  0  0  0  0
   -0.3320   -5.5928   -1.4385 O   0  0  0  0  0  0  0  0  0  0  0  0
    1.4953   -5.9779   -0.0636 N   0  0  0  0  0  0  0  0  0  0  0  0
    2.8423   -5.4296   -0.2343 C   0  0  2  0  0  0  0  0  0  0  0  0
    3.4123   -5.9012   -1.5789 C   0  0  0  0  0  0  0  0  0  0  0  0
    3.7306   -5.8781    0.9125 C   0  0  0  0  0  0  0  0  0  0  0  0
    3.2852   -6.7162    1.7417 O   0  0  0  0  0  0  0  0  0  0  0  0
    5.0866   -5.4220    1.0670 N   0  0  0  0  0  0  0  0  0  0  0  0
    5.6097   -4.1320    0.5777 C   0  0  2  0  0  0  0  0  0  0  0  0
    7.0904   -4.3101    0.2059 C   0  0  0  0  0  0  0  0  0  0  0  0
    5.4666   -3.0664    1.6501 C   0  0  0  0  0  0  0  0  0  0  0  0
    5.4295   -3.4162    2.8636 O   0  0  0  0  0  0  0  0  0  0  0  0
    5.3403   -1.6643    1.3470 N   0  0  0  0  0  0  0  0  0  0  0  0
    5.8543   -1.0194    0.1288 C   0  0  2  0  0  0  0  0  0  0  0  0
    7.2646   -0.4907    0.4105 C   0  0  0  0  0  0  0  0  0  0  0  0
    4.8806    0.0435   -0.3211 C   0  0  0  0  0  0  0  0  0  0  0  0
    3.6875   -0.3079   -0.5154 O   0  0  0  0  0  0  0  0  0  0  0  0
    5.2587    1.4360   -0.5005 N   0  0  0  0  0  0  0  0  0  0  0  0
    4.2701    2.5337   -0.4455 C   0  0  2  0  0  0  0  0  0  0  0  0
    3.5024    2.4386    0.8811 C   0  0  0  0  0  0  0  0  0  0  0  0
    3.3748    2.5114   -1.6820 C   0  0  0  0  0  0  0  0  0  0  0  0
    3.5721    1.6124   -2.5491 O   0  0  0  0  0  0  0  0  0  0  0  0
    2.3507    3.4952   -1.9761 N   0  0  0  0  0  0  0  0  0  0  0  0
    2.0335    4.7125   -1.2138 C   0  0  1  0  0  0  0  0  0  0  0  0
    2.8903    5.8498   -1.7137 C   0  0  0  0  0  0  0  0  0  0  0  0
    2.8372    6.2612   -3.0727 N   0  0  0  0  0  0  0  0  0  0  0  0
    3.6876    6.4214   -0.9214 O   0  0  0  0  0  0  0  0  0  0  0  0
    0.5305    5.0323   -1.3832 C   0  0  0  0  0  0  0  0  0  0  0  0
   -0.0406    6.5365   -0.5058 S   0  0  0  0  0  0  0  0  0  0  0  0
    0.0428    5.9276    1.2250 C   0  0  0  0  0  0  0  0  0  0  0  0
  -10.4134    2.5760   -0.1334 H   0  0  0  0  0  0  0  0  0  0  0  0
   -9.5726    1.3887    0.9440 H   0  0  0  0  0  0  0  0  0  0  0  0
  -10.4457    0.8083   -0.5432 H   0  0  0  0  0  0  0  0  0  0  0  0
   -7.2219    1.3009    0.6426 H   0  0  0  0  0  0  0  0  0  0  0  0
   -6.2028    2.5874   -1.9090 H   0  0  0  0  0  0  0  0  0  0  0  0
   -4.7684    1.5894    0.6271 H   0  0  0  0  0  0  0  0  0  0  0  0
   -3.9778    2.4034   -0.7660 H   0  0  0  0  0  0  0  0  0  0  0  0
   -4.8440    2.8722    2.5986 H   0  0  0  0  0  0  0  0  0  0  0  0
   -4.6398    4.6371    2.7409 H   0  0  0  0  0  0  0  0  0  0  0  0
   -2.6649    5.7561    1.4805 H   0  0  0  0  0  0  0  0  0  0  0  0
    0.9087    3.3736    1.5250 H   0  0  0  0  0  0  0  0  0  0  0  0
   -2.8971    1.5562    2.3313 H   0  0  0  0  0  0  0  0  0  0  0  0
    0.2786    0.8952    2.9557 H   0  0  0  0  0  0  0  0  0  0  0  0
    0.6071    0.9138    1.2000 H   0  0  0  0  0  0  0  0  0  0  0  0
   -2.3737    0.6091   -0.0799 H   0  0  0  0  0  0  0  0  0  0  0  0
   -0.7291    0.0905   -0.5935 H   0  0  0  0  0  0  0  0  0  0  0  0
   -2.7811   -1.0700   -1.6322 H   0  0  0  0  0  0  0  0  0  0  0  0
   -2.9143   -2.5837    1.0170 H   0  0  0  0  0  0  0  0  0  0  0  0
   -4.7455   -2.0350   -2.0433 H   0  0  0  0  0  0  0  0  0  0  0  0
   -5.7147   -4.0710   -0.9543 H   0  0  0  0  0  0  0  0  0  0  0  0
   -6.8427   -3.2768   -2.1093 H   0  0  0  0  0  0  0  0  0  0  0  0
   -7.0861   -3.0798   -0.3282 H   0  0  0  0  0  0  0  0  0  0  0  0
   -7.2927   -0.7564   -1.2737 H   0  0  0  0  0  0  0  0  0  0  0  0
    0.7004   -2.2750   -0.3208 H   0  0  0  0  0  0  0  0  0  0  0  0
   -1.2704   -4.3796    0.6808 H   0  0  0  0  0  0  0  0  0  0  0  0
    0.0393   -3.1632    2.3809 H   0  0  0  0  0  0  0  0  0  0  0  0
    1.5792   -3.7179    1.6554 H   0  0  0  0  0  0  0  0  0  0  0  0
    0.4278   -4.9159    2.3642 H   0  0  0  0  0  0  0  0  0  0  0  0
    1.4018   -7.0172   -0.0587 H   0  0  0  0  0  0  0  0  0  0  0  0
    2.7809   -4.3235   -0.2302 H   0  0  0  0  0  0  0  0  0  0  0  0
    4.4454   -5.5196   -1.7355 H   0  0  0  0  0  0  0  0  0  0  0  0
    2.7793   -5.5219   -2.4085 H   0  0  0  0  0  0  0  0  0  0  0  0
    3.4288   -7.0109   -1.6165 H   0  0  0  0  0  0  0  0  0  0  0  0
    5.6897   -5.9538    1.7454 H   0  0  0  0  0  0  0  0  0  0  0  0
    5.0579   -3.8150   -0.3254 H   0  0  0  0  0  0  0  0  0  0  0  0
    7.2031   -5.1529   -0.5106 H   0  0  0  0  0  0  0  0  0  0  0  0
    7.4988   -3.4060   -0.2798 H   0  0  0  0  0  0  0  0  0  0  0  0
    7.7028   -4.5286    1.1116 H   0  0  0  0  0  0  0  0  0  0  0  0
    5.0718   -1.0288    2.1466 H   0  0  0  0  0  0  0  0  0  0  0  0
    5.9165   -1.7521   -0.6982 H   0  0  0  0  0  0  0  0  0  0  0  0
    7.2435    0.2839    1.2075 H   0  0  0  0  0  0  0  0  0  0  0  0
    7.7086   -0.0667   -0.5191 H   0  0  0  0  0  0  0  0  0  0  0  0
    7.9303   -1.3148    0.7572 H   0  0  0  0  0  0  0  0  0  0  0  0
    6.2598    1.7225   -0.4330 H   0  0  0  0  0  0  0  0  0  0  0  0
    4.8296    3.5059   -0.4608 H   0  0  0  0  0  0  0  0  0  0  0  0
    3.3132    3.4531    1.2976 H   0  0  0  0  0  0  0  0  0  0  0  0
    4.0987    1.8902    1.6513 H   0  0  0  0  0  0  0  0  0  0  0  0
    2.5464    1.9024    0.7452 H   0  0  0  0  0  0  0  0  0  0  0  0
    1.9732    3.4439   -2.9440 H   0  0  0  0  0  0  0  0  0  0  0  0
    2.2212    4.5490   -0.1460 H   0  0  0  0  0  0  0  0  0  0  0  0
    2.3054    5.6995   -3.7712 H   0  0  0  0  0  0  0  0  0  0  0  0
    3.4696    7.0217   -3.4160 H   0  0  0  0  0  0  0  0  0  0  0  0
    0.3174    5.1938   -2.4619 H   0  0  0  0  0  0  0  0  0  0  0  0
   -0.0760    4.1575   -1.0823 H   0  0  0  0  0  0  0  0  0  0  0  0
   -0.3115    6.7494    1.8852 H   0  0  0  0  0  0  0  0  0  0  0  0
    1.1021    5.7497    1.5060 H   0  0  0  0  0  0  0  0  0  0  0  0
  1  2  1  0
  2  3  2  0
  2  4  1  0
  4  5  1  0
  5  6  1  0
  6  7  1  0
  7  8  1  0
  8  9  1  0
  9 10  1  0
 10 11  2  0
 11 12  1  0
 12 13  2  0
 13 14  1  0
 13 15  1  0
 15 16  1  0
 16 17  1  0
 17 18  1  0
 18 19  1  0
 19 20  1  0
 20 21  2  0
 20 22  1  0
 22 23  1  0
 22 24  1  0
 24 25  1  0
 25 26  2  0
 18 27  1  0
 27 28  2  0
 27 29  1  0
 29 30  1  0
 30 31  1  0
 30 32  1  0
 32 33  2  0
 32 34  1  0
 34 35  1  0
 35 36  1  0
 35 37  1  0
 37 38  2  0
 37 39  1  0
 39 40  1  0
 40 41  1  0
 40 42  1  0
 42 43  2  0
 42 44  1  0
 44 45  1  0
 45 46  1  0
 45 47  1  0
 47 48  2  0
 47 49  1  0
 49 50  1  0
 50 51  1  0
 50 52  1  0
 52 53  2  0
 52 54  1  0
 54 55  1  0
 55 56  1  0
 56 57  1  0
 56 58  2  0
 55 59  1  0
 59 60  1  0
 60 61  1  0
 25  5  1  0
 14  9  2  0
 61 11  1  0
  1 62  1  0
  1 63  1  0
  1 64  1  0
  4 65  1  0
  5 66  1  6
  6 67  1  0
  6 68  1  0
  8 69  1  0
  8 70  1  0
 10 71  1  0
 12 72  1  0
 14 73  1  0
 15 74  1  0
 15 75  1  0
 17 76  1  0
 17 77  1  0
 18 78  1  6
 19 79  1  0
 22 80  1  6
 23 81  1  0
 23 82  1  0
 23 83  1  0
 24 84  1  0
 29 85  1  0
 30 86  1  1
 31 87  1  0
 31 88  1  0
 31 89  1  0
 34 90  1  0
 35 91  1  6
 36 92  1  0
 36 93  1  0
 36 94  1  0
 39 95  1  0
 40 96  1  6
 41 97  1  0
 41 98  1  0
 41 99  1  0
 44100  1  0
 45101  1  6
 46102  1  0
 46103  1  0
 46104  1  0
 49105  1  0
 50106  1  1
 51107  1  0
 51108  1  0
 51109  1  0
 54110  1  0
 55111  1  1
 57112  1  0
 57113  1  0
 59114  1  0
 59115  1  0
 61116  1  0
 61117  1  0
M  END
