
     RDKit          3D

227229  0  0  0  0  0  0  0  0999 V2000
   -7.9244   -3.6701    2.3900 C   0  0  0  0  0  0  0  0  0  0  0  0
   -7.7666   -2.8080    1.1723 C   0  0  0  0  0  0  0  0  0  0  0  0
   -8.0716   -1.5825    1.2474 O   0  0  0  0  0  0  0  0  0  0  0  0
   -7.2662   -3.3244   -0.0710 N   0  0  0  0  0  0  0  0  0  0  0  0
   -6.9464   -4.7303   -0.3223 C   0  0  2  0  0  0  0  0  0  0  0  0
   -5.4227   -4.9283   -0.4314 C   0  0  0  0  0  0  0  0  0  0  0  0
   -4.5634   -4.6193    1.1547 S   0  0  0  0  0  0  0  0  0  0  0  0
   -3.9826   -2.9169    0.7720 C   0  0  0  0  0  0  0  0  0  0  0  0
   -2.8823   -2.8177   -0.2696 C   0  0  0  0  0  0  0  0  0  0  0  0
   -2.6837   -1.5856   -0.9143 C   0  0  0  0  0  0  0  0  0  0  0  0
   -1.6632   -1.4157   -1.8633 C   0  0  0  0  0  0  0  0  0  0  0  0
   -0.8253   -2.5038   -2.1720 C   0  0  0  0  0  0  0  0  0  0  0  0
   -1.0078   -3.7451   -1.5454 C   0  0  0  0  0  0  0  0  0  0  0  0
   -2.0158   -3.8921   -0.5734 C   0  0  0  0  0  0  0  0  0  0  0  0
   -0.1040   -4.8918   -1.9859 C   0  0  0  0  0  0  0  0  0  0  0  0
   -0.6407   -6.5684   -1.4694 S   0  0  0  0  0  0  0  0  0  0  0  0
    0.4180   -6.7213    0.0380 C   0  0  0  0  0  0  0  0  0  0  0  0
    1.7612   -7.4812   -0.1561 C   0  0  1  0  0  0  0  0  0  0  0  0
    1.7607   -8.3723   -1.3791 C   0  0  0  0  0  0  0  0  0  0  0  0
    2.3308   -7.9442   -2.6160 N   0  0  0  0  0  0  0  0  0  0  0  0
    1.2246   -9.5136   -1.3149 O   0  0  0  0  0  0  0  0  0  0  0  0
    2.8951   -6.5550   -0.1756 N   0  0  0  0  0  0  0  0  0  0  0  0
    4.2625   -6.9426    0.0640 C   0  0  0  0  0  0  0  0  0  0  0  0
    5.1749   -6.3409   -0.5743 O   0  0  0  0  0  0  0  0  0  0  0  0
    4.6378   -8.0632    1.0204 C   0  0  1  0  0  0  0  0  0  0  0  0
    4.8514   -9.3521    0.2149 C   0  0  0  0  0  0  0  0  0  0  0  0
    5.8562   -7.7974    1.8050 N   0  0  0  0  0  0  0  0  0  0  0  0
    6.5708   -6.5513    1.8363 C   0  0  0  0  0  0  0  0  0  0  0  0
    5.9704   -5.4978    2.2004 O   0  0  0  0  0  0  0  0  0  0  0  0
    8.0540   -6.5186    1.5563 C   0  0  1  0  0  0  0  0  0  0  0  0
    8.4735   -7.6307    0.5882 C   0  0  0  0  0  0  0  0  0  0  0  0
    8.4149   -5.2279    0.9857 N   0  0  0  0  0  0  0  0  0  0  0  0
    9.1726   -4.2600    1.7128 C   0  0  0  0  0  0  0  0  0  0  0  0
    8.5686   -3.4068    2.4180 O   0  0  0  0  0  0  0  0  0  0  0  0
   10.6766   -4.2455    1.6376 C   0  0  1  0  0  0  0  0  0  0  0  0
   11.2779   -5.4360    2.3735 C   0  0  0  0  0  0  0  0  0  0  0  0
   11.1039   -4.2634    0.2355 N   0  0  0  0  0  0  0  0  0  0  0  0
   11.9301   -3.2715   -0.3984 C   0  0  0  0  0  0  0  0  0  0  0  0
   11.9621   -3.2373   -1.6618 O   0  0  0  0  0  0  0  0  0  0  0  0
   12.7191   -2.2452    0.3886 C   0  0  1  0  0  0  0  0  0  0  0  0
   14.0671   -1.9157   -0.2711 C   0  0  0  0  0  0  0  0  0  0  0  0
   11.9102   -1.0332    0.5872 N   0  0  0  0  0  0  0  0  0  0  0  0
   11.8060    0.0030   -0.3977 C   0  0  0  0  0  0  0  0  0  0  0  0
   11.2006   -0.2363   -1.4765 O   0  0  0  0  0  0  0  0  0  0  0  0
   12.4917    1.3361   -0.1657 C   0  0  1  0  0  0  0  0  0  0  0  0
   12.1197    2.3551   -1.2466 C   0  0  0  0  0  0  0  0  0  0  0  0
   12.1529    1.8420    1.1791 N   0  0  0  0  0  0  0  0  0  0  0  0
   12.2274    3.2257    1.5356 C   0  0  0  0  0  0  0  0  0  0  0  0
   13.3259    3.8435    1.3984 O   0  0  0  0  0  0  0  0  0  0  0  0
   11.0406    3.8862    2.1786 C   0  0  1  0  0  0  0  0  0  0  0  0
   11.2109    5.4111    2.3141 C   0  0  0  0  0  0  0  0  0  0  0  0
    9.8155    3.4976    1.4540 N   0  0  0  0  0  0  0  0  0  0  0  0
    8.9134    4.3735    0.7563 C   0  0  0  0  0  0  0  0  0  0  0  0
    7.6845    4.3299    1.0487 O   0  0  0  0  0  0  0  0  0  0  0  0
    9.3771    5.2092   -0.4109 C   0  0  1  0  0  0  0  0  0  0  0  0
    8.7260    4.7171   -1.7148 C   0  0  0  0  0  0  0  0  0  0  0  0
    9.1161    6.6329   -0.1586 N   0  0  0  0  0  0  0  0  0  0  0  0
    7.9560    7.3367   -0.6340 C   0  0  0  0  0  0  0  0  0  0  0  0
    8.0191    7.9643   -1.7248 O   0  0  0  0  0  0  0  0  0  0  0  0
    6.6908    7.3721    0.1806 C   0  0  1  0  0  0  0  0  0  0  0  0
    6.4845    8.7722    0.7763 C   0  0  0  0  0  0  0  0  0  0  0  0
    5.5571    6.8852   -0.6289 N   0  0  0  0  0  0  0  0  0  0  0  0
    4.2804    7.5421   -0.7687 C   0  0  0  0  0  0  0  0  0  0  0  0
    4.2202    8.7755   -1.0143 O   0  0  0  0  0  0  0  0  0  0  0  0
    3.0180    6.7344   -0.5567 C   0  0  1  0  0  0  0  0  0  0  0  0
    2.7598    6.5897    0.9480 C   0  0  0  0  0  0  0  0  0  0  0  0
    1.8582    7.3508   -1.2111 N   0  0  0  0  0  0  0  0  0  0  0  0
    0.6659    6.6523   -1.6266 C   0  0  0  0  0  0  0  0  0  0  0  0
   -0.3986    7.3132   -1.7324 O   0  0  0  0  0  0  0  0  0  0  0  0
    0.6292    5.1893   -2.0450 C   0  0  1  0  0  0  0  0  0  0  0  0
    1.5417    4.9058   -3.2442 C   0  0  0  0  0  0  0  0  0  0  0  0
    0.9152    4.2914   -0.9243 N   0  0  0  0  0  0  0  0  0  0  0  0
   -0.0782    3.7745   -0.0140 C   0  0  0  0  0  0  0  0  0  0  0  0
    0.1800    3.7446    1.2142 O   0  0  0  0  0  0  0  0  0  0  0  0
   -1.4149    3.2426   -0.4919 C   0  0  1  0  0  0  0  0  0  0  0  0
   -1.5136    1.7278   -0.2633 C   0  0  0  0  0  0  0  0  0  0  0  0
   -0.2339    0.8054   -1.1982 S   0  0  0  0  0  0  0  0  0  0  0  0
   -1.3283   -0.0447   -2.3882 C   0  0  0  0  0  0  0  0  0  0  0  0
   -2.4915    3.9196    0.2388 N   0  0  0  0  0  0  0  0  0  0  0  0
   -2.9376    5.2250   -0.1484 C   0  0  0  0  0  0  0  0  0  0  0  0
   -2.6445    6.2085    0.5878 O   0  0  0  0  0  0  0  0  0  0  0  0
   -3.6560    5.4635   -1.4569 C   0  0  1  0  0  0  0  0  0  0  0  0
   -4.4986    4.2615   -1.9208 C   0  0  0  0  0  0  0  0  0  0  0  0
   -4.4846    6.6729   -1.3886 N   0  0  0  0  0  0  0  0  0  0  0  0
   -5.7949    6.7213   -0.8012 C   0  0  0  0  0  0  0  0  0  0  0  0
   -6.7768    7.0111   -1.5386 O   0  0  0  0  0  0  0  0  0  0  0  0
   -6.0053    6.5248    0.6845 C   0  0  1  0  0  0  0  0  0  0  0  0
   -6.8598    7.6546    1.2832 C   0  0  0  0  0  0  0  0  0  0  0  0
   -6.5519    5.1842    0.9454 N   0  0  0  0  0  0  0  0  0  0  0  0
   -7.7331    4.9213    1.7158 C   0  0  0  0  0  0  0  0  0  0  0  0
   -7.6082    4.6763    2.9451 O   0  0  0  0  0  0  0  0  0  0  0  0
   -9.1160    4.9190    1.1049 C   0  0  1  0  0  0  0  0  0  0  0  0
   -9.1373    5.2003   -0.3946 C   0  0  0  0  0  0  0  0  0  0  0  0
   -9.7503    3.6199    1.3414 N   0  0  0  0  0  0  0  0  0  0  0  0
  -10.9473    3.5275    2.1219 C   0  0  0  0  0  0  0  0  0  0  0  0
  -10.9802    4.0498    3.2731 O   0  0  0  0  0  0  0  0  0  0  0  0
  -12.1121    2.7033    1.6365 C   0  0  1  0  0  0  0  0  0  0  0  0
  -12.5322    3.1942    0.2379 C   0  0  0  0  0  0  0  0  0  0  0  0
  -11.7313    1.2919    1.6047 N   0  0  0  0  0  0  0  0  0  0  0  0
  -12.5423    0.2724    1.0005 C   0  0  0  0  0  0  0  0  0  0  0  0
  -13.8003    0.3980    0.9675 O   0  0  0  0  0  0  0  0  0  0  0  0
  -11.9000   -0.9249    0.3519 C   0  0  1  0  0  0  0  0  0  0  0  0
  -10.8276   -0.4797   -0.6420 C   0  0  0  0  0  0  0  0  0  0  0  0
  -11.2983   -1.7966    1.3636 N   0  0  0  0  0  0  0  0  0  0  0  0
  -11.5204   -3.2115    1.5551 C   0  0  0  0  0  0  0  0  0  0  0  0
  -11.1451   -3.7246    2.6434 O   0  0  0  0  0  0  0  0  0  0  0  0
  -12.1742   -4.1241    0.5411 C   0  0  1  0  0  0  0  0  0  0  0  0
  -13.7039   -4.0433    0.5963 C   0  0  0  0  0  0  0  0  0  0  0  0
  -11.6776   -3.9049   -0.8214 N   0  0  0  0  0  0  0  0  0  0  0  0
  -10.7720   -4.7766   -1.5332 C   0  0  0  0  0  0  0  0  0  0  0  0
  -10.6618   -4.6335   -2.7792 O   0  0  0  0  0  0  0  0  0  0  0  0
   -9.9412   -5.8386   -0.8461 C   0  0  1  0  0  0  0  0  0  0  0  0
  -10.7279   -7.1613   -0.7654 C   0  0  0  0  0  0  0  0  0  0  0  0
   -8.7082   -6.0831   -1.6109 N   0  0  0  0  0  0  0  0  0  0  0  0
   -7.6078   -5.1706   -1.6047 C   0  0  0  0  0  0  0  0  0  0  0  0
   -7.1266   -4.7992   -2.7133 O   0  0  0  0  0  0  0  0  0  0  0  0
   -8.6010   -4.5214    2.1693 H   0  0  0  0  0  0  0  0  0  0  0  0
   -8.3797   -3.0879    3.2186 H   0  0  0  0  0  0  0  0  0  0  0  0
   -6.9269   -4.0500    2.7139 H   0  0  0  0  0  0  0  0  0  0  0  0
   -7.1074   -2.6350   -0.8469 H   0  0  0  0  0  0  0  0  0  0  0  0
   -7.3192   -5.3791    0.4954 H   0  0  0  0  0  0  0  0  0  0  0  0
   -5.2164   -5.9822   -0.7038 H   0  0  0  0  0  0  0  0  0  0  0  0
   -5.0045   -4.2848   -1.2382 H   0  0  0  0  0  0  0  0  0  0  0  0
   -3.6087   -2.4549    1.7104 H   0  0  0  0  0  0  0  0  0  0  0  0
   -4.8551   -2.3122    0.4410 H   0  0  0  0  0  0  0  0  0  0  0  0
   -3.3442   -0.7613   -0.6891 H   0  0  0  0  0  0  0  0  0  0  0  0
   -0.0425   -2.3862   -2.9117 H   0  0  0  0  0  0  0  0  0  0  0  0
   -2.1337   -4.8303   -0.0483 H   0  0  0  0  0  0  0  0  0  0  0  0
    0.9487   -4.6780   -1.6818 H   0  0  0  0  0  0  0  0  0  0  0  0
   -0.0991   -4.9048   -3.1000 H   0  0  0  0  0  0  0  0  0  0  0  0
    0.5874   -5.7172    0.4898 H   0  0  0  0  0  0  0  0  0  0  0  0
   -0.1993   -7.2854    0.7734 H   0  0  0  0  0  0  0  0  0  0  0  0
    1.8608   -8.1363    0.7268 H   0  0  0  0  0  0  0  0  0  0  0  0
    2.4451   -8.6138   -3.4071 H   0  0  0  0  0  0  0  0  0  0  0  0
    2.6493   -6.9579   -2.7465 H   0  0  0  0  0  0  0  0  0  0  0  0
    2.7615   -5.6328   -0.6474 H   0  0  0  0  0  0  0  0  0  0  0  0
    3.8074   -8.2352    1.7365 H   0  0  0  0  0  0  0  0  0  0  0  0
    3.9663   -9.5880   -0.4044 H   0  0  0  0  0  0  0  0  0  0  0  0
    5.0255  -10.2085    0.9020 H   0  0  0  0  0  0  0  0  0  0  0  0
    5.7351   -9.2501   -0.4446 H   0  0  0  0  0  0  0  0  0  0  0  0
    6.2831   -8.5961    2.3205 H   0  0  0  0  0  0  0  0  0  0  0  0
    8.5886   -6.6701    2.5203 H   0  0  0  0  0  0  0  0  0  0  0  0
    9.5475   -7.5219    0.3181 H   0  0  0  0  0  0  0  0  0  0  0  0
    7.8720   -7.5666   -0.3465 H   0  0  0  0  0  0  0  0  0  0  0  0
    8.3308   -8.6327    1.0458 H   0  0  0  0  0  0  0  0  0  0  0  0
    7.9942   -4.9312    0.0715 H   0  0  0  0  0  0  0  0  0  0  0  0
   11.0211   -3.3212    2.1498 H   0  0  0  0  0  0  0  0  0  0  0  0
   11.0073   -6.3851    1.8733 H   0  0  0  0  0  0  0  0  0  0  0  0
   10.9174   -5.4692    3.4225 H   0  0  0  0  0  0  0  0  0  0  0  0
   12.3872   -5.3452    2.3911 H   0  0  0  0  0  0  0  0  0  0  0  0
   10.7586   -5.0417   -0.3682 H   0  0  0  0  0  0  0  0  0  0  0  0
   12.9731   -2.6701    1.3828 H   0  0  0  0  0  0  0  0  0  0  0  0
   13.9312   -1.5112   -1.2985 H   0  0  0  0  0  0  0  0  0  0  0  0
   14.6125   -1.1634    0.3441 H   0  0  0  0  0  0  0  0  0  0  0  0
   14.6898   -2.8388   -0.3309 H   0  0  0  0  0  0  0  0  0  0  0  0
   11.1659   -1.0606    1.3247 H   0  0  0  0  0  0  0  0  0  0  0  0
   13.5877    1.1509   -0.2153 H   0  0  0  0  0  0  0  0  0  0  0  0
   12.3007    1.9381   -2.2610 H   0  0  0  0  0  0  0  0  0  0  0  0
   11.0484    2.6505   -1.1575 H   0  0  0  0  0  0  0  0  0  0  0  0
   12.7569    3.2620   -1.1549 H   0  0  0  0  0  0  0  0  0  0  0  0
   12.0988    1.1584    1.9732 H   0  0  0  0  0  0  0  0  0  0  0  0
   10.9642    3.4879    3.2182 H   0  0  0  0  0  0  0  0  0  0  0  0
   11.9961    5.6362    3.0689 H   0  0  0  0  0  0  0  0  0  0  0  0
   10.2622    5.8873    2.6560 H   0  0  0  0  0  0  0  0  0  0  0  0
   11.5193    5.8656    1.3535 H   0  0  0  0  0  0  0  0  0  0  0  0
    9.4822    2.5127    1.6051 H   0  0  0  0  0  0  0  0  0  0  0  0
   10.4790    5.0592   -0.5423 H   0  0  0  0  0  0  0  0  0  0  0  0
    9.0642    5.3405   -2.5731 H   0  0  0  0  0  0  0  0  0  0  0  0
    9.0035    3.6613   -1.9136 H   0  0  0  0  0  0  0  0  0  0  0  0
    7.6169    4.7725   -1.6535 H   0  0  0  0  0  0  0  0  0  0  0  0
    9.9320    7.2213    0.1299 H   0  0  0  0  0  0  0  0  0  0  0  0
    6.8092    6.6823    1.0411 H   0  0  0  0  0  0  0  0  0  0  0  0
    6.3763    9.5334   -0.0263 H   0  0  0  0  0  0  0  0  0  0  0  0
    5.5813    8.7762    1.4277 H   0  0  0  0  0  0  0  0  0  0  0  0
    7.3654    9.0551    1.3932 H   0  0  0  0  0  0  0  0  0  0  0  0
    5.6156    5.8905   -0.9499 H   0  0  0  0  0  0  0  0  0  0  0  0
    3.2125    5.7389   -0.9820 H   0  0  0  0  0  0  0  0  0  0  0  0
    3.6112    6.0538    1.4252 H   0  0  0  0  0  0  0  0  0  0  0  0
    2.6580    7.5933    1.4196 H   0  0  0  0  0  0  0  0  0  0  0  0
    1.8280    6.0093    1.1261 H   0  0  0  0  0  0  0  0  0  0  0  0
    1.7578    8.3880   -1.1187 H   0  0  0  0  0  0  0  0  0  0  0  0
   -0.4001    4.9947   -2.4119 H   0  0  0  0  0  0  0  0  0  0  0  0
    1.2284    5.5307   -4.1112 H   0  0  0  0  0  0  0  0  0  0  0  0
    2.6025    5.1094   -3.0179 H   0  0  0  0  0  0  0  0  0  0  0  0
    1.4410    3.8353   -3.5303 H   0  0  0  0  0  0  0  0  0  0  0  0
    1.9066    4.0798   -0.6696 H   0  0  0  0  0  0  0  0  0  0  0  0
   -1.5439    3.4106   -1.5788 H   0  0  0  0  0  0  0  0  0  0  0  0
   -1.3694    1.4983    0.8135 H   0  0  0  0  0  0  0  0  0  0  0  0
   -2.5398    1.3923   -0.5319 H   0  0  0  0  0  0  0  0  0  0  0  0
   -2.2388    0.5476   -2.5984 H   0  0  0  0  0  0  0  0  0  0  0  0
   -0.7760   -0.1247   -3.3437 H   0  0  0  0  0  0  0  0  0  0  0  0
   -2.6047    3.6755    1.2519 H   0  0  0  0  0  0  0  0  0  0  0  0
   -2.8691    5.6204   -2.2300 H   0  0  0  0  0  0  0  0  0  0  0  0
   -3.8454    3.4022   -2.1845 H   0  0  0  0  0  0  0  0  0  0  0  0
   -5.0653    4.5295   -2.8351 H   0  0  0  0  0  0  0  0  0  0  0  0
   -5.2175    3.9248   -1.1449 H   0  0  0  0  0  0  0  0  0  0  0  0
   -4.2272    7.4539   -2.0379 H   0  0  0  0  0  0  0  0  0  0  0  0
   -5.0215    6.5942    1.1958 H   0  0  0  0  0  0  0  0  0  0  0  0
   -6.9320    7.5421    2.3860 H   0  0  0  0  0  0  0  0  0  0  0  0
   -6.3962    8.6442    1.0611 H   0  0  0  0  0  0  0  0  0  0  0  0
   -7.8810    7.6579    0.8561 H   0  0  0  0  0  0  0  0  0  0  0  0
   -5.8419    4.4112    0.9625 H   0  0  0  0  0  0  0  0  0  0  0  0
   -9.7014    5.7260    1.6042 H   0  0  0  0  0  0  0  0  0  0  0  0
   -8.9538    6.2743   -0.5935 H   0  0  0  0  0  0  0  0  0  0  0  0
  -10.1425    4.9691   -0.8114 H   0  0  0  0  0  0  0  0  0  0  0  0
   -8.3884    4.5796   -0.9285 H   0  0  0  0  0  0  0  0  0  0  0  0
   -9.5135    2.8272    0.7102 H   0  0  0  0  0  0  0  0  0  0  0  0
  -12.9717    2.8447    2.3286 H   0  0  0  0  0  0  0  0  0  0  0  0
  -12.6700    4.2931    0.2367 H   0  0  0  0  0  0  0  0  0  0  0  0
  -13.5086    2.7402   -0.0572 H   0  0  0  0  0  0  0  0  0  0  0  0
  -11.7724    2.9152   -0.5267 H   0  0  0  0  0  0  0  0  0  0  0  0
  -10.9621    0.9722    2.2447 H   0  0  0  0  0  0  0  0  0  0  0  0
  -12.6837   -1.4571   -0.2085 H   0  0  0  0  0  0  0  0  0  0  0  0
  -10.0016    0.0475   -0.1180 H   0  0  0  0  0  0  0  0  0  0  0  0
  -11.2636    0.2054   -1.4050 H   0  0  0  0  0  0  0  0  0  0  0  0
  -10.3894   -1.3607   -1.1621 H   0  0  0  0  0  0  0  0  0  0  0  0
  -10.6665   -1.3484    2.0640 H   0  0  0  0  0  0  0  0  0  0  0  0
  -11.9253   -5.1588    0.8523 H   0  0  0  0  0  0  0  0  0  0  0  0
  -14.1463   -4.7688   -0.1195 H   0  0  0  0  0  0  0  0  0  0  0  0
  -14.0585   -4.3071    1.6187 H   0  0  0  0  0  0  0  0  0  0  0  0
  -14.0763   -3.0344    0.3466 H   0  0  0  0  0  0  0  0  0  0  0  0
  -12.1394   -3.1759   -1.4100 H   0  0  0  0  0  0  0  0  0  0  0  0
   -9.6825   -5.5139    0.1818 H   0  0  0  0  0  0  0  0  0  0  0  0
  -11.6581   -7.0606   -0.1656 H   0  0  0  0  0  0  0  0  0  0  0  0
  -11.0047   -7.5069   -1.7897 H   0  0  0  0  0  0  0  0  0  0  0  0
  -10.0927   -7.9437   -0.2926 H   0  0  0  0  0  0  0  0  0  0  0  0
   -8.8033   -6.6709   -2.4732 H   0  0  0  0  0  0  0  0  0  0  0  0
  1  2  1  0
  2  3  2  0
  2  4  1  0
  4  5  1  0
  5  6  1  0
  6  7  1  0
  7  8  1  0
  8  9  1  0
  9 10  1  0
 10 11  2  0
 11 12  1  0
 12 13  2  0
 13 14  1  0
 13 15  1  0
 15 16  1  0
 16 17  1  0
 17 18  1  0
 18 19  1  0
 19 20  1  0
 19 21  2  0
 18 22  1  0
 22 23  1  0
 23 24  2  0
 23 25  1  0
 25 26  1  0
 25 27  1  0
 27 28  1  0
 28 29  2  0
 28 30  1  0
 30 31  1  0
 30 32  1  0
 32 33  1  0
 33 34  2  0
 33 35  1  0
 35 36  1  0
 35 37  1  0
 37 38  1  0
 38 39  2  0
 38 40  1  0
 40 41  1  0
 40 42  1  0
 42 43  1  0
 43 44  2  0
 43 45  1  0
 45 46  1  0
 45 47  1  0
 47 48  1  0
 48 49  2  0
 48 50  1  0
 50 51  1  0
 50 52  1  0
 52 53  1  0
 53 54  2  0
 53 55  1  0
 55 56  1  0
 55 57  1  0
 57 58  1  0
 58 59  2  0
 58 60  1  0
 60 61  1  0
 60 62  1  0
 62 63  1  0
 63 64  2  0
 63 65  1  0
 65 66  1  0
 65 67  1  0
 67 68  1  0
 68 69  2  0
 68 70  1  0
 70 71  1  0
 70 72  1  0
 72 73  1  0
 73 74  2  0
 73 75  1  0
 75 76  1  0
 76 77  1  0
 77 78  1  0
 75 79  1  0
 79 80  1  0
 80 81  2  0
 80 82  1  0
 82 83  1  0
 82 84  1  0
 84 85  1  0
 85 86  2  0
 85 87  1  0
 87 88  1  0
 87 89  1  0
 89 90  1  0
 90 91  2  0
 90 92  1  0
 92 93  1  0
 92 94  1  0
 94 95  1  0
 95 96  2  0
 95 97  1  0
 97 98  1  0
 97 99  1  0
 99100  1  0
100101  2  0
100102  1  0
102103  1  0
102104  1  0
104105  1  0
105106  2  0
105107  1  0
107108  1  0
107109  1  0
109110  1  0
110111  2  0
110112  1  0
112113  1  0
112114  1  0
114115  1  0
115116  2  0
115  5  1  0
 14  9  2  0
 78 11  1  0
  1117  1  0
  1118  1  0
  1119  1  0
  4120  1  0
  5121  1  1
  6122  1  0
  6123  1  0
  8124  1  0
  8125  1  0
 10126  1  0
 12127  1  0
 14128  1  0
 15129  1  0
 15130  1  0
 17131  1  0
 17132  1  0
 18133  1  1
 20134  1  0
 20135  1  0
 22136  1  0
 25137  1  1
 26138  1  0
 26139  1  0
 26140  1  0
 27141  1  0
 30142  1  1
 31143  1  0
 31144  1  0
 31145  1  0
 32146  1  0
 35147  1  1
 36148  1  0
 36149  1  0
 36150  1  0
 37151  1  0
 40152  1  1
 41153  1  0
 41154  1  0
 41155  1  0
 42156  1  0
 45157  1  1
 46158  1  0
 46159  1  0
 46160  1  0
 47161  1  0
 50162  1  1
 51163  1  0
 51164  1  0
 51165  1  0
 52166  1  0
 55167  1  6
 56168  1  0
 56169  1  0
 56170  1  0
 57171  1  0
 60172  1  1
 61173  1  0
 61174  1  0
 61175  1  0
 62176  1  0
 65177  1  6
 66178  1  0
 66179  1  0
 66180  1  0
 67181  1  0
 70182  1  6
 71183  1  0
 71184  1  0
 71185  1  0
 72186  1  0
 75187  1  6
 76188  1  0
 76189  1  0
 78190  1  0
 78191  1  0
 79192  1  0
 82193  1  6
 83194  1  0
 83195  1  0
 83196  1  0
 84197  1  0
 87198  1  1
 88199  1  0
 88200  1  0
 88201  1  0
 89202  1  0
 92203  1  1
 93204  1  0
 93205  1  0
 93206  1  0
 94207  1  0
 97208  1  1
 98209  1  0
 98210  1  0
 98211  1  0
 99212  1  0
102213  1  6
103214  1  0
103215  1  0
103216  1  0
104217  1  0
107218  1  1
108219  1  0
108220  1  0
108221  1  0
109222  1  0
112223  1  1
113224  1  0
113225  1  0
113226  1  0
114227  1  0
M  END
