
     RDKit          3D

177179  0  0  0  0  0  0  0  0999 V2000
   -4.4242    8.4762   -2.0112 C   0  0  0  0  0  0  0  0  0  0  0  0
   -4.0366    7.1226   -1.5008 C   0  0  0  0  0  0  0  0  0  0  0  0
   -4.1378    6.1348   -2.2780 O   0  0  0  0  0  0  0  0  0  0  0  0
   -3.5728    6.9664   -0.1467 N   0  0  0  0  0  0  0  0  0  0  0  0
   -3.1248    5.7129    0.4787 C   0  0  2  0  0  0  0  0  0  0  0  0
   -2.1201    4.9255   -0.3854 C   0  0  0  0  0  0  0  0  0  0  0  0
   -0.6733    5.9510   -0.8511 S   0  0  0  0  0  0  0  0  0  0  0  0
    0.3004    5.6595    0.6705 C   0  0  0  0  0  0  0  0  0  0  0  0
    1.1242    4.4078    0.5422 C   0  0  0  0  0  0  0  0  0  0  0  0
    2.2796    4.4061   -0.2568 C   0  0  0  0  0  0  0  0  0  0  0  0
    3.0817    3.2569   -0.3429 C   0  0  0  0  0  0  0  0  0  0  0  0
    2.7134    2.1028    0.3686 C   0  0  0  0  0  0  0  0  0  0  0  0
    1.5562    2.0937    1.1642 C   0  0  0  0  0  0  0  0  0  0  0  0
    0.7640    3.2501    1.2407 C   0  0  0  0  0  0  0  0  0  0  0  0
    1.1329    0.8466    1.8949 C   0  0  0  0  0  0  0  0  0  0  0  0
   -0.3279    0.0910    1.0933 S   0  0  0  0  0  0  0  0  0  0  0  0
    0.5795   -0.7162   -0.2844 C   0  0  0  0  0  0  0  0  0  0  0  0
    0.5995   -2.2491   -0.1857 C   0  0  2  0  0  0  0  0  0  0  0  0
   -0.7612   -2.8023   -0.3405 N   0  0  0  0  0  0  0  0  0  0  0  0
   -1.4536   -3.5892    0.6404 C   0  0  0  0  0  0  0  0  0  0  0  0
   -1.6457   -3.1185    1.7931 O   0  0  0  0  0  0  0  0  0  0  0  0
   -2.0943   -4.9102    0.2534 C   0  0  1  0  0  0  0  0  0  0  0  0
   -1.2088   -5.6879   -0.7302 C   0  0  0  0  0  0  0  0  0  0  0  0
   -2.3309   -5.7372    1.4485 N   0  0  0  0  0  0  0  0  0  0  0  0
   -3.2053   -6.8774    1.5148 C   0  0  0  0  0  0  0  0  0  0  0  0
   -3.1625   -7.6046    2.5464 O   0  0  0  0  0  0  0  0  0  0  0  0
   -4.1976   -7.2282    0.4251 C   0  0  1  0  0  0  0  0  0  0  0  0
   -3.9435   -8.6427   -0.1008 C   0  0  0  0  0  0  0  0  0  0  0  0
   -5.5510   -7.1485    0.9706 N   0  0  0  0  0  0  0  0  0  0  0  0
   -6.3364   -5.9645    0.8102 C   0  0  0  0  0  0  0  0  0  0  0  0
   -6.1903   -5.0138    1.6304 O   0  0  0  0  0  0  0  0  0  0  0  0
   -7.3725   -5.8504   -0.2805 C   0  0  1  0  0  0  0  0  0  0  0  0
   -7.4561   -7.1099   -1.1504 C   0  0  0  0  0  0  0  0  0  0  0  0
   -8.6864   -5.5838    0.3224 N   0  0  0  0  0  0  0  0  0  0  0  0
   -9.0914   -4.2885    0.7998 C   0  0  0  0  0  0  0  0  0  0  0  0
   -9.9210   -4.2354    1.7504 O   0  0  0  0  0  0  0  0  0  0  0  0
   -8.6000   -3.0162    0.1476 C   0  0  1  0  0  0  0  0  0  0  0  0
   -9.2086   -2.8531   -1.2491 C   0  0  0  0  0  0  0  0  0  0  0  0
   -8.8545   -1.8203    0.9698 N   0  0  0  0  0  0  0  0  0  0  0  0
  -10.1471   -1.2022    1.0701 C   0  0  0  0  0  0  0  0  0  0  0  0
  -11.1316   -1.8624    1.5002 O   0  0  0  0  0  0  0  0  0  0  0  0
  -10.3191    0.2347    0.6443 C   0  0  1  0  0  0  0  0  0  0  0  0
  -11.7267    0.4764    0.0842 C   0  0  0  0  0  0  0  0  0  0  0  0
  -10.0481    1.1382    1.7677 N   0  0  0  0  0  0  0  0  0  0  0  0
   -9.7609    2.5470    1.6348 C   0  0  0  0  0  0  0  0  0  0  0  0
   -9.6466    3.2393    2.6832 O   0  0  0  0  0  0  0  0  0  0  0  0
   -9.5321    3.2166    0.2927 C   0  0  1  0  0  0  0  0  0  0  0  0
  -10.4719    4.4183    0.1459 C   0  0  0  0  0  0  0  0  0  0  0  0
   -8.1346    3.6455    0.1440 N   0  0  0  0  0  0  0  0  0  0  0  0
   -7.0201    2.7437    0.2841 C   0  0  0  0  0  0  0  0  0  0  0  0
   -7.1741    1.6239    0.8426 O   0  0  0  0  0  0  0  0  0  0  0  0
   -5.6660    3.0822   -0.2816 C   0  0  1  0  0  0  0  0  0  0  0  0
   -5.6353    2.7955   -1.7813 C   0  0  0  0  0  0  0  0  0  0  0  0
   -5.3195    4.4842   -0.0376 N   0  0  0  0  0  0  0  0  0  0  0  0
   -4.2870    4.8394    0.8869 C   0  0  0  0  0  0  0  0  0  0  0  0
   -4.3308    4.3834    2.0637 O   0  0  0  0  0  0  0  0  0  0  0  0
    1.3321   -2.7509    1.0532 C   0  0  0  0  0  0  0  0  0  0  0  0
    0.8908   -2.4450    2.1929 O   0  0  0  0  0  0  0  0  0  0  0  0
    2.5358   -3.5418    0.9895 N   0  0  0  0  0  0  0  0  0  0  0  0
    3.3161   -3.8039   -0.2239 C   0  0  2  0  0  0  0  0  0  0  0  0
    2.6911   -4.9481   -1.0345 C   0  0  0  0  0  0  0  0  0  0  0  0
    4.7363   -4.1540    0.1431 C   0  0  0  0  0  0  0  0  0  0  0  0
    4.9968   -5.2840    0.6369 O   0  0  0  0  0  0  0  0  0  0  0  0
    5.7814   -3.1789   -0.0074 N   0  0  0  0  0  0  0  0  0  0  0  0
    7.0283   -3.4182   -0.7487 C   0  0  2  0  0  0  0  0  0  0  0  0
    6.7328   -3.9893   -2.1414 C   0  0  0  0  0  0  0  0  0  0  0  0
    7.9772   -4.3202    0.0171 C   0  0  0  0  0  0  0  0  0  0  0  0
    7.6093   -5.4851    0.3265 O   0  0  0  0  0  0  0  0  0  0  0  0
    9.2923   -3.8976    0.4080 N   0  0  0  0  0  0  0  0  0  0  0  0
   10.0949   -2.8952   -0.3020 C   0  0  2  0  0  0  0  0  0  0  0  0
   11.4998   -3.4459   -0.5687 C   0  0  0  0  0  0  0  0  0  0  0  0
   10.1840   -1.6434    0.5222 C   0  0  0  0  0  0  0  0  0  0  0  0
   10.6009   -1.7101    1.7102 O   0  0  0  0  0  0  0  0  0  0  0  0
    9.8191   -0.3780   -0.0491 N   0  0  0  0  0  0  0  0  0  0  0  0
   10.6236    0.8431    0.1028 C   0  0  2  0  0  0  0  0  0  0  0  0
   12.0822    0.5883   -0.2832 C   0  0  0  0  0  0  0  0  0  0  0  0
   10.5053    1.4081    1.5083 C   0  0  0  0  0  0  0  0  0  0  0  0
   11.0885    0.8180    2.4531 O   0  0  0  0  0  0  0  0  0  0  0  0
    9.7341    2.5858    1.8100 N   0  0  0  0  0  0  0  0  0  0  0  0
    9.4286    3.6559    0.8452 C   0  0  2  0  0  0  0  0  0  0  0  0
   10.7316    4.3309    0.3937 C   0  0  0  0  0  0  0  0  0  0  0  0
    8.4973    4.7001    1.4283 C   0  0  0  0  0  0  0  0  0  0  0  0
    8.0973    4.6192    2.6231 O   0  0  0  0  0  0  0  0  0  0  0  0
    8.1324    5.8526    0.6599 N   0  0  0  0  0  0  0  0  0  0  0  0
    6.9608    5.9329   -0.2255 C   0  0  1  0  0  0  0  0  0  0  0  0
    7.2986    5.5396   -1.6448 C   0  0  0  0  0  0  0  0  0  0  0  0
    6.5089    6.0265   -2.7272 N   0  0  0  0  0  0  0  0  0  0  0  0
    8.2548    4.7606   -1.8850 O   0  0  0  0  0  0  0  0  0  0  0  0
    5.7410    5.1687    0.3280 C   0  0  0  0  0  0  0  0  0  0  0  0
    5.8049    3.3568    0.0050 S   0  0  0  0  0  0  0  0  0  0  0  0
    4.3679    3.2812   -1.1253 C   0  0  0  0  0  0  0  0  0  0  0  0
   -5.4956    8.4719   -2.3025 H   0  0  0  0  0  0  0  0  0  0  0  0
   -4.2676    9.2573   -1.2358 H   0  0  0  0  0  0  0  0  0  0  0  0
   -3.8063    8.7318   -2.8962 H   0  0  0  0  0  0  0  0  0  0  0  0
   -3.4779    7.8308    0.4334 H   0  0  0  0  0  0  0  0  0  0  0  0
   -2.5996    5.9879    1.4200 H   0  0  0  0  0  0  0  0  0  0  0  0
   -1.7791    4.0258    0.1660 H   0  0  0  0  0  0  0  0  0  0  0  0
   -2.5995    4.5494   -1.3107 H   0  0  0  0  0  0  0  0  0  0  0  0
    0.9676    6.5310    0.8373 H   0  0  0  0  0  0  0  0  0  0  0  0
   -0.3588    5.6031    1.5592 H   0  0  0  0  0  0  0  0  0  0  0  0
    2.5617    5.3097   -0.7750 H   0  0  0  0  0  0  0  0  0  0  0  0
    3.3424    1.2251    0.3240 H   0  0  0  0  0  0  0  0  0  0  0  0
   -0.1335    3.2417    1.8499 H   0  0  0  0  0  0  0  0  0  0  0  0
    0.8626    1.1191    2.9350 H   0  0  0  0  0  0  0  0  0  0  0  0
    1.9698    0.1141    1.9638 H   0  0  0  0  0  0  0  0  0  0  0  0
    0.0796   -0.4277   -1.2345 H   0  0  0  0  0  0  0  0  0  0  0  0
    1.6253   -0.3511   -0.3581 H   0  0  0  0  0  0  0  0  0  0  0  0
    1.1543   -2.5736   -1.0824 H   0  0  0  0  0  0  0  0  0  0  0  0
   -1.1800   -2.7603   -1.2961 H   0  0  0  0  0  0  0  0  0  0  0  0
   -3.0592   -4.6530   -0.2306 H   0  0  0  0  0  0  0  0  0  0  0  0
   -1.0390   -5.1089   -1.6626 H   0  0  0  0  0  0  0  0  0  0  0  0
   -0.2291   -5.9226   -0.2620 H   0  0  0  0  0  0  0  0  0  0  0  0
   -1.6950   -6.6412   -1.0178 H   0  0  0  0  0  0  0  0  0  0  0  0
   -1.7216   -5.5767    2.2861 H   0  0  0  0  0  0  0  0  0  0  0  0
   -4.1124   -6.5391   -0.4398 H   0  0  0  0  0  0  0  0  0  0  0  0
   -2.8960   -8.7436   -0.4511 H   0  0  0  0  0  0  0  0  0  0  0  0
   -4.6229   -8.8549   -0.9542 H   0  0  0  0  0  0  0  0  0  0  0  0
   -4.1244   -9.3977    0.6974 H   0  0  0  0  0  0  0  0  0  0  0  0
   -5.8470   -7.8282    1.7069 H   0  0  0  0  0  0  0  0  0  0  0  0
   -7.0798   -5.0244   -0.9565 H   0  0  0  0  0  0  0  0  0  0  0  0
   -6.4935   -7.2741   -1.6792 H   0  0  0  0  0  0  0  0  0  0  0  0
   -7.6927   -8.0029   -0.5317 H   0  0  0  0  0  0  0  0  0  0  0  0
   -8.2538   -6.9838   -1.9137 H   0  0  0  0  0  0  0  0  0  0  0  0
   -9.2252   -6.4056    0.6803 H   0  0  0  0  0  0  0  0  0  0  0  0
   -7.5007   -3.0899    0.0296 H   0  0  0  0  0  0  0  0  0  0  0  0
   -8.8374   -1.9192   -1.7168 H   0  0  0  0  0  0  0  0  0  0  0  0
   -8.9240   -3.7050   -1.9037 H   0  0  0  0  0  0  0  0  0  0  0  0
  -10.3171   -2.8100   -1.1926 H   0  0  0  0  0  0  0  0  0  0  0  0
   -8.0296   -1.2137    1.1773 H   0  0  0  0  0  0  0  0  0  0  0  0
   -9.5752    0.4067   -0.1586 H   0  0  0  0  0  0  0  0  0  0  0  0
  -12.4889    0.3387    0.8783 H   0  0  0  0  0  0  0  0  0  0  0  0
  -11.9325   -0.2301   -0.7464 H   0  0  0  0  0  0  0  0  0  0  0  0
  -11.8234    1.5066   -0.3119 H   0  0  0  0  0  0  0  0  0  0  0  0
  -10.1187    0.7580    2.7385 H   0  0  0  0  0  0  0  0  0  0  0  0
   -9.7631    2.5359   -0.5452 H   0  0  0  0  0  0  0  0  0  0  0  0
  -11.5279    4.1036    0.2927 H   0  0  0  0  0  0  0  0  0  0  0  0
  -10.3782    4.8568   -0.8699 H   0  0  0  0  0  0  0  0  0  0  0  0
  -10.2242    5.2003    0.8962 H   0  0  0  0  0  0  0  0  0  0  0  0
   -7.9569    4.5590   -0.3274 H   0  0  0  0  0  0  0  0  0  0  0  0
   -4.9037    2.4249    0.1999 H   0  0  0  0  0  0  0  0  0  0  0  0
   -6.3830    3.4178   -2.3153 H   0  0  0  0  0  0  0  0  0  0  0  0
   -4.6271    3.0260   -2.1854 H   0  0  0  0  0  0  0  0  0  0  0  0
   -5.8546    1.7257   -1.9724 H   0  0  0  0  0  0  0  0  0  0  0  0
   -5.7704    5.2319   -0.6059 H   0  0  0  0  0  0  0  0  0  0  0  0
    2.9295   -3.8528    1.9073 H   0  0  0  0  0  0  0  0  0  0  0  0
    3.3500   -2.8849   -0.8469 H   0  0  0  0  0  0  0  0  0  0  0  0
    2.6403   -5.8771   -0.4212 H   0  0  0  0  0  0  0  0  0  0  0  0
    3.2965   -5.1475   -1.9420 H   0  0  0  0  0  0  0  0  0  0  0  0
    1.6600   -4.7019   -1.3572 H   0  0  0  0  0  0  0  0  0  0  0  0
    5.5413   -2.1835    0.2152 H   0  0  0  0  0  0  0  0  0  0  0  0
    7.5058   -2.4296   -0.8973 H   0  0  0  0  0  0  0  0  0  0  0  0
    6.0483   -3.3092   -2.6876 H   0  0  0  0  0  0  0  0  0  0  0  0
    6.2596   -4.9911   -2.0644 H   0  0  0  0  0  0  0  0  0  0  0  0
    7.6731   -4.0780   -2.7285 H   0  0  0  0  0  0  0  0  0  0  0  0
    9.7333   -4.3901    1.2197 H   0  0  0  0  0  0  0  0  0  0  0  0
    9.6533   -2.6664   -1.2946 H   0  0  0  0  0  0  0  0  0  0  0  0
   11.4383   -4.3363   -1.2335 H   0  0  0  0  0  0  0  0  0  0  0  0
   12.1236   -2.6727   -1.0739 H   0  0  0  0  0  0  0  0  0  0  0  0
   11.9980   -3.7379    0.3825 H   0  0  0  0  0  0  0  0  0  0  0  0
    9.0822   -0.3774   -0.7918 H   0  0  0  0  0  0  0  0  0  0  0  0
   10.2369    1.5811   -0.6292 H   0  0  0  0  0  0  0  0  0  0  0  0
   12.5547   -0.1540    0.3952 H   0  0  0  0  0  0  0  0  0  0  0  0
   12.1311    0.1956   -1.3188 H   0  0  0  0  0  0  0  0  0  0  0  0
   12.6654    1.5304   -0.2410 H   0  0  0  0  0  0  0  0  0  0  0  0
    9.4766    2.7075    2.8145 H   0  0  0  0  0  0  0  0  0  0  0  0
    8.9164    3.2180   -0.0293 H   0  0  0  0  0  0  0  0  0  0  0  0
   11.2686    4.7500    1.2717 H   0  0  0  0  0  0  0  0  0  0  0  0
   11.3965    3.6071   -0.1137 H   0  0  0  0  0  0  0  0  0  0  0  0
   10.5261    5.1579   -0.3199 H   0  0  0  0  0  0  0  0  0  0  0  0
    8.5415    6.7621    0.9804 H   0  0  0  0  0  0  0  0  0  0  0  0
    6.6681    7.0056   -0.2622 H   0  0  0  0  0  0  0  0  0  0  0  0
    6.7437    5.7700   -3.7087 H   0  0  0  0  0  0  0  0  0  0  0  0
    5.7229    6.6917   -2.5583 H   0  0  0  0  0  0  0  0  0  0  0  0
    5.6651    5.3168    1.4239 H   0  0  0  0  0  0  0  0  0  0  0  0
    4.8224    5.6198   -0.0994 H   0  0  0  0  0  0  0  0  0  0  0  0
    4.4421    2.3517   -1.7331 H   0  0  0  0  0  0  0  0  0  0  0  0
    4.3843    4.1334   -1.8371 H   0  0  0  0  0  0  0  0  0  0  0  0
  1  2  1  0
  2  3  2  0
  2  4  1  0
  4  5  1  0
  5  6  1  0
  6  7  1  0
  7  8  1  0
  8  9  1  0
  9 10  1  0
 10 11  2  0
 11 12  1  0
 12 13  2  0
 13 14  1  0
 13 15  1  0
 15 16  1  0
 16 17  1  0
 17 18  1  0
 18 19  1  0
 19 20  1  0
 20 21  2  0
 20 22  1  0
 22 23  1  0
 22 24  1  0
 24 25  1  0
 25 26  2  0
 25 27  1  0
 27 28  1  0
 27 29  1  0
 29 30  1  0
 30 31  2  0
 30 32  1  0
 32 33  1  0
 32 34  1  0
 34 35  1  0
 35 36  2  0
 35 37  1  0
 37 38  1  0
 37 39  1  0
 39 40  1  0
 40 41  2  0
 40 42  1  0
 42 43  1  0
 42 44  1  0
 44 45  1  0
 45 46  2  0
 45 47  1  0
 47 48  1  0
 47 49  1  0
 49 50  1  0
 50 51  2  0
 50 52  1  0
 52 53  1  0
 52 54  1  0
 54 55  1  0
 55 56  2  0
 18 57  1  0
 57 58  2  0
 57 59  1  0
 59 60  1  0
 60 61  1  0
 60 62  1  0
 62 63  2  0
 62 64  1  0
 64 65  1  0
 65 66  1  0
 65 67  1  0
 67 68  2  0
 67 69  1  0
 69 70  1  0
 70 71  1  0
 70 72  1  0
 72 73  2  0
 72 74  1  0
 74 75  1  0
 75 76  1  0
 75 77  1  0
 77 78  2  0
 77 79  1  0
 79 80  1  0
 80 81  1  0
 80 82  1  0
 82 83  2  0
 82 84  1  0
 84 85  1  0
 85 86  1  0
 86 87  1  0
 86 88  2  0
 85 89  1  0
 89 90  1  0
 90 91  1  0
 55  5  1  0
 14  9  2  0
 91 11  1  0
  1 92  1  0
  1 93  1  0
  1 94  1  0
  4 95  1  0
  5 96  1  1
  6 97  1  0
  6 98  1  0
  8 99  1  0
  8100  1  0
 10101  1  0
 12102  1  0
 14103  1  0
 15104  1  0
 15105  1  0
 17106  1  0
 17107  1  0
 18108  1  6
 19109  1  0
 22110  1  6
 23111  1  0
 23112  1  0
 23113  1  0
 24114  1  0
 27115  1  6
 28116  1  0
 28117  1  0
 28118  1  0
 29119  1  0
 32120  1  6
 33121  1  0
 33122  1  0
 33123  1  0
 34124  1  0
 37125  1  6
 38126  1  0
 38127  1  0
 38128  1  0
 39129  1  0
 42130  1  6
 43131  1  0
 43132  1  0
 43133  1  0
 44134  1  0
 47135  1  6
 48136  1  0
 48137  1  0
 48138  1  0
 49139  1  0
 52140  1  1
 53141  1  0
 53142  1  0
 53143  1  0
 54144  1  0
 59145  1  0
 60146  1  6
 61147  1  0
 61148  1  0
 61149  1  0
 64150  1  0
 65151  1  6
 66152  1  0
 66153  1  0
 66154  1  0
 69155  1  0
 70156  1  6
 71157  1  0
 71158  1  0
 71159  1  0
 74160  1  0
 75161  1  6
 76162  1  0
 76163  1  0
 76164  1  0
 79165  1  0
 80166  1  6
 81167  1  0
 81168  1  0
 81169  1  0
 84170  1  0
 85171  1  6
 87172  1  0
 87173  1  0
 89174  1  0
 89175  1  0
 91176  1  0
 91177  1  0
M  END
