
     RDKit          3D

167169  0  0  0  0  0  0  0  0999 V2000
   -3.3285   -8.0718   -5.1720 C   0  0  0  0  0  0  0  0  0  0  0  0
   -3.0066   -8.2096   -3.7198 C   0  0  0  0  0  0  0  0  0  0  0  0
   -2.3373   -9.2052   -3.3356 O   0  0  0  0  0  0  0  0  0  0  0  0
   -3.4491   -7.2194   -2.7786 N   0  0  0  0  0  0  0  0  0  0  0  0
   -3.0738   -7.2392   -1.3601 C   0  0  1  0  0  0  0  0  0  0  0  0
   -2.2940   -5.9566   -1.0234 C   0  0  0  0  0  0  0  0  0  0  0  0
   -0.7558   -5.9344   -2.0218 S   0  0  0  0  0  0  0  0  0  0  0  0
   -0.3907   -4.1436   -1.8996 C   0  0  0  0  0  0  0  0  0  0  0  0
    0.3427   -3.7711   -0.6332 C   0  0  0  0  0  0  0  0  0  0  0  0
    1.3646   -4.5930   -0.1186 C   0  0  0  0  0  0  0  0  0  0  0  0
    2.0841   -4.2169    1.0272 C   0  0  0  0  0  0  0  0  0  0  0  0
    1.8062   -2.9828    1.6344 C   0  0  0  0  0  0  0  0  0  0  0  0
    0.8446   -2.1126    1.0880 C   0  0  0  0  0  0  0  0  0  0  0  0
    0.0993   -2.5244   -0.0291 C   0  0  0  0  0  0  0  0  0  0  0  0
    0.6477   -0.7465    1.6861 C   0  0  0  0  0  0  0  0  0  0  0  0
    2.1656    0.2594    1.4628 S   0  0  0  0  0  0  0  0  0  0  0  0
    1.5781    1.4555    0.1895 C   0  0  0  0  0  0  0  0  0  0  0  0
    1.5483    2.9052    0.7262 C   0  0  2  0  0  0  0  0  0  0  0  0
    1.3276    3.8590   -0.3647 N   0  0  0  0  0  0  0  0  0  0  0  0
    1.0819    5.2519   -0.1386 C   0  0  0  0  0  0  0  0  0  0  0  0
    1.7850    6.1017   -0.7518 O   0  0  0  0  0  0  0  0  0  0  0  0
   -0.0283    5.7156    0.7737 C   0  0  1  0  0  0  0  0  0  0  0  0
    0.5447    6.2695    2.0792 C   0  0  0  0  0  0  0  0  0  0  0  0
   -0.8187    6.7623    0.1087 N   0  0  0  0  0  0  0  0  0  0  0  0
   -2.2349    6.9669    0.2577 C   0  0  0  0  0  0  0  0  0  0  0  0
   -2.7848    7.8862   -0.4126 O   0  0  0  0  0  0  0  0  0  0  0  0
   -3.0986    6.0747    1.1303 C   0  0  1  0  0  0  0  0  0  0  0  0
   -4.2867    6.8323    1.7354 C   0  0  0  0  0  0  0  0  0  0  0  0
   -3.5457    4.9014    0.3713 N   0  0  0  0  0  0  0  0  0  0  0  0
   -4.2334    4.9985   -0.8823 C   0  0  0  0  0  0  0  0  0  0  0  0
   -3.5862    4.8454   -1.9564 O   0  0  0  0  0  0  0  0  0  0  0  0
   -5.7289    5.1794   -0.9210 C   0  0  1  0  0  0  0  0  0  0  0  0
   -6.1196    6.3581   -1.8207 C   0  0  0  0  0  0  0  0  0  0  0  0
   -6.3594    3.9536   -1.4050 N   0  0  0  0  0  0  0  0  0  0  0  0
   -6.7331    2.9163   -0.4896 C   0  0  0  0  0  0  0  0  0  0  0  0
   -5.9508    1.9418   -0.3178 O   0  0  0  0  0  0  0  0  0  0  0  0
   -8.1032    2.8757    0.1391 C   0  0  1  0  0  0  0  0  0  0  0  0
   -8.6960    4.2661    0.3765 C   0  0  0  0  0  0  0  0  0  0  0  0
   -9.0022    2.1054   -0.7297 N   0  0  0  0  0  0  0  0  0  0  0  0
   -9.6269    0.8520   -0.3906 C   0  0  0  0  0  0  0  0  0  0  0  0
  -10.5593    0.4256   -1.1280 O   0  0  0  0  0  0  0  0  0  0  0  0
   -9.2394    0.0541    0.8337 C   0  0  1  0  0  0  0  0  0  0  0  0
  -10.1343    0.4383    2.0139 C   0  0  0  0  0  0  0  0  0  0  0  0
   -9.3595   -1.3816    0.5631 N   0  0  0  0  0  0  0  0  0  0  0  0
   -8.3771   -2.2965    1.0470 C   0  0  0  0  0  0  0  0  0  0  0  0
   -8.2355   -2.4591    2.2903 O   0  0  0  0  0  0  0  0  0  0  0  0
   -7.4157   -2.9367    0.0856 C   0  0  1  0  0  0  0  0  0  0  0  0
   -6.1913   -2.0275   -0.0655 C   0  0  0  0  0  0  0  0  0  0  0  0
   -7.0337   -4.2752    0.5714 N   0  0  0  0  0  0  0  0  0  0  0  0
   -5.8917   -4.9809    0.0730 C   0  0  0  0  0  0  0  0  0  0  0  0
   -5.7061   -5.0478   -1.1726 O   0  0  0  0  0  0  0  0  0  0  0  0
   -4.8317   -5.5134    1.0163 C   0  0  1  0  0  0  0  0  0  0  0  0
   -5.2135   -5.3175    2.4912 C   0  0  0  0  0  0  0  0  0  0  0  0
   -4.5524   -6.9351    0.7636 N   0  0  0  0  0  0  0  0  0  0  0  0
   -4.3123   -7.5136   -0.5295 C   0  0  0  0  0  0  0  0  0  0  0  0
   -5.0908   -8.4300   -0.9220 O   0  0  0  0  0  0  0  0  0  0  0  0
    2.7880    3.2694    1.5363 C   0  0  0  0  0  0  0  0  0  0  0  0
    2.6745    3.2707    2.7931 O   0  0  0  0  0  0  0  0  0  0  0  0
    4.0728    3.6293    0.9786 N   0  0  0  0  0  0  0  0  0  0  0  0
    4.5530    3.3187   -0.3734 C   0  0  2  0  0  0  0  0  0  0  0  0
    5.1352    1.9002   -0.4307 C   0  0  0  0  0  0  0  0  0  0  0  0
    5.6105    4.3150   -0.7946 C   0  0  0  0  0  0  0  0  0  0  0  0
    5.3515    5.1408   -1.7055 O   0  0  0  0  0  0  0  0  0  0  0  0
    6.9414    4.2301   -0.2406 N   0  0  0  0  0  0  0  0  0  0  0  0
    8.1505    4.8103   -0.8534 C   0  0  2  0  0  0  0  0  0  0  0  0
    8.2396    4.5031   -2.3585 C   0  0  0  0  0  0  0  0  0  0  0  0
    9.3740    4.2784   -0.1467 C   0  0  0  0  0  0  0  0  0  0  0  0
   10.0163    5.0286    0.6372 O   0  0  0  0  0  0  0  0  0  0  0  0
    9.7847    2.9158   -0.3315 N   0  0  0  0  0  0  0  0  0  0  0  0
    9.9962    2.0042    0.7931 C   0  0  2  0  0  0  0  0  0  0  0  0
   11.4792    1.6447    0.9152 C   0  0  0  0  0  0  0  0  0  0  0  0
    9.1323    0.7791    0.6080 C   0  0  0  0  0  0  0  0  0  0  0  0
    8.1266    0.6234    1.3478 O   0  0  0  0  0  0  0  0  0  0  0  0
    9.4022   -0.1516   -0.4630 N   0  0  0  0  0  0  0  0  0  0  0  0
    8.5681   -1.3228   -0.7620 C   0  0  2  0  0  0  0  0  0  0  0  0
    7.2172   -0.8781   -1.3321 C   0  0  0  0  0  0  0  0  0  0  0  0
    8.4370   -2.2160    0.4503 C   0  0  0  0  0  0  0  0  0  0  0  0
    9.4556   -2.4603    1.1526 O   0  0  0  0  0  0  0  0  0  0  0  0
    7.1869   -2.8153    0.8095 N   0  0  0  0  0  0  0  0  0  0  0  0
    6.7266   -4.0209    0.1126 C   0  0  1  0  0  0  0  0  0  0  0  0
    7.4979   -5.2366    0.5740 C   0  0  0  0  0  0  0  0  0  0  0  0
    7.8532   -5.4046    1.9480 N   0  0  0  0  0  0  0  0  0  0  0  0
    7.8782   -6.0857   -0.2750 O   0  0  0  0  0  0  0  0  0  0  0  0
    5.2059   -4.2100    0.2564 C   0  0  0  0  0  0  0  0  0  0  0  0
    4.6788   -4.4098    1.9970 S   0  0  0  0  0  0  0  0  0  0  0  0
    3.0599   -5.1842    1.6506 C   0  0  0  0  0  0  0  0  0  0  0  0
   -3.9390   -8.9415   -5.4979 H   0  0  0  0  0  0  0  0  0  0  0  0
   -3.8972   -7.1405   -5.3690 H   0  0  0  0  0  0  0  0  0  0  0  0
   -2.3850   -8.0468   -5.7593 H   0  0  0  0  0  0  0  0  0  0  0  0
   -4.0767   -6.4553   -3.1114 H   0  0  0  0  0  0  0  0  0  0  0  0
   -2.3913   -8.0906   -1.1614 H   0  0  0  0  0  0  0  0  0  0  0  0
   -2.0147   -5.9462    0.0537 H   0  0  0  0  0  0  0  0  0  0  0  0
   -2.9216   -5.0676   -1.2672 H   0  0  0  0  0  0  0  0  0  0  0  0
   -1.3262   -3.5498   -2.0143 H   0  0  0  0  0  0  0  0  0  0  0  0
    0.2643   -3.8920   -2.7621 H   0  0  0  0  0  0  0  0  0  0  0  0
    1.5865   -5.5385   -0.5988 H   0  0  0  0  0  0  0  0  0  0  0  0
    2.3473   -2.6877    2.5259 H   0  0  0  0  0  0  0  0  0  0  0  0
   -0.6531   -1.8705   -0.4426 H   0  0  0  0  0  0  0  0  0  0  0  0
    0.4741   -0.8614    2.7780 H   0  0  0  0  0  0  0  0  0  0  0  0
   -0.2514   -0.2449    1.2736 H   0  0  0  0  0  0  0  0  0  0  0  0
    2.2528    1.3843   -0.6845 H   0  0  0  0  0  0  0  0  0  0  0  0
    0.5704    1.1846   -0.1921 H   0  0  0  0  0  0  0  0  0  0  0  0
    0.6760    2.9514    1.4106 H   0  0  0  0  0  0  0  0  0  0  0  0
    1.4676    3.5543   -1.3578 H   0  0  0  0  0  0  0  0  0  0  0  0
   -0.6785    4.8432    0.9979 H   0  0  0  0  0  0  0  0  0  0  0  0
    1.1164    7.1994    1.8749 H   0  0  0  0  0  0  0  0  0  0  0  0
   -0.2821    6.5125    2.7739 H   0  0  0  0  0  0  0  0  0  0  0  0
    1.2110    5.5335    2.5646 H   0  0  0  0  0  0  0  0  0  0  0  0
   -0.3045    7.4938   -0.4361 H   0  0  0  0  0  0  0  0  0  0  0  0
   -2.4982    5.7271    1.9978 H   0  0  0  0  0  0  0  0  0  0  0  0
   -4.9154    7.3020    0.9495 H   0  0  0  0  0  0  0  0  0  0  0  0
   -3.9205    7.6344    2.4105 H   0  0  0  0  0  0  0  0  0  0  0  0
   -4.9204    6.1351    2.3291 H   0  0  0  0  0  0  0  0  0  0  0  0
   -3.1606    3.9693    0.6382 H   0  0  0  0  0  0  0  0  0  0  0  0
   -6.0881    5.4002    0.1050 H   0  0  0  0  0  0  0  0  0  0  0  0
   -5.7829    7.3150   -1.3664 H   0  0  0  0  0  0  0  0  0  0  0  0
   -5.6594    6.2510   -2.8257 H   0  0  0  0  0  0  0  0  0  0  0  0
   -7.2254    6.3945   -1.9403 H   0  0  0  0  0  0  0  0  0  0  0  0
   -6.1904    3.6733   -2.3991 H   0  0  0  0  0  0  0  0  0  0  0  0
   -8.0130    2.4080    1.1360 H   0  0  0  0  0  0  0  0  0  0  0  0
   -8.0767    4.8286    1.1068 H   0  0  0  0  0  0  0  0  0  0  0  0
   -8.7805    4.8371   -0.5729 H   0  0  0  0  0  0  0  0  0  0  0  0
   -9.7155    4.1623    0.8105 H   0  0  0  0  0  0  0  0  0  0  0  0
   -9.2401    2.5113   -1.6654 H   0  0  0  0  0  0  0  0  0  0  0  0
   -8.1818    0.2636    1.1019 H   0  0  0  0  0  0  0  0  0  0  0  0
  -11.1983    0.1947    1.7930 H   0  0  0  0  0  0  0  0  0  0  0  0
   -9.8153   -0.1116    2.9247 H   0  0  0  0  0  0  0  0  0  0  0  0
  -10.0537    1.5259    2.2185 H   0  0  0  0  0  0  0  0  0  0  0  0
  -10.2624   -1.7707    0.1983 H   0  0  0  0  0  0  0  0  0  0  0  0
   -7.9099   -3.0455   -0.9085 H   0  0  0  0  0  0  0  0  0  0  0  0
   -5.5095   -2.4113   -0.8474 H   0  0  0  0  0  0  0  0  0  0  0  0
   -6.5085   -1.0068   -0.3743 H   0  0  0  0  0  0  0  0  0  0  0  0
   -5.6405   -1.9599    0.8979 H   0  0  0  0  0  0  0  0  0  0  0  0
   -7.6815   -4.7945    1.2071 H   0  0  0  0  0  0  0  0  0  0  0  0
   -3.9079   -4.9175    0.8629 H   0  0  0  0  0  0  0  0  0  0  0  0
   -6.1199   -5.9215    2.7399 H   0  0  0  0  0  0  0  0  0  0  0  0
   -5.4241   -4.2457    2.7058 H   0  0  0  0  0  0  0  0  0  0  0  0
   -4.3823   -5.6483    3.1414 H   0  0  0  0  0  0  0  0  0  0  0  0
   -4.7927   -7.6204    1.5175 H   0  0  0  0  0  0  0  0  0  0  0  0
    4.7860    3.9689    1.6611 H   0  0  0  0  0  0  0  0  0  0  0  0
    3.7187    3.3798   -1.0995 H   0  0  0  0  0  0  0  0  0  0  0  0
    4.3787    1.1337   -0.1844 H   0  0  0  0  0  0  0  0  0  0  0  0
    5.5261    1.6894   -1.4495 H   0  0  0  0  0  0  0  0  0  0  0  0
    5.9579    1.7799    0.3039 H   0  0  0  0  0  0  0  0  0  0  0  0
    7.0546    3.7116    0.6588 H   0  0  0  0  0  0  0  0  0  0  0  0
    8.1156    5.9201   -0.7265 H   0  0  0  0  0  0  0  0  0  0  0  0
    7.4973    5.1061   -2.9271 H   0  0  0  0  0  0  0  0  0  0  0  0
    9.2440    4.7768   -2.7537 H   0  0  0  0  0  0  0  0  0  0  0  0
    8.0533    3.4224   -2.5548 H   0  0  0  0  0  0  0  0  0  0  0  0
    9.8746    2.5484   -1.3059 H   0  0  0  0  0  0  0  0  0  0  0  0
    9.6937    2.5057    1.7410 H   0  0  0  0  0  0  0  0  0  0  0  0
   12.0648    2.5513    1.1745 H   0  0  0  0  0  0  0  0  0  0  0  0
   11.6221    0.8902    1.7223 H   0  0  0  0  0  0  0  0  0  0  0  0
   11.8772    1.2435   -0.0415 H   0  0  0  0  0  0  0  0  0  0  0  0
   10.2369    0.0040   -1.0701 H   0  0  0  0  0  0  0  0  0  0  0  0
    9.0768   -1.9223   -1.5481 H   0  0  0  0  0  0  0  0  0  0  0  0
    6.5609   -0.4848   -0.5303 H   0  0  0  0  0  0  0  0  0  0  0  0
    6.7030   -1.7262   -1.8306 H   0  0  0  0  0  0  0  0  0  0  0  0
    7.3712   -0.0816   -2.0920 H   0  0  0  0  0  0  0  0  0  0  0  0
    6.8633   -2.6577    1.7941 H   0  0  0  0  0  0  0  0  0  0  0  0
    6.9292   -3.8964   -0.9737 H   0  0  0  0  0  0  0  0  0  0  0  0
    8.5135   -6.1563    2.2357 H   0  0  0  0  0  0  0  0  0  0  0  0
    7.4908   -4.7558    2.6791 H   0  0  0  0  0  0  0  0  0  0  0  0
    4.6920   -3.3186   -0.1667 H   0  0  0  0  0  0  0  0  0  0  0  0
    4.8921   -5.0885   -0.3498 H   0  0  0  0  0  0  0  0  0  0  0  0
    2.6289   -5.5523    2.6072 H   0  0  0  0  0  0  0  0  0  0  0  0
    3.2101   -6.0702    0.9968 H   0  0  0  0  0  0  0  0  0  0  0  0
  1  2  1  0
  2  3  2  0
  2  4  1  0
  4  5  1  0
  5  6  1  0
  6  7  1  0
  7  8  1  0
  8  9  1  0
  9 10  1  0
 10 11  2  0
 11 12  1  0
 12 13  2  0
 13 14  1  0
 13 15  1  0
 15 16  1  0
 16 17  1  0
 17 18  1  0
 18 19  1  0
 19 20  1  0
 20 21  2  0
 20 22  1  0
 22 23  1  0
 22 24  1  0
 24 25  1  0
 25 26  2  0
 25 27  1  0
 27 28  1  0
 27 29  1  0
 29 30  1  0
 30 31  2  0
 30 32  1  0
 32 33  1  0
 32 34  1  0
 34 35  1  0
 35 36  2  0
 35 37  1  0
 37 38  1  0
 37 39  1  0
 39 40  1  0
 40 41  2  0
 40 42  1  0
 42 43  1  0
 42 44  1  0
 44 45  1  0
 45 46  2  0
 45 47  1  0
 47 48  1  0
 47 49  1  0
 49 50  1  0
 50 51  2  0
 50 52  1  0
 52 53  1  0
 52 54  1  0
 54 55  1  0
 55 56  2  0
 18 57  1  0
 57 58  2  0
 57 59  1  0
 59 60  1  0
 60 61  1  0
 60 62  1  0
 62 63  2  0
 62 64  1  0
 64 65  1  0
 65 66  1  0
 65 67  1  0
 67 68  2  0
 67 69  1  0
 69 70  1  0
 70 71  1  0
 70 72  1  0
 72 73  2  0
 72 74  1  0
 74 75  1  0
 75 76  1  0
 75 77  1  0
 77 78  2  0
 77 79  1  0
 79 80  1  0
 80 81  1  0
 81 82  1  0
 81 83  2  0
 80 84  1  0
 84 85  1  0
 85 86  1  0
 55  5  1  0
 14  9  2  0
 86 11  1  0
  1 87  1  0
  1 88  1  0
  1 89  1  0
  4 90  1  0
  5 91  1  6
  6 92  1  0
  6 93  1  0
  8 94  1  0
  8 95  1  0
 10 96  1  0
 12 97  1  0
 14 98  1  0
 15 99  1  0
 15100  1  0
 17101  1  0
 17102  1  0
 18103  1  1
 19104  1  0
 22105  1  1
 23106  1  0
 23107  1  0
 23108  1  0
 24109  1  0
 27110  1  1
 28111  1  0
 28112  1  0
 28113  1  0
 29114  1  0
 32115  1  1
 33116  1  0
 33117  1  0
 33118  1  0
 34119  1  0
 37120  1  1
 38121  1  0
 38122  1  0
 38123  1  0
 39124  1  0
 42125  1  1
 43126  1  0
 43127  1  0
 43128  1  0
 44129  1  0
 47130  1  6
 48131  1  0
 48132  1  0
 48133  1  0
 49134  1  0
 52135  1  6
 53136  1  0
 53137  1  0
 53138  1  0
 54139  1  0
 59140  1  0
 60141  1  6
 61142  1  0
 61143  1  0
 61144  1  0
 64145  1  0
 65146  1  6
 66147  1  0
 66148  1  0
 66149  1  0
 69150  1  0
 70151  1  1
 71152  1  0
 71153  1  0
 71154  1  0
 74155  1  0
 75156  1  6
 76157  1  0
 76158  1  0
 76159  1  0
 79160  1  0
 80161  1  6
 82162  1  0
 82163  1  0
 84164  1  0
 84165  1  0
 86166  1  0
 86167  1  0
M  END
