
     RDKit          3D

167169  0  0  0  0  0  0  0  0999 V2000
    2.7765   -9.6690   -1.9782 C   0  0  0  0  0  0  0  0  0  0  0  0
    3.6481   -8.9192   -1.0222 C   0  0  0  0  0  0  0  0  0  0  0  0
    4.4039   -9.5678   -0.2503 O   0  0  0  0  0  0  0  0  0  0  0  0
    3.6512   -7.4812   -0.9540 N   0  0  0  0  0  0  0  0  0  0  0  0
    2.7886   -6.6203   -1.7748 C   0  0  1  0  0  0  0  0  0  0  0  0
    1.5022   -6.2660   -1.0082 C   0  0  0  0  0  0  0  0  0  0  0  0
    1.8492   -5.4517    0.6022 S   0  0  0  0  0  0  0  0  0  0  0  0
    1.5312   -3.7248    0.0658 C   0  0  0  0  0  0  0  0  0  0  0  0
    0.2035   -3.2129    0.5591 C   0  0  0  0  0  0  0  0  0  0  0  0
   -0.9473   -4.0201    0.5236 C   0  0  0  0  0  0  0  0  0  0  0  0
   -2.1913   -3.5166    0.9352 C   0  0  0  0  0  0  0  0  0  0  0  0
   -2.2923   -2.1812    1.3546 C   0  0  0  0  0  0  0  0  0  0  0  0
   -1.1588   -1.3520    1.3717 C   0  0  0  0  0  0  0  0  0  0  0  0
    0.0850   -1.8756    0.9803 C   0  0  0  0  0  0  0  0  0  0  0  0
   -1.2746    0.0860    1.7869 C   0  0  0  0  0  0  0  0  0  0  0  0
   -0.6675    1.1846    0.4645 S   0  0  0  0  0  0  0  0  0  0  0  0
   -2.2163    1.2987   -0.4932 C   0  0  0  0  0  0  0  0  0  0  0  0
   -2.8816    2.6900   -0.4601 C   0  0  2  0  0  0  0  0  0  0  0  0
   -1.9539    3.7598   -0.8603 N   0  0  0  0  0  0  0  0  0  0  0  0
   -0.8938    4.2895   -0.0457 C   0  0  0  0  0  0  0  0  0  0  0  0
   -1.1064    4.5763    1.1596 O   0  0  0  0  0  0  0  0  0  0  0  0
    0.4829    4.4787   -0.6339 C   0  0  1  0  0  0  0  0  0  0  0  0
    0.4781    5.5480   -1.7352 C   0  0  0  0  0  0  0  0  0  0  0  0
    1.4615    4.7721    0.4236 N   0  0  0  0  0  0  0  0  0  0  0  0
    1.9403    6.0909    0.7134 C   0  0  0  0  0  0  0  0  0  0  0  0
    1.3098    6.8214    1.5257 O   0  0  0  0  0  0  0  0  0  0  0  0
    3.2353    6.5632    0.1101 C   0  0  1  0  0  0  0  0  0  0  0  0
    3.0693    7.9311   -0.5569 C   0  0  0  0  0  0  0  0  0  0  0  0
    4.2697    6.6438    1.1515 N   0  0  0  0  0  0  0  0  0  0  0  0
    5.4825    5.8686    1.2036 C   0  0  0  0  0  0  0  0  0  0  0  0
    6.2973    6.1087    2.1308 O   0  0  0  0  0  0  0  0  0  0  0  0
    5.7969    4.7706    0.2047 C   0  0  1  0  0  0  0  0  0  0  0  0
    6.2813    5.3333   -1.1422 C   0  0  0  0  0  0  0  0  0  0  0  0
    6.7691    3.8044    0.7441 N   0  0  0  0  0  0  0  0  0  0  0  0
    8.1866    4.0543    0.8532 C   0  0  0  0  0  0  0  0  0  0  0  0
    8.6255    5.2327    0.9017 O   0  0  0  0  0  0  0  0  0  0  0  0
    9.1798    2.9172    0.8879 C   0  0  1  0  0  0  0  0  0  0  0  0
    9.7529    2.7409    2.3051 C   0  0  0  0  0  0  0  0  0  0  0  0
    8.5949    1.6911    0.3131 N   0  0  0  0  0  0  0  0  0  0  0  0
    8.5106    0.4071    0.9603 C   0  0  0  0  0  0  0  0  0  0  0  0
    8.2243    0.3446    2.1865 O   0  0  0  0  0  0  0  0  0  0  0  0
    8.6767   -0.8923    0.2000 C   0  0  1  0  0  0  0  0  0  0  0  0
    9.1191   -0.6943   -1.2562 C   0  0  0  0  0  0  0  0  0  0  0  0
    9.6823   -1.7172    0.8828 N   0  0  0  0  0  0  0  0  0  0  0  0
    9.5232   -3.0690    1.3661 C   0  0  0  0  0  0  0  0  0  0  0  0
   10.5449   -3.6694    1.7880 O   0  0  0  0  0  0  0  0  0  0  0  0
    8.1936   -3.7892    1.4624 C   0  0  1  0  0  0  0  0  0  0  0  0
    7.2501   -3.1134    2.4699 C   0  0  0  0  0  0  0  0  0  0  0  0
    7.5589   -3.9576    0.1512 N   0  0  0  0  0  0  0  0  0  0  0  0
    6.4191   -4.8105    0.0066 C   0  0  0  0  0  0  0  0  0  0  0  0
    6.4660   -5.9822    0.4721 O   0  0  0  0  0  0  0  0  0  0  0  0
    5.1499   -4.3371   -0.6527 C   0  0  1  0  0  0  0  0  0  0  0  0
    5.1581   -2.8383   -0.9757 C   0  0  0  0  0  0  0  0  0  0  0  0
    4.8796   -5.1138   -1.8640 N   0  0  0  0  0  0  0  0  0  0  0  0
    3.5320   -5.3980   -2.2686 C   0  0  0  0  0  0  0  0  0  0  0  0
    2.9892   -4.6648   -3.1431 O   0  0  0  0  0  0  0  0  0  0  0  0
   -3.5982    2.9981    0.8418 C   0  0  0  0  0  0  0  0  0  0  0  0
   -3.0059    2.8671    1.9381 O   0  0  0  0  0  0  0  0  0  0  0  0
   -4.9245    3.5467    0.8250 N   0  0  0  0  0  0  0  0  0  0  0  0
   -5.2201    4.7588    0.0532 C   0  0  2  0  0  0  0  0  0  0  0  0
   -5.8014    5.8426    0.9694 C   0  0  0  0  0  0  0  0  0  0  0  0
   -6.1221    4.4079   -1.1070 C   0  0  0  0  0  0  0  0  0  0  0  0
   -5.6050    4.1749   -2.2311 O   0  0  0  0  0  0  0  0  0  0  0  0
   -7.5399    4.2717   -0.9458 N   0  0  0  0  0  0  0  0  0  0  0  0
   -8.3783    3.5937   -1.9417 C   0  0  2  0  0  0  0  0  0  0  0  0
   -8.7339    4.5478   -3.0859 C   0  0  0  0  0  0  0  0  0  0  0  0
   -9.6223    3.0601   -1.2871 C   0  0  0  0  0  0  0  0  0  0  0  0
  -10.4751    3.8548   -0.7995 O   0  0  0  0  0  0  0  0  0  0  0  0
   -9.8263    1.6467   -1.1751 N   0  0  0  0  0  0  0  0  0  0  0  0
   -9.8926    0.9125    0.0944 C   0  0  2  0  0  0  0  0  0  0  0  0
   -9.7337    1.8147    1.3273 C   0  0  0  0  0  0  0  0  0  0  0  0
   -8.8337   -0.1514    0.1065 C   0  0  0  0  0  0  0  0  0  0  0  0
   -7.6213    0.1738    0.2185 O   0  0  0  0  0  0  0  0  0  0  0  0
   -9.2045   -1.5311    0.0057 N   0  0  0  0  0  0  0  0  0  0  0  0
   -8.9581   -2.4896    1.0903 C   0  0  2  0  0  0  0  0  0  0  0  0
  -10.0519   -2.3408    2.1570 C   0  0  0  0  0  0  0  0  0  0  0  0
   -7.5638   -2.3334    1.6724 C   0  0  0  0  0  0  0  0  0  0  0  0
   -7.4208   -1.8572    2.8340 O   0  0  0  0  0  0  0  0  0  0  0  0
   -6.3855   -2.6330    0.9045 N   0  0  0  0  0  0  0  0  0  0  0  0
   -6.3861   -3.3992   -0.3520 C   0  0  2  0  0  0  0  0  0  0  0  0
   -6.8511   -4.8139   -0.1209 C   0  0  0  0  0  0  0  0  0  0  0  0
   -7.4768   -5.5462   -1.1768 N   0  0  0  0  0  0  0  0  0  0  0  0
   -6.6792   -5.3644    0.9992 O   0  0  0  0  0  0  0  0  0  0  0  0
   -4.9992   -3.3293   -1.0534 C   0  0  0  0  0  0  0  0  0  0  0  0
   -3.9069   -4.7827   -0.7927 S   0  0  0  0  0  0  0  0  0  0  0  0
   -3.3847   -4.4218    0.9180 C   0  0  0  0  0  0  0  0  0  0  0  0
    3.0442   -9.4018   -3.0223 H   0  0  0  0  0  0  0  0  0  0  0  0
    2.9158  -10.7665   -1.8526 H   0  0  0  0  0  0  0  0  0  0  0  0
    1.7105   -9.4234   -1.7887 H   0  0  0  0  0  0  0  0  0  0  0  0
    4.1886   -7.0467   -0.1742 H   0  0  0  0  0  0  0  0  0  0  0  0
    2.4816   -7.1644   -2.6907 H   0  0  0  0  0  0  0  0  0  0  0  0
    0.9564   -7.2076   -0.7835 H   0  0  0  0  0  0  0  0  0  0  0  0
    0.8129   -5.6643   -1.6363 H   0  0  0  0  0  0  0  0  0  0  0  0
    2.3570   -3.0989    0.4711 H   0  0  0  0  0  0  0  0  0  0  0  0
    1.5700   -3.6245   -1.0364 H   0  0  0  0  0  0  0  0  0  0  0  0
   -0.8902   -5.0487    0.1855 H   0  0  0  0  0  0  0  0  0  0  0  0
   -3.2600   -1.7858    1.6501 H   0  0  0  0  0  0  0  0  0  0  0  0
    0.9623   -1.2305    0.9811 H   0  0  0  0  0  0  0  0  0  0  0  0
   -0.6566    0.2538    2.6934 H   0  0  0  0  0  0  0  0  0  0  0  0
   -2.3226    0.3447    2.0602 H   0  0  0  0  0  0  0  0  0  0  0  0
   -1.9531    1.0866   -1.5540 H   0  0  0  0  0  0  0  0  0  0  0  0
   -2.9479    0.5096   -0.1988 H   0  0  0  0  0  0  0  0  0  0  0  0
   -3.6746    2.6446   -1.2331 H   0  0  0  0  0  0  0  0  0  0  0  0
   -2.0565    4.1359   -1.8332 H   0  0  0  0  0  0  0  0  0  0  0  0
    0.7876    3.5211   -1.1103 H   0  0  0  0  0  0  0  0  0  0  0  0
   -0.1771    5.2433   -2.5780 H   0  0  0  0  0  0  0  0  0  0  0  0
    1.5033    5.6687   -2.1480 H   0  0  0  0  0  0  0  0  0  0  0  0
    0.1195    6.5220   -1.3352 H   0  0  0  0  0  0  0  0  0  0  0  0
    1.6581    4.0252    1.1280 H   0  0  0  0  0  0  0  0  0  0  0  0
    3.5129    5.8426   -0.6801 H   0  0  0  0  0  0  0  0  0  0  0  0
    4.0250    8.2341   -1.0276 H   0  0  0  0  0  0  0  0  0  0  0  0
    2.7769    8.7045    0.1877 H   0  0  0  0  0  0  0  0  0  0  0  0
    2.2909    7.8888   -1.3494 H   0  0  0  0  0  0  0  0  0  0  0  0
    4.1201    7.3417    1.9146 H   0  0  0  0  0  0  0  0  0  0  0  0
    4.8528    4.2094    0.0204 H   0  0  0  0  0  0  0  0  0  0  0  0
    6.4551    4.4957   -1.8479 H   0  0  0  0  0  0  0  0  0  0  0  0
    7.2192    5.9086   -1.0264 H   0  0  0  0  0  0  0  0  0  0  0  0
    5.5246    6.0019   -1.5991 H   0  0  0  0  0  0  0  0  0  0  0  0
    6.4157    2.8471    0.9727 H   0  0  0  0  0  0  0  0  0  0  0  0
   10.0364    3.2096    0.2318 H   0  0  0  0  0  0  0  0  0  0  0  0
   10.3086    3.6590    2.5999 H   0  0  0  0  0  0  0  0  0  0  0  0
   10.4682    1.8883    2.3237 H   0  0  0  0  0  0  0  0  0  0  0  0
    8.9358    2.5878    3.0404 H   0  0  0  0  0  0  0  0  0  0  0  0
    8.2818    1.7649   -0.6794 H   0  0  0  0  0  0  0  0  0  0  0  0
    7.6918   -1.3887    0.1781 H   0  0  0  0  0  0  0  0  0  0  0  0
    8.3134   -0.2090   -1.8444 H   0  0  0  0  0  0  0  0  0  0  0  0
    9.3259   -1.6810   -1.7226 H   0  0  0  0  0  0  0  0  0  0  0  0
   10.0492   -0.0842   -1.3027 H   0  0  0  0  0  0  0  0  0  0  0  0
   10.6384   -1.3010    0.9756 H   0  0  0  0  0  0  0  0  0  0  0  0
    8.4052   -4.8079    1.8630 H   0  0  0  0  0  0  0  0  0  0  0  0
    6.9131   -2.1190    2.1276 H   0  0  0  0  0  0  0  0  0  0  0  0
    7.7644   -2.9951    3.4510 H   0  0  0  0  0  0  0  0  0  0  0  0
    6.3529   -3.7452    2.6313 H   0  0  0  0  0  0  0  0  0  0  0  0
    7.9223   -3.4611   -0.6923 H   0  0  0  0  0  0  0  0  0  0  0  0
    4.3426   -4.5032    0.0848 H   0  0  0  0  0  0  0  0  0  0  0  0
    5.9412   -2.5978   -1.7278 H   0  0  0  0  0  0  0  0  0  0  0  0
    5.3446   -2.2495   -0.0522 H   0  0  0  0  0  0  0  0  0  0  0  0
    4.1714   -2.5357   -1.3793 H   0  0  0  0  0  0  0  0  0  0  0  0
    5.6067   -5.0930   -2.6131 H   0  0  0  0  0  0  0  0  0  0  0  0
   -5.5627    3.2934    1.6079 H   0  0  0  0  0  0  0  0  0  0  0  0
   -4.2747    5.1840   -0.3607 H   0  0  0  0  0  0  0  0  0  0  0  0
   -6.0855    6.7450    0.3882 H   0  0  0  0  0  0  0  0  0  0  0  0
   -5.0380    6.1294    1.7327 H   0  0  0  0  0  0  0  0  0  0  0  0
   -6.6891    5.4506    1.5224 H   0  0  0  0  0  0  0  0  0  0  0  0
   -7.9913    4.6088   -0.0657 H   0  0  0  0  0  0  0  0  0  0  0  0
   -7.8137    2.7324   -2.3662 H   0  0  0  0  0  0  0  0  0  0  0  0
   -9.3568    5.3969   -2.7258 H   0  0  0  0  0  0  0  0  0  0  0  0
   -9.3018    3.9997   -3.8704 H   0  0  0  0  0  0  0  0  0  0  0  0
   -7.8136    4.9705   -3.5559 H   0  0  0  0  0  0  0  0  0  0  0  0
   -9.9241    1.1013   -2.0652 H   0  0  0  0  0  0  0  0  0  0  0  0
  -10.8893    0.4269    0.1644 H   0  0  0  0  0  0  0  0  0  0  0  0
  -10.5885    2.5195    1.4060 H   0  0  0  0  0  0  0  0  0  0  0  0
   -9.7193    1.2003    2.2550 H   0  0  0  0  0  0  0  0  0  0  0  0
   -8.7860    2.3899    1.2698 H   0  0  0  0  0  0  0  0  0  0  0  0
   -9.9983   -1.7585   -0.6390 H   0  0  0  0  0  0  0  0  0  0  0  0
   -9.0517   -3.5178    0.6789 H   0  0  0  0  0  0  0  0  0  0  0  0
   -9.9850   -1.3465    2.6537 H   0  0  0  0  0  0  0  0  0  0  0  0
   -9.9489   -3.1379    2.9236 H   0  0  0  0  0  0  0  0  0  0  0  0
  -11.0559   -2.4347    1.6880 H   0  0  0  0  0  0  0  0  0  0  0  0
   -5.4981   -2.2145    1.2575 H   0  0  0  0  0  0  0  0  0  0  0  0
   -7.1152   -2.9041   -1.0387 H   0  0  0  0  0  0  0  0  0  0  0  0
   -7.6494   -5.1053   -2.1075 H   0  0  0  0  0  0  0  0  0  0  0  0
   -7.8004   -6.5253   -1.0113 H   0  0  0  0  0  0  0  0  0  0  0  0
   -5.1775   -3.2792   -2.1483 H   0  0  0  0  0  0  0  0  0  0  0  0
   -4.4608   -2.3963   -0.7930 H   0  0  0  0  0  0  0  0  0  0  0  0
   -3.0899   -5.3863    1.3908 H   0  0  0  0  0  0  0  0  0  0  0  0
   -4.2149   -4.0276    1.5281 H   0  0  0  0  0  0  0  0  0  0  0  0
  1  2  1  0
  2  3  2  0
  2  4  1  0
  4  5  1  0
  5  6  1  0
  6  7  1  0
  7  8  1  0
  8  9  1  0
  9 10  1  0
 10 11  2  0
 11 12  1  0
 12 13  2  0
 13 14  1  0
 13 15  1  0
 15 16  1  0
 16 17  1  0
 17 18  1  0
 18 19  1  0
 19 20  1  0
 20 21  2  0
 20 22  1  0
 22 23  1  0
 22 24  1  0
 24 25  1  0
 25 26  2  0
 25 27  1  0
 27 28  1  0
 27 29  1  0
 29 30  1  0
 30 31  2  0
 30 32  1  0
 32 33  1  0
 32 34  1  0
 34 35  1  0
 35 36  2  0
 35 37  1  0
 37 38  1  0
 37 39  1  0
 39 40  1  0
 40 41  2  0
 40 42  1  0
 42 43  1  0
 42 44  1  0
 44 45  1  0
 45 46  2  0
 45 47  1  0
 47 48  1  0
 47 49  1  0
 49 50  1  0
 50 51  2  0
 50 52  1  0
 52 53  1  0
 52 54  1  0
 54 55  1  0
 55 56  2  0
 18 57  1  0
 57 58  2  0
 57 59  1  0
 59 60  1  0
 60 61  1  0
 60 62  1  0
 62 63  2  0
 62 64  1  0
 64 65  1  0
 65 66  1  0
 65 67  1  0
 67 68  2  0
 67 69  1  0
 69 70  1  0
 70 71  1  0
 70 72  1  0
 72 73  2  0
 72 74  1  0
 74 75  1  0
 75 76  1  0
 75 77  1  0
 77 78  2  0
 77 79  1  0
 79 80  1  0
 80 81  1  0
 81 82  1  0
 81 83  2  0
 80 84  1  0
 84 85  1  0
 85 86  1  0
 55  5  1  0
 14  9  2  0
 86 11  1  0
  1 87  1  0
  1 88  1  0
  1 89  1  0
  4 90  1  0
  5 91  1  6
  6 92  1  0
  6 93  1  0
  8 94  1  0
  8 95  1  0
 10 96  1  0
 12 97  1  0
 14 98  1  0
 15 99  1  0
 15100  1  0
 17101  1  0
 17102  1  0
 18103  1  6
 19104  1  0
 22105  1  6
 23106  1  0
 23107  1  0
 23108  1  0
 24109  1  0
 27110  1  6
 28111  1  0
 28112  1  0
 28113  1  0
 29114  1  0
 32115  1  6
 33116  1  0
 33117  1  0
 33118  1  0
 34119  1  0
 37120  1  6
 38121  1  0
 38122  1  0
 38123  1  0
 39124  1  0
 42125  1  6
 43126  1  0
 43127  1  0
 43128  1  0
 44129  1  0
 47130  1  1
 48131  1  0
 48132  1  0
 48133  1  0
 49134  1  0
 52135  1  1
 53136  1  0
 53137  1  0
 53138  1  0
 54139  1  0
 59140  1  0
 60141  1  6
 61142  1  0
 61143  1  0
 61144  1  0
 64145  1  0
 65146  1  6
 66147  1  0
 66148  1  0
 66149  1  0
 69150  1  0
 70151  1  1
 71152  1  0
 71153  1  0
 71154  1  0
 74155  1  0
 75156  1  6
 76157  1  0
 76158  1  0
 76159  1  0
 79160  1  0
 80161  1  6
 82162  1  0
 82163  1  0
 84164  1  0
 84165  1  0
 86166  1  0
 86167  1  0
M  END
