
     RDKit          3D

187189  0  0  0  0  0  0  0  0999 V2000
    3.9070    8.3004   -1.9987 C   0  0  0  0  0  0  0  0  0  0  0  0
    4.2690    8.3278   -0.5480 C   0  0  0  0  0  0  0  0  0  0  0  0
    4.6226    9.4146   -0.0178 O   0  0  0  0  0  0  0  0  0  0  0  0
    4.2064    7.1460    0.2679 N   0  0  0  0  0  0  0  0  0  0  0  0
    3.9543    5.7923   -0.2587 C   0  0  2  0  0  0  0  0  0  0  0  0
    3.2741    4.9163    0.8133 C   0  0  0  0  0  0  0  0  0  0  0  0
    1.4588    4.8929    0.6012 S   0  0  0  0  0  0  0  0  0  0  0  0
    1.4271    3.6548   -0.7461 C   0  0  0  0  0  0  0  0  0  0  0  0
    0.0796    2.9974   -0.7511 C   0  0  0  0  0  0  0  0  0  0  0  0
   -1.0137    3.6384   -1.3461 C   0  0  0  0  0  0  0  0  0  0  0  0
   -2.3036    3.0878   -1.2489 C   0  0  0  0  0  0  0  0  0  0  0  0
   -2.4725    1.8390   -0.6208 C   0  0  0  0  0  0  0  0  0  0  0  0
   -1.3805    1.1673   -0.0392 C   0  0  0  0  0  0  0  0  0  0  0  0
   -0.1080    1.7756   -0.0892 C   0  0  0  0  0  0  0  0  0  0  0  0
   -1.6404   -0.1039    0.7461 C   0  0  0  0  0  0  0  0  0  0  0  0
   -0.1399   -1.1207    1.0472 S   0  0  0  0  0  0  0  0  0  0  0  0
   -0.3625   -2.3275   -0.3144 C   0  0  0  0  0  0  0  0  0  0  0  0
   -0.9482   -3.6510    0.2243 C   0  0  2  0  0  0  0  0  0  0  0  0
   -0.0886   -4.2294    1.2692 N   0  0  0  0  0  0  0  0  0  0  0  0
    1.3411   -4.3292    1.1704 C   0  0  0  0  0  0  0  0  0  0  0  0
    2.0524   -3.4167    1.6707 O   0  0  0  0  0  0  0  0  0  0  0  0
    2.0344   -5.5170    0.5435 C   0  0  1  0  0  0  0  0  0  0  0  0
    1.2016   -6.8024    0.6390 C   0  0  0  0  0  0  0  0  0  0  0  0
    2.3706   -5.2199   -0.8487 N   0  0  0  0  0  0  0  0  0  0  0  0
    3.6679   -4.7454   -1.2360 C   0  0  0  0  0  0  0  0  0  0  0  0
    3.7599   -3.6093   -1.7855 O   0  0  0  0  0  0  0  0  0  0  0  0
    4.9190   -5.5656   -0.9866 C   0  0  1  0  0  0  0  0  0  0  0  0
    4.6450   -7.0508   -1.2403 C   0  0  0  0  0  0  0  0  0  0  0  0
    5.9919   -5.1286   -1.8899 N   0  0  0  0  0  0  0  0  0  0  0  0
    7.3285   -4.7347   -1.5180 C   0  0  0  0  0  0  0  0  0  0  0  0
    8.0528   -4.2165   -2.4119 O   0  0  0  0  0  0  0  0  0  0  0  0
    7.9069   -4.9244   -0.1232 C   0  0  1  0  0  0  0  0  0  0  0  0
    7.9467   -6.4021    0.2751 C   0  0  0  0  0  0  0  0  0  0  0  0
    9.2844   -4.4165   -0.0782 N   0  0  0  0  0  0  0  0  0  0  0  0
    9.8661   -3.7000    1.0243 C   0  0  0  0  0  0  0  0  0  0  0  0
   11.1004   -3.8308    1.2481 O   0  0  0  0  0  0  0  0  0  0  0  0
    9.0521   -2.8000    1.9171 C   0  0  1  0  0  0  0  0  0  0  0  0
    8.6350   -3.5577    3.1823 C   0  0  0  0  0  0  0  0  0  0  0  0
    9.8324   -1.6057    2.2750 N   0  0  0  0  0  0  0  0  0  0  0  0
   10.3326   -0.6664    1.3129 C   0  0  0  0  0  0  0  0  0  0  0  0
   11.4671   -0.1507    1.5079 O   0  0  0  0  0  0  0  0  0  0  0  0
    9.5719   -0.3366    0.0445 C   0  0  1  0  0  0  0  0  0  0  0  0
    8.1429    0.1699    0.2978 C   0  0  0  0  0  0  0  0  0  0  0  0
   10.3380    0.5597   -0.8345 N   0  0  0  0  0  0  0  0  0  0  0  0
   10.7078    1.9451   -0.6225 C   0  0  0  0  0  0  0  0  0  0  0  0
   11.6270    2.4257   -1.3437 O   0  0  0  0  0  0  0  0  0  0  0  0
   10.0592    2.8615    0.4044 C   0  0  1  0  0  0  0  0  0  0  0  0
   10.7852    2.8027    1.7543 C   0  0  0  0  0  0  0  0  0  0  0  0
   10.0680    4.2447   -0.0789 N   0  0  0  0  0  0  0  0  0  0  0  0
    8.9183    5.1091   -0.1650 C   0  0  0  0  0  0  0  0  0  0  0  0
    9.0903    6.2748   -0.6025 O   0  0  0  0  0  0  0  0  0  0  0  0
    7.5205    4.6622    0.2241 C   0  0  1  0  0  0  0  0  0  0  0  0
    7.3735    4.5794    1.7530 C   0  0  0  0  0  0  0  0  0  0  0  0
    6.5188    5.6032   -0.2847 N   0  0  0  0  0  0  0  0  0  0  0  0
    5.2342    5.1384   -0.7190 C   0  0  0  0  0  0  0  0  0  0  0  0
    5.1642    4.1302   -1.4763 O   0  0  0  0  0  0  0  0  0  0  0  0
   -1.2235   -4.6573   -0.8741 C   0  0  0  0  0  0  0  0  0  0  0  0
   -0.7964   -4.4401   -2.0381 O   0  0  0  0  0  0  0  0  0  0  0  0
   -1.9451   -5.8795   -0.6290 N   0  0  0  0  0  0  0  0  0  0  0  0
   -3.1117   -5.9898    0.2628 C   0  0  2  0  0  0  0  0  0  0  0  0
   -2.7019   -6.5953    1.6007 C   0  0  0  0  0  0  0  0  0  0  0  0
   -4.1674   -6.8575   -0.3961 C   0  0  0  0  0  0  0  0  0  0  0  0
   -3.9096   -8.0839   -0.5311 O   0  0  0  0  0  0  0  0  0  0  0  0
   -5.4348   -6.3747   -0.8972 N   0  0  0  0  0  0  0  0  0  0  0  0
   -5.8959   -4.9898   -1.1079 C   0  0  2  0  0  0  0  0  0  0  0  0
   -4.8627   -4.1134   -1.8237 C   0  0  0  0  0  0  0  0  0  0  0  0
   -6.4025   -4.3629    0.1757 C   0  0  0  0  0  0  0  0  0  0  0  0
   -5.7033   -4.4486    1.2232 O   0  0  0  0  0  0  0  0  0  0  0  0
   -7.6475   -3.6382    0.2525 N   0  0  0  0  0  0  0  0  0  0  0  0
   -8.7925   -3.8359   -0.6453 C   0  0  2  0  0  0  0  0  0  0  0  0
   -8.6899   -2.9527   -1.8964 C   0  0  0  0  0  0  0  0  0  0  0  0
  -10.0919   -3.6113    0.0885 C   0  0  0  0  0  0  0  0  0  0  0  0
  -10.6828   -4.6062    0.5962 O   0  0  0  0  0  0  0  0  0  0  0  0
  -10.6943   -2.3119    0.2232 N   0  0  0  0  0  0  0  0  0  0  0  0
   -9.9727   -1.1613    0.7745 C   0  0  2  0  0  0  0  0  0  0  0  0
  -10.0162   -1.2029    2.3034 C   0  0  0  0  0  0  0  0  0  0  0  0
  -10.5804    0.1200    0.2622 C   0  0  0  0  0  0  0  0  0  0  0  0
  -11.7503    0.4328    0.5933 O   0  0  0  0  0  0  0  0  0  0  0  0
   -9.7980    1.0166   -0.5429 N   0  0  0  0  0  0  0  0  0  0  0  0
  -10.1892    2.4175   -0.7386 C   0  0  2  0  0  0  0  0  0  0  0  0
  -11.1849    2.5323   -1.8994 C   0  0  0  0  0  0  0  0  0  0  0  0
   -8.9677    3.2681   -0.9808 C   0  0  0  0  0  0  0  0  0  0  0  0
   -8.4365    3.3166   -2.1260 O   0  0  0  0  0  0  0  0  0  0  0  0
   -8.3342    3.9299    0.1184 N   0  0  0  0  0  0  0  0  0  0  0  0
   -8.6081    5.3203    0.4931 C   0  0  2  0  0  0  0  0  0  0  0  0
  -10.0244    5.4591    1.0575 C   0  0  0  0  0  0  0  0  0  0  0  0
   -8.3929    6.2614   -0.6741 C   0  0  0  0  0  0  0  0  0  0  0  0
   -9.2335    6.2729   -1.6166 O   0  0  0  0  0  0  0  0  0  0  0  0
   -7.2985    7.1959   -0.7242 N   0  0  0  0  0  0  0  0  0  0  0  0
   -5.9166    6.9073   -0.3198 C   0  0  1  0  0  0  0  0  0  0  0  0
   -5.7738    6.9419    1.1874 C   0  0  0  0  0  0  0  0  0  0  0  0
   -6.2512    8.0691    1.9245 N   0  0  0  0  0  0  0  0  0  0  0  0
   -5.2595    5.9714    1.8064 O   0  0  0  0  0  0  0  0  0  0  0  0
   -5.4223    5.6033   -0.9647 C   0  0  0  0  0  0  0  0  0  0  0  0
   -3.6015    5.4718   -0.8902 S   0  0  0  0  0  0  0  0  0  0  0  0
   -3.4968    3.8583   -1.7577 C   0  0  0  0  0  0  0  0  0  0  0  0
    4.0628    9.3038   -2.4490 H   0  0  0  0  0  0  0  0  0  0  0  0
    4.5468    7.5655   -2.5316 H   0  0  0  0  0  0  0  0  0  0  0  0
    2.8353    8.0375   -2.1140 H   0  0  0  0  0  0  0  0  0  0  0  0
    4.5396    7.2356    1.2569 H   0  0  0  0  0  0  0  0  0  0  0  0
    3.2879    5.8649   -1.1474 H   0  0  0  0  0  0  0  0  0  0  0  0
    3.6652    3.8710    0.8070 H   0  0  0  0  0  0  0  0  0  0  0  0
    3.4907    5.3021    1.8339 H   0  0  0  0  0  0  0  0  0  0  0  0
    2.2102    2.8794   -0.5978 H   0  0  0  0  0  0  0  0  0  0  0  0
    1.6248    4.1488   -1.7231 H   0  0  0  0  0  0  0  0  0  0  0  0
   -0.8694    4.5994   -1.8269 H   0  0  0  0  0  0  0  0  0  0  0  0
   -3.4635    1.4006   -0.5523 H   0  0  0  0  0  0  0  0  0  0  0  0
    0.7370    1.3246    0.4161 H   0  0  0  0  0  0  0  0  0  0  0  0
   -2.0497    0.1853    1.7372 H   0  0  0  0  0  0  0  0  0  0  0  0
   -2.4297   -0.7106    0.2486 H   0  0  0  0  0  0  0  0  0  0  0  0
   -1.0098   -1.9053   -1.1118 H   0  0  0  0  0  0  0  0  0  0  0  0
    0.6315   -2.5113   -0.7739 H   0  0  0  0  0  0  0  0  0  0  0  0
   -1.9287   -3.3912    0.6881 H   0  0  0  0  0  0  0  0  0  0  0  0
   -0.4683   -4.2209    2.2432 H   0  0  0  0  0  0  0  0  0  0  0  0
    2.9703   -5.6982    1.1228 H   0  0  0  0  0  0  0  0  0  0  0  0
    0.4480   -6.8500   -0.1726 H   0  0  0  0  0  0  0  0  0  0  0  0
    1.8573   -7.6919    0.5367 H   0  0  0  0  0  0  0  0  0  0  0  0
    0.6806   -6.8721    1.6186 H   0  0  0  0  0  0  0  0  0  0  0  0
    1.5865   -5.0386   -1.5130 H   0  0  0  0  0  0  0  0  0  0  0  0
    5.2087   -5.4095    0.0743 H   0  0  0  0  0  0  0  0  0  0  0  0
    5.5876   -7.6325   -1.2121 H   0  0  0  0  0  0  0  0  0  0  0  0
    3.9633   -7.4622   -0.4712 H   0  0  0  0  0  0  0  0  0  0  0  0
    4.1863   -7.1990   -2.2412 H   0  0  0  0  0  0  0  0  0  0  0  0
    5.7712   -5.1031   -2.9129 H   0  0  0  0  0  0  0  0  0  0  0  0
    7.2664   -4.3828    0.5957 H   0  0  0  0  0  0  0  0  0  0  0  0
    6.9382   -6.8022    0.4877 H   0  0  0  0  0  0  0  0  0  0  0  0
    8.5416   -6.5234    1.2092 H   0  0  0  0  0  0  0  0  0  0  0  0
    8.4294   -7.0073   -0.5235 H   0  0  0  0  0  0  0  0  0  0  0  0
    9.9589   -4.8153   -0.7746 H   0  0  0  0  0  0  0  0  0  0  0  0
    8.1314   -2.4780    1.3980 H   0  0  0  0  0  0  0  0  0  0  0  0
    8.0356   -2.8907    3.8379 H   0  0  0  0  0  0  0  0  0  0  0  0
    8.0118   -4.4380    2.9182 H   0  0  0  0  0  0  0  0  0  0  0  0
    9.5283   -3.9023    3.7406 H   0  0  0  0  0  0  0  0  0  0  0  0
   10.2017   -1.5241    3.2525 H   0  0  0  0  0  0  0  0  0  0  0  0
    9.4635   -1.3050   -0.4984 H   0  0  0  0  0  0  0  0  0  0  0  0
    8.0644    0.6761    1.2840 H   0  0  0  0  0  0  0  0  0  0  0  0
    7.8154    0.8593   -0.5113 H   0  0  0  0  0  0  0  0  0  0  0  0
    7.4206   -0.6722    0.2999 H   0  0  0  0  0  0  0  0  0  0  0  0
   10.8026    0.0998   -1.6585 H   0  0  0  0  0  0  0  0  0  0  0  0
    9.0324    2.5359    0.5675 H   0  0  0  0  0  0  0  0  0  0  0  0
   10.6129    3.7455    2.3245 H   0  0  0  0  0  0  0  0  0  0  0  0
   10.3871    1.9703    2.3787 H   0  0  0  0  0  0  0  0  0  0  0  0
   11.8845    2.6845    1.6192 H   0  0  0  0  0  0  0  0  0  0  0  0
   10.9979    4.6749   -0.2983 H   0  0  0  0  0  0  0  0  0  0  0  0
    7.3274    3.6609   -0.2157 H   0  0  0  0  0  0  0  0  0  0  0  0
    6.3347    4.2760    2.0086 H   0  0  0  0  0  0  0  0  0  0  0  0
    8.0588    3.8252    2.1875 H   0  0  0  0  0  0  0  0  0  0  0  0
    7.5837    5.5660    2.2131 H   0  0  0  0  0  0  0  0  0  0  0  0
    6.6313    6.6119   -0.0365 H   0  0  0  0  0  0  0  0  0  0  0  0
   -1.7284   -6.6855   -1.2576 H   0  0  0  0  0  0  0  0  0  0  0  0
   -3.5086   -4.9864    0.4729 H   0  0  0  0  0  0  0  0  0  0  0  0
   -2.0139   -5.9210    2.1451 H   0  0  0  0  0  0  0  0  0  0  0  0
   -3.5971   -6.7355    2.2437 H   0  0  0  0  0  0  0  0  0  0  0  0
   -2.2032   -7.5793    1.4597 H   0  0  0  0  0  0  0  0  0  0  0  0
   -6.0661   -7.1156   -1.2779 H   0  0  0  0  0  0  0  0  0  0  0  0
   -6.7416   -5.0652   -1.8144 H   0  0  0  0  0  0  0  0  0  0  0  0
   -4.0908   -3.7159   -1.1399 H   0  0  0  0  0  0  0  0  0  0  0  0
   -4.3783   -4.6818   -2.6460 H   0  0  0  0  0  0  0  0  0  0  0  0
   -5.3714   -3.2316   -2.2637 H   0  0  0  0  0  0  0  0  0  0  0  0
   -7.7949   -3.0954    1.1338 H   0  0  0  0  0  0  0  0  0  0  0  0
   -8.8092   -4.9005   -0.9760 H   0  0  0  0  0  0  0  0  0  0  0  0
   -9.6319   -2.9975   -2.4821 H   0  0  0  0  0  0  0  0  0  0  0  0
   -7.8682   -3.2891   -2.5612 H   0  0  0  0  0  0  0  0  0  0  0  0
   -8.4866   -1.8934   -1.6310 H   0  0  0  0  0  0  0  0  0  0  0  0
  -11.7394   -2.3005    0.3134 H   0  0  0  0  0  0  0  0  0  0  0  0
   -8.9072   -1.1975    0.4681 H   0  0  0  0  0  0  0  0  0  0  0  0
   -9.4843   -0.3213    2.7275 H   0  0  0  0  0  0  0  0  0  0  0  0
   -9.5127   -2.1207    2.6686 H   0  0  0  0  0  0  0  0  0  0  0  0
  -11.0685   -1.2046    2.6651 H   0  0  0  0  0  0  0  0  0  0  0  0
   -8.8382    0.7172   -0.8159 H   0  0  0  0  0  0  0  0  0  0  0  0
  -10.6853    2.7882    0.1860 H   0  0  0  0  0  0  0  0  0  0  0  0
  -11.4931    3.5927   -2.0334 H   0  0  0  0  0  0  0  0  0  0  0  0
  -12.0903    1.9289   -1.6869 H   0  0  0  0  0  0  0  0  0  0  0  0
  -10.7261    2.1646   -2.8431 H   0  0  0  0  0  0  0  0  0  0  0  0
   -7.6017    3.3982    0.6477 H   0  0  0  0  0  0  0  0  0  0  0  0
   -7.9270    5.5954    1.3173 H   0  0  0  0  0  0  0  0  0  0  0  0
  -10.1744    6.4850    1.4506 H   0  0  0  0  0  0  0  0  0  0  0  0
  -10.7890    5.2604    0.2747 H   0  0  0  0  0  0  0  0  0  0  0  0
  -10.1693    4.7417    1.8891 H   0  0  0  0  0  0  0  0  0  0  0  0
   -7.4494    8.0616   -1.2919 H   0  0  0  0  0  0  0  0  0  0  0  0
   -5.2763    7.7292   -0.7103 H   0  0  0  0  0  0  0  0  0  0  0  0
   -6.6674    8.8921    1.4282 H   0  0  0  0  0  0  0  0  0  0  0  0
   -6.2229    8.0671    2.9694 H   0  0  0  0  0  0  0  0  0  0  0  0
   -5.7323    5.5754   -2.0312 H   0  0  0  0  0  0  0  0  0  0  0  0
   -5.8658    4.7240   -0.4507 H   0  0  0  0  0  0  0  0  0  0  0  0
   -4.4208    3.2604   -1.5991 H   0  0  0  0  0  0  0  0  0  0  0  0
   -3.3884    4.0380   -2.8457 H   0  0  0  0  0  0  0  0  0  0  0  0
  1  2  1  0
  2  3  2  0
  2  4  1  0
  4  5  1  0
  5  6  1  0
  6  7  1  0
  7  8  1  0
  8  9  1  0
  9 10  1  0
 10 11  2  0
 11 12  1  0
 12 13  2  0
 13 14  1  0
 13 15  1  0
 15 16  1  0
 16 17  1  0
 17 18  1  0
 18 19  1  0
 19 20  1  0
 20 21  2  0
 20 22  1  0
 22 23  1  0
 22 24  1  0
 24 25  1  0
 25 26  2  0
 25 27  1  0
 27 28  1  0
 27 29  1  0
 29 30  1  0
 30 31  2  0
 30 32  1  0
 32 33  1  0
 32 34  1  0
 34 35  1  0
 35 36  2  0
 35 37  1  0
 37 38  1  0
 37 39  1  0
 39 40  1  0
 40 41  2  0
 40 42  1  0
 42 43  1  0
 42 44  1  0
 44 45  1  0
 45 46  2  0
 45 47  1  0
 47 48  1  0
 47 49  1  0
 49 50  1  0
 50 51  2  0
 50 52  1  0
 52 53  1  0
 52 54  1  0
 54 55  1  0
 55 56  2  0
 18 57  1  0
 57 58  2  0
 57 59  1  0
 59 60  1  0
 60 61  1  0
 60 62  1  0
 62 63  2  0
 62 64  1  0
 64 65  1  0
 65 66  1  0
 65 67  1  0
 67 68  2  0
 67 69  1  0
 69 70  1  0
 70 71  1  0
 70 72  1  0
 72 73  2  0
 72 74  1  0
 74 75  1  0
 75 76  1  0
 75 77  1  0
 77 78  2  0
 77 79  1  0
 79 80  1  0
 80 81  1  0
 80 82  1  0
 82 83  2  0
 82 84  1  0
 84 85  1  0
 85 86  1  0
 85 87  1  0
 87 88  2  0
 87 89  1  0
 89 90  1  0
 90 91  1  0
 91 92  1  0
 91 93  2  0
 90 94  1  0
 94 95  1  0
 95 96  1  0
 55  5  1  0
 14  9  2  0
 96 11  1  0
  1 97  1  0
  1 98  1  0
  1 99  1  0
  4100  1  0
  5101  1  6
  6102  1  0
  6103  1  0
  8104  1  0
  8105  1  0
 10106  1  0
 12107  1  0
 14108  1  0
 15109  1  0
 15110  1  0
 17111  1  0
 17112  1  0
 18113  1  1
 19114  1  0
 22115  1  1
 23116  1  0
 23117  1  0
 23118  1  0
 24119  1  0
 27120  1  1
 28121  1  0
 28122  1  0
 28123  1  0
 29124  1  0
 32125  1  1
 33126  1  0
 33127  1  0
 33128  1  0
 34129  1  0
 37130  1  6
 38131  1  0
 38132  1  0
 38133  1  0
 39134  1  0
 42135  1  6
 43136  1  0
 43137  1  0
 43138  1  0
 44139  1  0
 47140  1  1
 48141  1  0
 48142  1  0
 48143  1  0
 49144  1  0
 52145  1  6
 53146  1  0
 53147  1  0
 53148  1  0
 54149  1  0
 59150  1  0
 60151  1  1
 61152  1  0
 61153  1  0
 61154  1  0
 64155  1  0
 65156  1  6
 66157  1  0
 66158  1  0
 66159  1  0
 69160  1  0
 70161  1  6
 71162  1  0
 71163  1  0
 71164  1  0
 74165  1  0
 75166  1  1
 76167  1  0
 76168  1  0
 76169  1  0
 79170  1  0
 80171  1  1
 81172  1  0
 81173  1  0
 81174  1  0
 84175  1  0
 85176  1  1
 86177  1  0
 86178  1  0
 86179  1  0
 89180  1  0
 90181  1  6
 92182  1  0
 92183  1  0
 94184  1  0
 94185  1  0
 96186  1  0
 96187  1  0
M  END
