
     RDKit          3D

177179  0  0  0  0  0  0  0  0999 V2000
    5.2070   -8.4676   -1.1976 C   0  0  0  0  0  0  0  0  0  0  0  0
    4.4927   -7.2686   -1.7406 C   0  0  0  0  0  0  0  0  0  0  0  0
    4.0577   -7.3009   -2.9265 O   0  0  0  0  0  0  0  0  0  0  0  0
    4.2756   -6.0840   -0.9536 N   0  0  0  0  0  0  0  0  0  0  0  0
    4.6041   -5.9860    0.4757 C   0  0  2  0  0  0  0  0  0  0  0  0
    3.4324   -6.4731    1.3677 C   0  0  0  0  0  0  0  0  0  0  0  0
    1.7753   -6.0319    0.7107 S   0  0  0  0  0  0  0  0  0  0  0  0
    1.4343   -4.6214    1.8218 C   0  0  0  0  0  0  0  0  0  0  0  0
    0.3849   -3.7476    1.1840 C   0  0  0  0  0  0  0  0  0  0  0  0
   -0.9190   -4.2394    1.0057 C   0  0  0  0  0  0  0  0  0  0  0  0
   -1.8685   -3.4893    0.3038 C   0  0  0  0  0  0  0  0  0  0  0  0
   -1.5241   -2.2187   -0.1756 C   0  0  0  0  0  0  0  0  0  0  0  0
   -0.2327   -1.7135    0.0115 C   0  0  0  0  0  0  0  0  0  0  0  0
    0.7211   -2.4822    0.6909 C   0  0  0  0  0  0  0  0  0  0  0  0
    0.1358   -0.3575   -0.5223 C   0  0  0  0  0  0  0  0  0  0  0  0
    0.2000    0.8292    0.8631 S   0  0  0  0  0  0  0  0  0  0  0  0
    0.2623    2.3567   -0.1564 C   0  0  0  0  0  0  0  0  0  0  0  0
   -0.8841    3.3199    0.2113 C   0  0  2  0  0  0  0  0  0  0  0  0
   -0.8207    3.6349    1.6462 N   0  0  0  0  0  0  0  0  0  0  0  0
    0.0018    4.6542    2.2430 C   0  0  0  0  0  0  0  0  0  0  0  0
    0.0164    4.7481    3.5034 O   0  0  0  0  0  0  0  0  0  0  0  0
    0.7663    5.6752    1.4243 C   0  0  1  0  0  0  0  0  0  0  0  0
   -0.1344    6.8800    1.1544 C   0  0  0  0  0  0  0  0  0  0  0  0
    1.9633    6.1050    2.1518 N   0  0  0  0  0  0  0  0  0  0  0  0
    3.2879    5.7739    1.7215 C   0  0  0  0  0  0  0  0  0  0  0  0
    4.0476    5.1684    2.5182 O   0  0  0  0  0  0  0  0  0  0  0  0
    3.7977    6.1060    0.3267 C   0  0  1  0  0  0  0  0  0  0  0  0
    3.0633    7.2831   -0.3246 C   0  0  0  0  0  0  0  0  0  0  0  0
    5.2267    6.4326    0.4058 N   0  0  0  0  0  0  0  0  0  0  0  0
    6.1737    6.2144   -0.6542 C   0  0  0  0  0  0  0  0  0  0  0  0
    7.2061    6.9449   -0.6964 O   0  0  0  0  0  0  0  0  0  0  0  0
    6.0219    5.1130   -1.6805 C   0  0  1  0  0  0  0  0  0  0  0  0
    5.5443    5.7010   -3.0158 C   0  0  0  0  0  0  0  0  0  0  0  0
    7.2982    4.4187   -1.8489 N   0  0  0  0  0  0  0  0  0  0  0  0
    7.9484    3.6700   -0.8100 C   0  0  0  0  0  0  0  0  0  0  0  0
    9.1974    3.5114   -0.8850 O   0  0  0  0  0  0  0  0  0  0  0  0
    7.1902    3.1004    0.3776 C   0  0  1  0  0  0  0  0  0  0  0  0
    6.0826    2.1022   -0.0164 C   0  0  0  0  0  0  0  0  0  0  0  0
    8.1067    2.4995    1.3664 N   0  0  0  0  0  0  0  0  0  0  0  0
    8.8448    1.2695    1.2267 C   0  0  0  0  0  0  0  0  0  0  0  0
    9.4253    0.8043    2.2485 O   0  0  0  0  0  0  0  0  0  0  0  0
    9.0001    0.5351   -0.0845 C   0  0  1  0  0  0  0  0  0  0  0  0
   10.4826    0.4903   -0.4938 C   0  0  0  0  0  0  0  0  0  0  0  0
    8.4850   -0.8293    0.0326 N   0  0  0  0  0  0  0  0  0  0  0  0
    8.2971   -1.6733   -1.1228 C   0  0  0  0  0  0  0  0  0  0  0  0
    8.1371   -1.1469   -2.2642 O   0  0  0  0  0  0  0  0  0  0  0  0
    8.2324   -3.1793   -0.9710 C   0  0  1  0  0  0  0  0  0  0  0  0
    8.6323   -3.9006   -2.2567 C   0  0  0  0  0  0  0  0  0  0  0  0
    9.1265   -3.5980    0.1129 N   0  0  0  0  0  0  0  0  0  0  0  0
    8.6817   -4.1899    1.3439 C   0  0  0  0  0  0  0  0  0  0  0  0
    9.3486   -3.9663    2.3912 O   0  0  0  0  0  0  0  0  0  0  0  0
    7.4622   -5.0787    1.3963 C   0  0  1  0  0  0  0  0  0  0  0  0
    7.5380   -6.0565    2.5787 C   0  0  0  0  0  0  0  0  0  0  0  0
    6.2449   -4.2682    1.5049 N   0  0  0  0  0  0  0  0  0  0  0  0
    5.0139   -4.5655    0.8144 C   0  0  0  0  0  0  0  0  0  0  0  0
    4.2495   -3.6134    0.5042 O   0  0  0  0  0  0  0  0  0  0  0  0
   -2.2405    2.7423   -0.1497 C   0  0  0  0  0  0  0  0  0  0  0  0
   -2.3930    2.0993   -1.2267 O   0  0  0  0  0  0  0  0  0  0  0  0
   -3.3774    2.9749    0.6859 N   0  0  0  0  0  0  0  0  0  0  0  0
   -4.3606    4.0051    0.3367 C   0  0  2  0  0  0  0  0  0  0  0  0
   -3.7242    5.4016    0.4331 C   0  0  0  0  0  0  0  0  0  0  0  0
   -5.5675    3.9406    1.2516 C   0  0  0  0  0  0  0  0  0  0  0  0
   -5.4139    3.6062    2.4586 O   0  0  0  0  0  0  0  0  0  0  0  0
   -6.8844    4.3117    0.8071 N   0  0  0  0  0  0  0  0  0  0  0  0
   -7.2273    4.6880   -0.5744 C   0  0  2  0  0  0  0  0  0  0  0  0
   -8.4268    5.6369   -0.5681 C   0  0  0  0  0  0  0  0  0  0  0  0
   -7.5342    3.4475   -1.3914 C   0  0  0  0  0  0  0  0  0  0  0  0
   -7.8261    3.5583   -2.6091 O   0  0  0  0  0  0  0  0  0  0  0  0
   -7.5194    2.1526   -0.7801 N   0  0  0  0  0  0  0  0  0  0  0  0
   -8.7343    1.3638   -0.5111 C   0  0  2  0  0  0  0  0  0  0  0  0
   -9.9576    2.2670   -0.2951 C   0  0  0  0  0  0  0  0  0  0  0  0
   -8.5056    0.4995    0.7103 C   0  0  0  0  0  0  0  0  0  0  0  0
   -7.7777    0.9382    1.6512 O   0  0  0  0  0  0  0  0  0  0  0  0
   -9.0846   -0.8022    0.8400 N   0  0  0  0  0  0  0  0  0  0  0  0
  -10.5132   -1.0630    0.6444 C   0  0  2  0  0  0  0  0  0  0  0  0
  -10.9731   -2.3133    1.4061 C   0  0  0  0  0  0  0  0  0  0  0  0
  -10.9108   -1.1231   -0.8156 C   0  0  0  0  0  0  0  0  0  0  0  0
  -11.9710   -0.5279   -1.1500 O   0  0  0  0  0  0  0  0  0  0  0  0
  -10.2029   -1.8491   -1.8398 N   0  0  0  0  0  0  0  0  0  0  0  0
   -8.8770   -2.4779   -1.7431 C   0  0  2  0  0  0  0  0  0  0  0  0
   -8.3061   -2.7036   -3.1511 C   0  0  0  0  0  0  0  0  0  0  0  0
   -8.9716   -3.7945   -1.0194 C   0  0  0  0  0  0  0  0  0  0  0  0
   -9.9519   -4.5582   -1.2446 O   0  0  0  0  0  0  0  0  0  0  0  0
   -8.0194   -4.1613   -0.0136 N   0  0  0  0  0  0  0  0  0  0  0  0
   -6.5808   -4.2928   -0.2837 C   0  0  2  0  0  0  0  0  0  0  0  0
   -6.0872   -5.5854    0.3173 C   0  0  0  0  0  0  0  0  0  0  0  0
   -5.5763   -6.6249   -0.5207 N   0  0  0  0  0  0  0  0  0  0  0  0
   -6.1475   -5.7667    1.5632 O   0  0  0  0  0  0  0  0  0  0  0  0
   -5.8186   -3.0160    0.1751 C   0  0  0  0  0  0  0  0  0  0  0  0
   -4.3834   -3.2707    1.2952 S   0  0  0  0  0  0  0  0  0  0  0  0
   -3.2540   -4.0149    0.0693 C   0  0  0  0  0  0  0  0  0  0  0  0
    6.2449   -8.1963   -0.9093 H   0  0  0  0  0  0  0  0  0  0  0  0
    5.2549   -9.2691   -1.9659 H   0  0  0  0  0  0  0  0  0  0  0  0
    4.6619   -8.8546   -0.3107 H   0  0  0  0  0  0  0  0  0  0  0  0
    3.6414   -5.3608   -1.3598 H   0  0  0  0  0  0  0  0  0  0  0  0
    5.4534   -6.6534    0.6905 H   0  0  0  0  0  0  0  0  0  0  0  0
    3.4627   -7.5815    1.4014 H   0  0  0  0  0  0  0  0  0  0  0  0
    3.5630   -6.1278    2.4163 H   0  0  0  0  0  0  0  0  0  0  0  0
    2.3531   -4.0387    2.0196 H   0  0  0  0  0  0  0  0  0  0  0  0
    1.0669   -4.9910    2.8046 H   0  0  0  0  0  0  0  0  0  0  0  0
   -1.1793   -5.2288    1.3763 H   0  0  0  0  0  0  0  0  0  0  0  0
   -2.2719   -1.6197   -0.6886 H   0  0  0  0  0  0  0  0  0  0  0  0
    1.7274   -2.1048    0.8134 H   0  0  0  0  0  0  0  0  0  0  0  0
   -0.6104   -0.0309   -1.2733 H   0  0  0  0  0  0  0  0  0  0  0  0
    1.1344   -0.3949   -1.0133 H   0  0  0  0  0  0  0  0  0  0  0  0
    0.2380    2.1375   -1.2471 H   0  0  0  0  0  0  0  0  0  0  0  0
    1.2387    2.8427    0.0459 H   0  0  0  0  0  0  0  0  0  0  0  0
   -0.7620    4.2415   -0.3925 H   0  0  0  0  0  0  0  0  0  0  0  0
   -1.2934    2.9791    2.3039 H   0  0  0  0  0  0  0  0  0  0  0  0
    1.0774    5.2230    0.4527 H   0  0  0  0  0  0  0  0  0  0  0  0
   -0.6536    7.1974    2.0836 H   0  0  0  0  0  0  0  0  0  0  0  0
    0.4553    7.7351    0.7820 H   0  0  0  0  0  0  0  0  0  0  0  0
   -0.8921    6.6186    0.3843 H   0  0  0  0  0  0  0  0  0  0  0  0
    1.8453    6.5105    3.1073 H   0  0  0  0  0  0  0  0  0  0  0  0
    3.6284    5.2063   -0.2932 H   0  0  0  0  0  0  0  0  0  0  0  0
    2.8824    8.0867    0.4115 H   0  0  0  0  0  0  0  0  0  0  0  0
    2.0987    6.9482   -0.7596 H   0  0  0  0  0  0  0  0  0  0  0  0
    3.6701    7.7081   -1.1496 H   0  0  0  0  0  0  0  0  0  0  0  0
    5.5195    7.0985    1.1554 H   0  0  0  0  0  0  0  0  0  0  0  0
    5.2700    4.3742   -1.3694 H   0  0  0  0  0  0  0  0  0  0  0  0
    6.2477    6.4847   -3.3763 H   0  0  0  0  0  0  0  0  0  0  0  0
    4.5336    6.1459   -2.9040 H   0  0  0  0  0  0  0  0  0  0  0  0
    5.4858    4.8964   -3.7729 H   0  0  0  0  0  0  0  0  0  0  0  0
    7.8508    4.5918   -2.7223 H   0  0  0  0  0  0  0  0  0  0  0  0
    6.6903    3.9596    0.8816 H   0  0  0  0  0  0  0  0  0  0  0  0
    6.2829    1.6302   -0.9973 H   0  0  0  0  0  0  0  0  0  0  0  0
    5.0953    2.6077   -0.0639 H   0  0  0  0  0  0  0  0  0  0  0  0
    5.9836    1.3047    0.7484 H   0  0  0  0  0  0  0  0  0  0  0  0
    8.1689    2.9816    2.2948 H   0  0  0  0  0  0  0  0  0  0  0  0
    8.4564    1.0484   -0.8959 H   0  0  0  0  0  0  0  0  0  0  0  0
   11.0688   -0.1293    0.2228 H   0  0  0  0  0  0  0  0  0  0  0  0
   10.5859    0.0494   -1.5106 H   0  0  0  0  0  0  0  0  0  0  0  0
   10.9102    1.5152   -0.5143 H   0  0  0  0  0  0  0  0  0  0  0  0
    8.4128   -1.2681    0.9736 H   0  0  0  0  0  0  0  0  0  0  0  0
    7.1816   -3.4370   -0.7419 H   0  0  0  0  0  0  0  0  0  0  0  0
    8.5661   -4.9962   -2.1040 H   0  0  0  0  0  0  0  0  0  0  0  0
    9.6751   -3.6369   -2.5497 H   0  0  0  0  0  0  0  0  0  0  0  0
    7.9472   -3.6246   -3.0865 H   0  0  0  0  0  0  0  0  0  0  0  0
   10.1329   -3.3207    0.0513 H   0  0  0  0  0  0  0  0  0  0  0  0
    7.4460   -5.6635    0.4543 H   0  0  0  0  0  0  0  0  0  0  0  0
    8.4526   -6.6784    2.5010 H   0  0  0  0  0  0  0  0  0  0  0  0
    7.5660   -5.5004    3.5450 H   0  0  0  0  0  0  0  0  0  0  0  0
    6.6590   -6.7323    2.6035 H   0  0  0  0  0  0  0  0  0  0  0  0
    6.3061   -3.3371    1.9806 H   0  0  0  0  0  0  0  0  0  0  0  0
   -3.6388    2.2107    1.3509 H   0  0  0  0  0  0  0  0  0  0  0  0
   -4.6759    3.8332   -0.7112 H   0  0  0  0  0  0  0  0  0  0  0  0
   -3.2282    5.5383    1.4123 H   0  0  0  0  0  0  0  0  0  0  0  0
   -2.9741    5.5201   -0.3728 H   0  0  0  0  0  0  0  0  0  0  0  0
   -4.5012    6.1904    0.3137 H   0  0  0  0  0  0  0  0  0  0  0  0
   -7.6630    4.2254    1.4996 H   0  0  0  0  0  0  0  0  0  0  0  0
   -6.3841    5.2322   -1.0452 H   0  0  0  0  0  0  0  0  0  0  0  0
   -8.2211    6.4977    0.0974 H   0  0  0  0  0  0  0  0  0  0  0  0
   -8.6244    6.0153   -1.5938 H   0  0  0  0  0  0  0  0  0  0  0  0
   -9.3355    5.1182   -0.1994 H   0  0  0  0  0  0  0  0  0  0  0  0
   -6.5837    1.6962   -0.6617 H   0  0  0  0  0  0  0  0  0  0  0  0
   -8.9210    0.7152   -1.3927 H   0  0  0  0  0  0  0  0  0  0  0  0
  -10.8713    1.6684   -0.1361 H   0  0  0  0  0  0  0  0  0  0  0  0
   -9.7992    2.9202    0.5940 H   0  0  0  0  0  0  0  0  0  0  0  0
  -10.1393    2.8964   -1.1895 H   0  0  0  0  0  0  0  0  0  0  0  0
   -8.5478   -1.4929    1.4112 H   0  0  0  0  0  0  0  0  0  0  0  0
  -11.0793   -0.2272    1.1155 H   0  0  0  0  0  0  0  0  0  0  0  0
  -10.7915   -2.1742    2.4944 H   0  0  0  0  0  0  0  0  0  0  0  0
  -12.0630   -2.4887    1.2596 H   0  0  0  0  0  0  0  0  0  0  0  0
  -10.4197   -3.2097    1.0865 H   0  0  0  0  0  0  0  0  0  0  0  0
  -10.6602   -1.8459   -2.7832 H   0  0  0  0  0  0  0  0  0  0  0  0
   -8.1658   -1.8042   -1.2224 H   0  0  0  0  0  0  0  0  0  0  0  0
   -7.3015   -3.1752   -3.1103 H   0  0  0  0  0  0  0  0  0  0  0  0
   -8.2040   -1.7276   -3.6748 H   0  0  0  0  0  0  0  0  0  0  0  0
   -8.9763   -3.3579   -3.7490 H   0  0  0  0  0  0  0  0  0  0  0  0
   -8.3961   -4.5344    0.8919 H   0  0  0  0  0  0  0  0  0  0  0  0
   -6.4387   -4.3749   -1.3874 H   0  0  0  0  0  0  0  0  0  0  0  0
   -5.2493   -7.5205   -0.0994 H   0  0  0  0  0  0  0  0  0  0  0  0
   -5.4951   -6.4972   -1.5557 H   0  0  0  0  0  0  0  0  0  0  0  0
   -5.4810   -2.4341   -0.7142 H   0  0  0  0  0  0  0  0  0  0  0  0
   -6.5081   -2.3352    0.7171 H   0  0  0  0  0  0  0  0  0  0  0  0
   -3.5619   -3.7846   -0.9706 H   0  0  0  0  0  0  0  0  0  0  0  0
   -3.2735   -5.1223    0.1918 H   0  0  0  0  0  0  0  0  0  0  0  0
  1  2  1  0
  2  3  2  0
  2  4  1  0
  4  5  1  0
  5  6  1  0
  6  7  1  0
  7  8  1  0
  8  9  1  0
  9 10  1  0
 10 11  2  0
 11 12  1  0
 12 13  2  0
 13 14  1  0
 13 15  1  0
 15 16  1  0
 16 17  1  0
 17 18  1  0
 18 19  1  0
 19 20  1  0
 20 21  2  0
 20 22  1  0
 22 23  1  0
 22 24  1  0
 24 25  1  0
 25 26  2  0
 25 27  1  0
 27 28  1  0
 27 29  1  0
 29 30  1  0
 30 31  2  0
 30 32  1  0
 32 33  1  0
 32 34  1  0
 34 35  1  0
 35 36  2  0
 35 37  1  0
 37 38  1  0
 37 39  1  0
 39 40  1  0
 40 41  2  0
 40 42  1  0
 42 43  1  0
 42 44  1  0
 44 45  1  0
 45 46  2  0
 45 47  1  0
 47 48  1  0
 47 49  1  0
 49 50  1  0
 50 51  2  0
 50 52  1  0
 52 53  1  0
 52 54  1  0
 54 55  1  0
 55 56  2  0
 18 57  1  0
 57 58  2  0
 57 59  1  0
 59 60  1  0
 60 61  1  0
 60 62  1  0
 62 63  2  0
 62 64  1  0
 64 65  1  0
 65 66  1  0
 65 67  1  0
 67 68  2  0
 67 69  1  0
 69 70  1  0
 70 71  1  0
 70 72  1  0
 72 73  2  0
 72 74  1  0
 74 75  1  0
 75 76  1  0
 75 77  1  0
 77 78  2  0
 77 79  1  0
 79 80  1  0
 80 81  1  0
 80 82  1  0
 82 83  2  0
 82 84  1  0
 84 85  1  0
 85 86  1  0
 86 87  1  0
 86 88  2  0
 85 89  1  0
 89 90  1  0
 90 91  1  0
 55  5  1  0
 14  9  2  0
 91 11  1  0
  1 92  1  0
  1 93  1  0
  1 94  1  0
  4 95  1  0
  5 96  1  6
  6 97  1  0
  6 98  1  0
  8 99  1  0
  8100  1  0
 10101  1  0
 12102  1  0
 14103  1  0
 15104  1  0
 15105  1  0
 17106  1  0
 17107  1  0
 18108  1  6
 19109  1  0
 22110  1  6
 23111  1  0
 23112  1  0
 23113  1  0
 24114  1  0
 27115  1  6
 28116  1  0
 28117  1  0
 28118  1  0
 29119  1  0
 32120  1  1
 33121  1  0
 33122  1  0
 33123  1  0
 34124  1  0
 37125  1  1
 38126  1  0
 38127  1  0
 38128  1  0
 39129  1  0
 42130  1  6
 43131  1  0
 43132  1  0
 43133  1  0
 44134  1  0
 47135  1  1
 48136  1  0
 48137  1  0
 48138  1  0
 49139  1  0
 52140  1  6
 53141  1  0
 53142  1  0
 53143  1  0
 54144  1  0
 59145  1  0
 60146  1  6
 61147  1  0
 61148  1  0
 61149  1  0
 64150  1  0
 65151  1  6
 66152  1  0
 66153  1  0
 66154  1  0
 69155  1  0
 70156  1  6
 71157  1  0
 71158  1  0
 71159  1  0
 74160  1  0
 75161  1  1
 76162  1  0
 76163  1  0
 76164  1  0
 79165  1  0
 80166  1  1
 81167  1  0
 81168  1  0
 81169  1  0
 84170  1  0
 85171  1  6
 87172  1  0
 87173  1  0
 89174  1  0
 89175  1  0
 91176  1  0
 91177  1  0
M  END
