
     RDKit          3D

117119  0  0  0  0  0  0  0  0999 V2000
    9.5963    2.1719   -0.5771 C   0  0  0  0  0  0  0  0  0  0  0  0
    8.7161    1.0119   -0.2507 C   0  0  0  0  0  0  0  0  0  0  0  0
    9.1791    0.0446    0.4042 O   0  0  0  0  0  0  0  0  0  0  0  0
    7.3770    0.9678   -0.7661 N   0  0  0  0  0  0  0  0  0  0  0  0
    6.1751    0.6884    0.0343 C   0  0  2  0  0  0  0  0  0  0  0  0
    5.7220    1.9587    0.7838 C   0  0  0  0  0  0  0  0  0  0  0  0
    5.6685    3.4640   -0.2768 S   0  0  0  0  0  0  0  0  0  0  0  0
    4.2578    2.9934   -1.3505 C   0  0  0  0  0  0  0  0  0  0  0  0
    2.9900    2.8251   -0.5583 C   0  0  0  0  0  0  0  0  0  0  0  0
    2.3870    3.9391    0.0483 C   0  0  0  0  0  0  0  0  0  0  0  0
    1.2092    3.7903    0.7993 C   0  0  0  0  0  0  0  0  0  0  0  0
    0.6455    2.5078    0.9466 C   0  0  0  0  0  0  0  0  0  0  0  0
    1.2316    1.3908    0.3209 C   0  0  0  0  0  0  0  0  0  0  0  0
    2.4017    1.5598   -0.4222 C   0  0  0  0  0  0  0  0  0  0  0  0
    0.5747    0.0457    0.4170 C   0  0  0  0  0  0  0  0  0  0  0  0
    0.9567   -0.7812    2.0079 S   0  0  0  0  0  0  0  0  0  0  0  0
    2.6637   -1.3497    1.6424 C   0  0  0  0  0  0  0  0  0  0  0  0
    2.7961   -2.5993    0.7403 C   0  0  2  0  0  0  0  0  0  0  0  0
    3.0516   -2.2126   -0.6548 N   0  0  0  0  0  0  0  0  0  0  0  0
    4.3535   -1.9301   -1.1977 C   0  0  0  0  0  0  0  0  0  0  0  0
    4.4236   -1.2978   -2.2873 O   0  0  0  0  0  0  0  0  0  0  0  0
    5.6221   -2.4368   -0.5431 C   0  0  1  0  0  0  0  0  0  0  0  0
    6.8496   -2.3567   -1.4608 C   0  0  0  0  0  0  0  0  0  0  0  0
    5.8846   -1.7959    0.7531 N   0  0  0  0  0  0  0  0  0  0  0  0
    6.3795   -0.4659    0.9963 C   0  0  0  0  0  0  0  0  0  0  0  0
    6.9805   -0.2456    2.0874 O   0  0  0  0  0  0  0  0  0  0  0  0
    1.6426   -3.5741    0.8450 C   0  0  0  0  0  0  0  0  0  0  0  0
    1.6789   -4.4874    1.7116 O   0  0  0  0  0  0  0  0  0  0  0  0
    0.5400   -3.5083   -0.0646 N   0  0  0  0  0  0  0  0  0  0  0  0
    0.2762   -4.5833   -1.0190 C   0  0  2  0  0  0  0  0  0  0  0  0
   -0.3560   -4.0166   -2.2918 C   0  0  0  0  0  0  0  0  0  0  0  0
   -0.6235   -5.6235   -0.4196 C   0  0  0  0  0  0  0  0  0  0  0  0
   -0.2604   -6.8290   -0.4190 O   0  0  0  0  0  0  0  0  0  0  0  0
   -1.9336   -5.2831    0.0494 N   0  0  0  0  0  0  0  0  0  0  0  0
   -2.1458   -4.5744    1.3162 C   0  0  2  0  0  0  0  0  0  0  0  0
   -2.7965   -5.5157    2.3251 C   0  0  0  0  0  0  0  0  0  0  0  0
   -3.0193   -3.3637    1.1079 C   0  0  0  0  0  0  0  0  0  0  0  0
   -2.7208   -2.2761    1.6632 O   0  0  0  0  0  0  0  0  0  0  0  0
   -4.2157   -3.4559    0.3288 N   0  0  0  0  0  0  0  0  0  0  0  0
   -5.5245   -3.2367    0.9349 C   0  0  2  0  0  0  0  0  0  0  0  0
   -6.4921   -4.3075    0.4543 C   0  0  0  0  0  0  0  0  0  0  0  0
   -6.0758   -1.8650    0.6341 C   0  0  0  0  0  0  0  0  0  0  0  0
   -7.0294   -1.4402    1.3398 O   0  0  0  0  0  0  0  0  0  0  0  0
   -5.5791   -1.0614   -0.4538 N   0  0  0  0  0  0  0  0  0  0  0  0
   -6.3253    0.1102   -0.9352 C   0  0  2  0  0  0  0  0  0  0  0  0
   -7.5058   -0.3461   -1.8009 C   0  0  0  0  0  0  0  0  0  0  0  0
   -5.4234    1.0461   -1.7087 C   0  0  0  0  0  0  0  0  0  0  0  0
   -5.0410    0.7270   -2.8682 O   0  0  0  0  0  0  0  0  0  0  0  0
   -4.9981    2.2996   -1.1576 N   0  0  0  0  0  0  0  0  0  0  0  0
   -4.6547    2.4845    0.2543 C   0  0  2  0  0  0  0  0  0  0  0  0
   -5.6273    3.4674    0.9079 C   0  0  0  0  0  0  0  0  0  0  0  0
   -3.2068    2.9004    0.3598 C   0  0  0  0  0  0  0  0  0  0  0  0
   -2.3328    2.1009   -0.0592 O   0  0  0  0  0  0  0  0  0  0  0  0
   -2.7829    4.1253    0.9757 N   0  0  0  0  0  0  0  0  0  0  0  0
   -2.9894    5.4602    0.3953 C   0  0  2  0  0  0  0  0  0  0  0  0
   -3.2149    5.4155   -1.1001 C   0  0  0  0  0  0  0  0  0  0  0  0
   -4.3686    6.0221   -1.6792 N   0  0  0  0  0  0  0  0  0  0  0  0
   -2.3955    4.8282   -1.8484 O   0  0  0  0  0  0  0  0  0  0  0  0
   -1.8224    6.3978    0.7628 C   0  0  0  0  0  0  0  0  0  0  0  0
   -0.2310    5.9394   -0.0287 S   0  0  0  0  0  0  0  0  0  0  0  0
    0.5073    4.9910    1.3521 C   0  0  0  0  0  0  0  0  0  0  0  0
   10.6214    2.0183   -0.1709 H   0  0  0  0  0  0  0  0  0  0  0  0
    9.1635    3.0854   -0.1153 H   0  0  0  0  0  0  0  0  0  0  0  0
    9.6572    2.3072   -1.6790 H   0  0  0  0  0  0  0  0  0  0  0  0
    7.2233    1.4091   -1.7042 H   0  0  0  0  0  0  0  0  0  0  0  0
    5.3639    0.4174   -0.6639 H   0  0  0  0  0  0  0  0  0  0  0  0
    4.7304    1.7888    1.2461 H   0  0  0  0  0  0  0  0  0  0  0  0
    6.4367    2.1782    1.6077 H   0  0  0  0  0  0  0  0  0  0  0  0
    4.5072    2.0761   -1.9199 H   0  0  0  0  0  0  0  0  0  0  0  0
    4.1087    3.7992   -2.0962 H   0  0  0  0  0  0  0  0  0  0  0  0
    2.8256    4.9231   -0.0725 H   0  0  0  0  0  0  0  0  0  0  0  0
   -0.2572    2.3731    1.5264 H   0  0  0  0  0  0  0  0  0  0  0  0
    2.8559    0.7056   -0.9090 H   0  0  0  0  0  0  0  0  0  0  0  0
   -0.5277    0.1719    0.3608 H   0  0  0  0  0  0  0  0  0  0  0  0
    0.8605   -0.5796   -0.4440 H   0  0  0  0  0  0  0  0  0  0  0  0
    3.1082   -1.5919    2.6291 H   0  0  0  0  0  0  0  0  0  0  0  0
    3.2708   -0.5066    1.2517 H   0  0  0  0  0  0  0  0  0  0  0  0
    3.6721   -3.1641    1.1056 H   0  0  0  0  0  0  0  0  0  0  0  0
    2.2394   -2.0548   -1.2922 H   0  0  0  0  0  0  0  0  0  0  0  0
    5.4614   -3.5238   -0.3585 H   0  0  0  0  0  0  0  0  0  0  0  0
    6.7165   -3.0333   -2.3336 H   0  0  0  0  0  0  0  0  0  0  0  0
    7.7575   -2.6834   -0.9092 H   0  0  0  0  0  0  0  0  0  0  0  0
    7.0111   -1.3339   -1.8493 H   0  0  0  0  0  0  0  0  0  0  0  0
    5.8815   -2.4327    1.5815 H   0  0  0  0  0  0  0  0  0  0  0  0
   -0.0508   -2.6452   -0.0960 H   0  0  0  0  0  0  0  0  0  0  0  0
    1.2361   -5.0577   -1.3061 H   0  0  0  0  0  0  0  0  0  0  0  0
   -0.5013   -4.8250   -3.0357 H   0  0  0  0  0  0  0  0  0  0  0  0
   -1.3411   -3.5493   -2.0751 H   0  0  0  0  0  0  0  0  0  0  0  0
    0.3133   -3.2519   -2.7369 H   0  0  0  0  0  0  0  0  0  0  0  0
   -2.7384   -5.7979   -0.3721 H   0  0  0  0  0  0  0  0  0  0  0  0
   -1.1749   -4.2536    1.7528 H   0  0  0  0  0  0  0  0  0  0  0  0
   -2.1418   -6.3950    2.5010 H   0  0  0  0  0  0  0  0  0  0  0  0
   -3.7805   -5.8687    1.9563 H   0  0  0  0  0  0  0  0  0  0  0  0
   -2.9480   -4.9965    3.2950 H   0  0  0  0  0  0  0  0  0  0  0  0
   -4.1479   -3.7746   -0.6736 H   0  0  0  0  0  0  0  0  0  0  0  0
   -5.4303   -3.3293    2.0431 H   0  0  0  0  0  0  0  0  0  0  0  0
   -6.6644   -4.2186   -0.6377 H   0  0  0  0  0  0  0  0  0  0  0  0
   -6.0808   -5.3119    0.6752 H   0  0  0  0  0  0  0  0  0  0  0  0
   -7.4633   -4.2062    0.9736 H   0  0  0  0  0  0  0  0  0  0  0  0
   -4.6566   -1.3049   -0.9058 H   0  0  0  0  0  0  0  0  0  0  0  0
   -6.7432    0.6632   -0.0621 H   0  0  0  0  0  0  0  0  0  0  0  0
   -7.1458   -0.9171   -2.6852 H   0  0  0  0  0  0  0  0  0  0  0  0
   -8.1734   -1.0069   -1.2132 H   0  0  0  0  0  0  0  0  0  0  0  0
   -8.0926    0.5311   -2.1410 H   0  0  0  0  0  0  0  0  0  0  0  0
   -4.8068    3.0786   -1.8274 H   0  0  0  0  0  0  0  0  0  0  0  0
   -4.7460    1.5169    0.7981 H   0  0  0  0  0  0  0  0  0  0  0  0
   -6.6431    3.0230    0.9446 H   0  0  0  0  0  0  0  0  0  0  0  0
   -5.3112    3.6853    1.9488 H   0  0  0  0  0  0  0  0  0  0  0  0
   -5.6781    4.4111    0.3354 H   0  0  0  0  0  0  0  0  0  0  0  0
   -2.4917    4.0631    1.9766 H   0  0  0  0  0  0  0  0  0  0  0  0
   -3.8969    5.8886    0.8656 H   0  0  0  0  0  0  0  0  0  0  0  0
   -5.0619    6.5340   -1.0923 H   0  0  0  0  0  0  0  0  0  0  0  0
   -4.5553    5.9117   -2.7020 H   0  0  0  0  0  0  0  0  0  0  0  0
   -2.0724    7.4235    0.4217 H   0  0  0  0  0  0  0  0  0  0  0  0
   -1.7121    6.4605    1.8646 H   0  0  0  0  0  0  0  0  0  0  0  0
   -0.2607    4.6781    2.0864 H   0  0  0  0  0  0  0  0  0  0  0  0
    1.2284    5.6373    1.8816 H   0  0  0  0  0  0  0  0  0  0  0  0
  1  2  1  0
  2  3  2  0
  2  4  1  0
  4  5  1  0
  5  6  1  0
  6  7  1  0
  7  8  1  0
  8  9  1  0
  9 10  1  0
 10 11  2  0
 11 12  1  0
 12 13  2  0
 13 14  1  0
 13 15  1  0
 15 16  1  0
 16 17  1  0
 17 18  1  0
 18 19  1  0
 19 20  1  0
 20 21  2  0
 20 22  1  0
 22 23  1  0
 22 24  1  0
 24 25  1  0
 25 26  2  0
 18 27  1  0
 27 28  2  0
 27 29  1  0
 29 30  1  0
 30 31  1  0
 30 32  1  0
 32 33  2  0
 32 34  1  0
 34 35  1  0
 35 36  1  0
 35 37  1  0
 37 38  2  0
 37 39  1  0
 39 40  1  0
 40 41  1  0
 40 42  1  0
 42 43  2  0
 42 44  1  0
 44 45  1  0
 45 46  1  0
 45 47  1  0
 47 48  2  0
 47 49  1  0
 49 50  1  0
 50 51  1  0
 50 52  1  0
 52 53  2  0
 52 54  1  0
 54 55  1  0
 55 56  1  0
 56 57  1  0
 56 58  2  0
 55 59  1  0
 59 60  1  0
 60 61  1  0
 25  5  1  0
 14  9  2  0
 61 11  1  0
  1 62  1  0
  1 63  1  0
  1 64  1  0
  4 65  1  0
  5 66  1  6
  6 67  1  0
  6 68  1  0
  8 69  1  0
  8 70  1  0
 10 71  1  0
 12 72  1  0
 14 73  1  0
 15 74  1  0
 15 75  1  0
 17 76  1  0
 17 77  1  0
 18 78  1  1
 19 79  1  0
 22 80  1  1
 23 81  1  0
 23 82  1  0
 23 83  1  0
 24 84  1  0
 29 85  1  0
 30 86  1  6
 31 87  1  0
 31 88  1  0
 31 89  1  0
 34 90  1  0
 35 91  1  1
 36 92  1  0
 36 93  1  0
 36 94  1  0
 39 95  1  0
 40 96  1  1
 41 97  1  0
 41 98  1  0
 41 99  1  0
 44100  1  0
 45101  1  1
 46102  1  0
 46103  1  0
 46104  1  0
 49105  1  0
 50106  1  1
 51107  1  0
 51108  1  0
 51109  1  0
 54110  1  0
 55111  1  1
 57112  1  0
 57113  1  0
 59114  1  0
 59115  1  0
 61116  1  0
 61117  1  0
M  END
