
     RDKit          3D

117119  0  0  0  0  0  0  0  0999 V2000
    9.0117    2.1962   -1.1139 C   0  0  0  0  0  0  0  0  0  0  0  0
    8.9055    2.2311    0.3838 C   0  0  0  0  0  0  0  0  0  0  0  0
    9.7747    2.8833    1.0241 O   0  0  0  0  0  0  0  0  0  0  0  0
    7.8327    1.5961    1.1107 N   0  0  0  0  0  0  0  0  0  0  0  0
    6.8822    0.5969    0.5928 C   0  0  1  0  0  0  0  0  0  0  0  0
    5.9795    1.1788   -0.5162 C   0  0  0  0  0  0  0  0  0  0  0  0
    5.5340    2.9508   -0.2842 S   0  0  0  0  0  0  0  0  0  0  0  0
    4.4661    2.8059    1.1912 C   0  0  0  0  0  0  0  0  0  0  0  0
    3.0193    2.7905    0.7868 C   0  0  0  0  0  0  0  0  0  0  0  0
    2.2369    3.9532    0.8678 C   0  0  0  0  0  0  0  0  0  0  0  0
    0.8765    3.9153    0.5199 C   0  0  0  0  0  0  0  0  0  0  0  0
    0.2983    2.7084    0.0996 C   0  0  0  0  0  0  0  0  0  0  0  0
    1.0673    1.5370    0.0263 C   0  0  0  0  0  0  0  0  0  0  0  0
    2.4273    1.5913    0.3819 C   0  0  0  0  0  0  0  0  0  0  0  0
    0.3701    0.2327   -0.2876 C   0  0  0  0  0  0  0  0  0  0  0  0
    1.4652   -1.0120   -1.0616 S   0  0  0  0  0  0  0  0  0  0  0  0
    1.8627   -1.9316    0.4906 C   0  0  0  0  0  0  0  0  0  0  0  0
    2.5821   -3.2692    0.2329 C   0  0  2  0  0  0  0  0  0  0  0  0
    3.5228   -3.1747   -0.8894 N   0  0  0  0  0  0  0  0  0  0  0  0
    4.9475   -3.2509   -0.7320 C   0  0  0  0  0  0  0  0  0  0  0  0
    5.5974   -4.0501   -1.4599 O   0  0  0  0  0  0  0  0  0  0  0  0
    5.6873   -2.3672    0.2525 C   0  0  1  0  0  0  0  0  0  0  0  0
    6.1381   -3.1840    1.4688 C   0  0  0  0  0  0  0  0  0  0  0  0
    6.8675   -1.7814   -0.3976 N   0  0  0  0  0  0  0  0  0  0  0  0
    7.5899   -0.6662    0.1413 C   0  0  0  0  0  0  0  0  0  0  0  0
    8.8459   -0.7486    0.2234 O   0  0  0  0  0  0  0  0  0  0  0  0
    1.6218   -4.4121   -0.0124 C   0  0  0  0  0  0  0  0  0  0  0  0
    1.8229   -5.5223    0.5511 O   0  0  0  0  0  0  0  0  0  0  0  0
    0.5270   -4.2731   -0.9266 N   0  0  0  0  0  0  0  0  0  0  0  0
    0.0540   -5.3863   -1.7549 C   0  0  2  0  0  0  0  0  0  0  0  0
   -0.1593   -4.8812   -3.1860 C   0  0  0  0  0  0  0  0  0  0  0  0
   -1.2166   -5.9926   -1.2103 C   0  0  0  0  0  0  0  0  0  0  0  0
   -1.7131   -6.9820   -1.8185 O   0  0  0  0  0  0  0  0  0  0  0  0
   -1.8561   -5.4944   -0.0119 N   0  0  0  0  0  0  0  0  0  0  0  0
   -3.2062   -5.8842    0.4174 C   0  0  2  0  0  0  0  0  0  0  0  0
   -3.2443   -7.3537    0.8601 C   0  0  0  0  0  0  0  0  0  0  0  0
   -4.2244   -5.5728   -0.6636 C   0  0  0  0  0  0  0  0  0  0  0  0
   -4.5514   -6.4735   -1.4823 O   0  0  0  0  0  0  0  0  0  0  0  0
   -4.7730   -4.2541   -0.8360 N   0  0  0  0  0  0  0  0  0  0  0  0
   -4.7842   -3.2219    0.2078 C   0  0  2  0  0  0  0  0  0  0  0  0
   -5.7898   -3.5948    1.3071 C   0  0  0  0  0  0  0  0  0  0  0  0
   -5.1708   -1.8854   -0.3774 C   0  0  0  0  0  0  0  0  0  0  0  0
   -6.3031   -1.7498   -0.9134 O   0  0  0  0  0  0  0  0  0  0  0  0
   -4.2698   -0.7651   -0.2898 N   0  0  0  0  0  0  0  0  0  0  0  0
   -4.6840    0.5782    0.1562 C   0  0  2  0  0  0  0  0  0  0  0  0
   -5.5072    0.4945    1.4491 C   0  0  0  0  0  0  0  0  0  0  0  0
   -5.4420    1.3227   -0.9245 C   0  0  0  0  0  0  0  0  0  0  0  0
   -6.4375    0.7873   -1.4832 O   0  0  0  0  0  0  0  0  0  0  0  0
   -5.0671    2.6438   -1.3282 N   0  0  0  0  0  0  0  0  0  0  0  0
   -4.9055    3.7448   -0.3654 C   0  0  2  0  0  0  0  0  0  0  0  0
   -6.2865    4.1919    0.1318 C   0  0  0  0  0  0  0  0  0  0  0  0
   -4.1834    4.9088   -1.0124 C   0  0  0  0  0  0  0  0  0  0  0  0
   -4.4252    5.2009   -2.2170 O   0  0  0  0  0  0  0  0  0  0  0  0
   -3.2214    5.7024   -0.2969 N   0  0  0  0  0  0  0  0  0  0  0  0
   -3.4271    6.1439    1.0881 C   0  0  2  0  0  0  0  0  0  0  0  0
   -4.3300    7.3497    1.1093 C   0  0  0  0  0  0  0  0  0  0  0  0
   -4.0825    8.4775    0.2657 N   0  0  0  0  0  0  0  0  0  0  0  0
   -5.3343    7.3615    1.8723 O   0  0  0  0  0  0  0  0  0  0  0  0
   -2.0892    6.4693    1.7586 C   0  0  0  0  0  0  0  0  0  0  0  0
   -1.1221    4.9415    2.0457 S   0  0  0  0  0  0  0  0  0  0  0  0
    0.0191    5.1369    0.6395 C   0  0  0  0  0  0  0  0  0  0  0  0
    8.9786    1.1590   -1.4954 H   0  0  0  0  0  0  0  0  0  0  0  0
    9.9716    2.6469   -1.4399 H   0  0  0  0  0  0  0  0  0  0  0  0
    8.1910    2.7889   -1.5645 H   0  0  0  0  0  0  0  0  0  0  0  0
    7.7475    1.8339    2.1264 H   0  0  0  0  0  0  0  0  0  0  0  0
    6.2295    0.2914    1.4350 H   0  0  0  0  0  0  0  0  0  0  0  0
    6.4901    1.0889   -1.4983 H   0  0  0  0  0  0  0  0  0  0  0  0
    5.0549    0.5761   -0.6114 H   0  0  0  0  0  0  0  0  0  0  0  0
    4.7020    1.9081    1.7959 H   0  0  0  0  0  0  0  0  0  0  0  0
    4.6757    3.6876    1.8369 H   0  0  0  0  0  0  0  0  0  0  0  0
    2.6811    4.8848    1.2079 H   0  0  0  0  0  0  0  0  0  0  0  0
   -0.7613    2.6738   -0.1323 H   0  0  0  0  0  0  0  0  0  0  0  0
    3.0326    0.7029    0.3655 H   0  0  0  0  0  0  0  0  0  0  0  0
   -0.4541    0.4205   -1.0128 H   0  0  0  0  0  0  0  0  0  0  0  0
   -0.1030   -0.1566    0.6393 H   0  0  0  0  0  0  0  0  0  0  0  0
    2.5161   -1.3029    1.1253 H   0  0  0  0  0  0  0  0  0  0  0  0
    0.9338   -2.1249    1.0731 H   0  0  0  0  0  0  0  0  0  0  0  0
    3.1431   -3.5204    1.1578 H   0  0  0  0  0  0  0  0  0  0  0  0
    3.1530   -3.3178   -1.8593 H   0  0  0  0  0  0  0  0  0  0  0  0
    5.0056   -1.5621    0.5910 H   0  0  0  0  0  0  0  0  0  0  0  0
    5.2773   -3.6702    1.9717 H   0  0  0  0  0  0  0  0  0  0  0  0
    6.8625   -3.9737    1.1694 H   0  0  0  0  0  0  0  0  0  0  0  0
    6.6393   -2.5180    2.2014 H   0  0  0  0  0  0  0  0  0  0  0  0
    7.4262   -2.4055   -1.0254 H   0  0  0  0  0  0  0  0  0  0  0  0
    0.1094   -3.3322   -1.0957 H   0  0  0  0  0  0  0  0  0  0  0  0
    0.8269   -6.1823   -1.7861 H   0  0  0  0  0  0  0  0  0  0  0  0
   -0.9548   -4.1077   -3.2147 H   0  0  0  0  0  0  0  0  0  0  0  0
    0.7882   -4.4420   -3.5679 H   0  0  0  0  0  0  0  0  0  0  0  0
   -0.4416   -5.7153   -3.8669 H   0  0  0  0  0  0  0  0  0  0  0  0
   -1.4061   -4.7139    0.5174 H   0  0  0  0  0  0  0  0  0  0  0  0
   -3.4519   -5.3027    1.3266 H   0  0  0  0  0  0  0  0  0  0  0  0
   -2.9823   -8.0486    0.0319 H   0  0  0  0  0  0  0  0  0  0  0  0
   -4.2618   -7.6081    1.2300 H   0  0  0  0  0  0  0  0  0  0  0  0
   -2.5248   -7.5106    1.6916 H   0  0  0  0  0  0  0  0  0  0  0  0
   -5.2236   -4.0446   -1.7595 H   0  0  0  0  0  0  0  0  0  0  0  0
   -3.7709   -3.1287    0.6582 H   0  0  0  0  0  0  0  0  0  0  0  0
   -6.8202   -3.6454    0.8933 H   0  0  0  0  0  0  0  0  0  0  0  0
   -5.7637   -2.8317    2.1179 H   0  0  0  0  0  0  0  0  0  0  0  0
   -5.5518   -4.5789    1.7550 H   0  0  0  0  0  0  0  0  0  0  0  0
   -3.2504   -0.9773   -0.2282 H   0  0  0  0  0  0  0  0  0  0  0  0
   -3.7628    1.1540    0.3937 H   0  0  0  0  0  0  0  0  0  0  0  0
   -6.4868    0.0062    1.2754 H   0  0  0  0  0  0  0  0  0  0  0  0
   -4.9499   -0.0907    2.2108 H   0  0  0  0  0  0  0  0  0  0  0  0
   -5.6784    1.5140    1.8621 H   0  0  0  0  0  0  0  0  0  0  0  0
   -5.3366    2.9009   -2.3064 H   0  0  0  0  0  0  0  0  0  0  0  0
   -4.3124    3.3915    0.5018 H   0  0  0  0  0  0  0  0  0  0  0  0
   -6.1940    5.0390    0.8368 H   0  0  0  0  0  0  0  0  0  0  0  0
   -6.7782    3.3572    0.6690 H   0  0  0  0  0  0  0  0  0  0  0  0
   -6.9302    4.4985   -0.7224 H   0  0  0  0  0  0  0  0  0  0  0  0
   -2.6170    6.3165   -0.8853 H   0  0  0  0  0  0  0  0  0  0  0  0
   -3.9102    5.3317    1.6795 H   0  0  0  0  0  0  0  0  0  0  0  0
   -3.2490    8.5087   -0.3647 H   0  0  0  0  0  0  0  0  0  0  0  0
   -4.8345    9.1907    0.1254 H   0  0  0  0  0  0  0  0  0  0  0  0
   -1.5113    7.2090    1.1663 H   0  0  0  0  0  0  0  0  0  0  0  0
   -2.2831    6.9191    2.7576 H   0  0  0  0  0  0  0  0  0  0  0  0
    0.6424    6.0438    0.8024 H   0  0  0  0  0  0  0  0  0  0  0  0
   -0.5481    5.2809   -0.3056 H   0  0  0  0  0  0  0  0  0  0  0  0
  1  2  1  0
  2  3  2  0
  2  4  1  0
  4  5  1  0
  5  6  1  0
  6  7  1  0
  7  8  1  0
  8  9  1  0
  9 10  1  0
 10 11  2  0
 11 12  1  0
 12 13  2  0
 13 14  1  0
 13 15  1  0
 15 16  1  0
 16 17  1  0
 17 18  1  0
 18 19  1  0
 19 20  1  0
 20 21  2  0
 20 22  1  0
 22 23  1  0
 22 24  1  0
 24 25  1  0
 25 26  2  0
 18 27  1  0
 27 28  2  0
 27 29  1  0
 29 30  1  0
 30 31  1  0
 30 32  1  0
 32 33  2  0
 32 34  1  0
 34 35  1  0
 35 36  1  0
 35 37  1  0
 37 38  2  0
 37 39  1  0
 39 40  1  0
 40 41  1  0
 40 42  1  0
 42 43  2  0
 42 44  1  0
 44 45  1  0
 45 46  1  0
 45 47  1  0
 47 48  2  0
 47 49  1  0
 49 50  1  0
 50 51  1  0
 50 52  1  0
 52 53  2  0
 52 54  1  0
 54 55  1  0
 55 56  1  0
 56 57  1  0
 56 58  2  0
 55 59  1  0
 59 60  1  0
 60 61  1  0
 25  5  1  0
 14  9  2  0
 61 11  1  0
  1 62  1  0
  1 63  1  0
  1 64  1  0
  4 65  1  0
  5 66  1  1
  6 67  1  0
  6 68  1  0
  8 69  1  0
  8 70  1  0
 10 71  1  0
 12 72  1  0
 14 73  1  0
 15 74  1  0
 15 75  1  0
 17 76  1  0
 17 77  1  0
 18 78  1  1
 19 79  1  0
 22 80  1  1
 23 81  1  0
 23 82  1  0
 23 83  1  0
 24 84  1  0
 29 85  1  0
 30 86  1  6
 31 87  1  0
 31 88  1  0
 31 89  1  0
 34 90  1  0
 35 91  1  1
 36 92  1  0
 36 93  1  0
 36 94  1  0
 39 95  1  0
 40 96  1  1
 41 97  1  0
 41 98  1  0
 41 99  1  0
 44100  1  0
 45101  1  1
 46102  1  0
 46103  1  0
 46104  1  0
 49105  1  0
 50106  1  1
 51107  1  0
 51108  1  0
 51109  1  0
 54110  1  0
 55111  1  1
 57112  1  0
 57113  1  0
 59114  1  0
 59115  1  0
 61116  1  0
 61117  1  0
M  END
