
     RDKit          3D

207209  0  0  0  0  0  0  0  0999 V2000
    4.8317   -9.6442   -0.7488 C   0  0  0  0  0  0  0  0  0  0  0  0
    5.8349   -9.1725    0.2568 C   0  0  0  0  0  0  0  0  0  0  0  0
    6.8767   -9.8525    0.4501 O   0  0  0  0  0  0  0  0  0  0  0  0
    5.6399   -7.9612    1.0088 N   0  0  0  0  0  0  0  0  0  0  0  0
    4.6137   -6.9580    0.6926 C   0  0  1  0  0  0  0  0  0  0  0  0
    4.2357   -6.1467    1.9553 C   0  0  0  0  0  0  0  0  0  0  0  0
    2.4969   -5.5517    1.9428 S   0  0  0  0  0  0  0  0  0  0  0  0
    2.7349   -4.1928    0.7422 C   0  0  0  0  0  0  0  0  0  0  0  0
    1.5567   -3.2588    0.7433 C   0  0  0  0  0  0  0  0  0  0  0  0
    0.2739   -3.7341    0.4303 C   0  0  0  0  0  0  0  0  0  0  0  0
   -0.8060   -2.8495    0.2987 C   0  0  0  0  0  0  0  0  0  0  0  0
   -0.5954   -1.4756    0.4971 C   0  0  0  0  0  0  0  0  0  0  0  0
    0.6766   -0.9893    0.8376 C   0  0  0  0  0  0  0  0  0  0  0  0
    1.7487   -1.8840    0.9430 C   0  0  0  0  0  0  0  0  0  0  0  0
    0.9069    0.4828    1.0021 C   0  0  0  0  0  0  0  0  0  0  0  0
    1.7343    1.1255   -0.4975 S   0  0  0  0  0  0  0  0  0  0  0  0
    0.4176    2.2735   -1.0528 C   0  0  0  0  0  0  0  0  0  0  0  0
    0.7350    3.7089   -0.6116 C   0  0  2  0  0  0  0  0  0  0  0  0
    0.8935    3.7681    0.8442 N   0  0  0  0  0  0  0  0  0  0  0  0
    2.0475    4.3068    1.5054 C   0  0  0  0  0  0  0  0  0  0  0  0
    2.3416    3.8811    2.6588 O   0  0  0  0  0  0  0  0  0  0  0  0
    2.9150    5.3668    0.8698 C   0  0  1  0  0  0  0  0  0  0  0  0
    3.0986    6.5595    1.8142 C   0  0  0  0  0  0  0  0  0  0  0  0
    4.2159    4.8023    0.5286 N   0  0  0  0  0  0  0  0  0  0  0  0
    4.6842    4.7516   -0.8175 C   0  0  0  0  0  0  0  0  0  0  0  0
    4.2429    3.8663   -1.5942 O   0  0  0  0  0  0  0  0  0  0  0  0
    5.6529    5.7791   -1.3430 C   0  0  1  0  0  0  0  0  0  0  0  0
    4.9025    6.8666   -2.1114 C   0  0  0  0  0  0  0  0  0  0  0  0
    6.3994    6.3805   -0.2349 N   0  0  0  0  0  0  0  0  0  0  0  0
    7.7002    5.9249    0.1617 C   0  0  0  0  0  0  0  0  0  0  0  0
    7.9539    5.7951    1.3940 O   0  0  0  0  0  0  0  0  0  0  0  0
    8.7618    5.6063   -0.8645 C   0  0  1  0  0  0  0  0  0  0  0  0
   10.1756    5.9002   -0.3438 C   0  0  0  0  0  0  0  0  0  0  0  0
    8.6633    4.2140   -1.3204 N   0  0  0  0  0  0  0  0  0  0  0  0
    8.8547    3.0949   -0.4411 C   0  0  0  0  0  0  0  0  0  0  0  0
    8.1488    2.9935    0.5964 O   0  0  0  0  0  0  0  0  0  0  0  0
    9.8891    2.0295   -0.7270 C   0  0  1  0  0  0  0  0  0  0  0  0
   10.7210    2.3278   -1.9796 C   0  0  0  0  0  0  0  0  0  0  0  0
   10.7834    1.9247    0.4292 N   0  0  0  0  0  0  0  0  0  0  0  0
   11.0438    0.7058    1.1402 C   0  0  0  0  0  0  0  0  0  0  0  0
   11.1709    0.7623    2.3949 O   0  0  0  0  0  0  0  0  0  0  0  0
   11.3325   -0.5940    0.4121 C   0  0  1  0  0  0  0  0  0  0  0  0
   12.7787   -0.5763   -0.0901 C   0  0  0  0  0  0  0  0  0  0  0  0
   11.1281   -1.7564    1.2898 N   0  0  0  0  0  0  0  0  0  0  0  0
   11.0777   -3.1207    0.8313 C   0  0  0  0  0  0  0  0  0  0  0  0
   11.3132   -4.0367    1.6678 O   0  0  0  0  0  0  0  0  0  0  0  0
   10.6392   -3.4969   -0.5678 C   0  0  1  0  0  0  0  0  0  0  0  0
   11.3797   -4.7613   -1.0403 C   0  0  0  0  0  0  0  0  0  0  0  0
    9.1730   -3.6445   -0.5778 N   0  0  0  0  0  0  0  0  0  0  0  0
    8.4755   -4.8686   -0.8748 C   0  0  0  0  0  0  0  0  0  0  0  0
    8.6331   -5.4166   -1.9991 O   0  0  0  0  0  0  0  0  0  0  0  0
    7.5131   -5.4823    0.1118 C   0  0  1  0  0  0  0  0  0  0  0  0
    7.8418   -5.0779    1.5514 C   0  0  0  0  0  0  0  0  0  0  0  0
    6.1381   -5.0995   -0.2276 N   0  0  0  0  0  0  0  0  0  0  0  0
    5.0951   -6.0636   -0.4291 C   0  0  0  0  0  0  0  0  0  0  0  0
    4.5096   -6.1050   -1.5442 O   0  0  0  0  0  0  0  0  0  0  0  0
   -0.3441    4.6543   -1.0633 C   0  0  0  0  0  0  0  0  0  0  0  0
   -0.4936    4.8998   -2.2901 O   0  0  0  0  0  0  0  0  0  0  0  0
   -1.1900    5.3012   -0.1095 N   0  0  0  0  0  0  0  0  0  0  0  0
   -0.9759    6.6958    0.2666 C   0  0  2  0  0  0  0  0  0  0  0  0
   -0.8828    6.8070    1.7933 C   0  0  0  0  0  0  0  0  0  0  0  0
   -2.0906    7.5781   -0.2354 C   0  0  0  0  0  0  0  0  0  0  0  0
   -1.9558    8.8272   -0.1726 O   0  0  0  0  0  0  0  0  0  0  0  0
   -3.3029    7.0142   -0.7600 N   0  0  0  0  0  0  0  0  0  0  0  0
   -4.6482    7.2632   -0.2183 C   0  0  2  0  0  0  0  0  0  0  0  0
   -4.6907    8.4419    0.7699 C   0  0  0  0  0  0  0  0  0  0  0  0
   -5.1504    6.0123    0.4705 C   0  0  0  0  0  0  0  0  0  0  0  0
   -4.4448    5.5130    1.3867 O   0  0  0  0  0  0  0  0  0  0  0  0
   -6.4023    5.3791    0.1486 N   0  0  0  0  0  0  0  0  0  0  0  0
   -7.3529    5.8215   -0.8833 C   0  0  2  0  0  0  0  0  0  0  0  0
   -8.0901    7.0922   -0.4342 C   0  0  0  0  0  0  0  0  0  0  0  0
   -8.3698    4.7405   -1.1561 C   0  0  0  0  0  0  0  0  0  0  0  0
   -8.4436    4.2231   -2.3018 O   0  0  0  0  0  0  0  0  0  0  0  0
   -9.2685    4.3138   -0.1179 N   0  0  0  0  0  0  0  0  0  0  0  0
  -10.6161    3.8096   -0.4131 C   0  0  2  0  0  0  0  0  0  0  0  0
  -11.4485    4.9187   -1.0751 C   0  0  0  0  0  0  0  0  0  0  0  0
  -11.2953    3.3729    0.8687 C   0  0  0  0  0  0  0  0  0  0  0  0
  -11.3858    4.2033    1.8114 O   0  0  0  0  0  0  0  0  0  0  0  0
  -11.7824    2.0347    1.0893 N   0  0  0  0  0  0  0  0  0  0  0  0
  -12.1293    1.0530    0.0525 C   0  0  2  0  0  0  0  0  0  0  0  0
  -13.1562    1.6294   -0.9374 C   0  0  0  0  0  0  0  0  0  0  0  0
  -12.7310   -0.1770    0.7119 C   0  0  0  0  0  0  0  0  0  0  0  0
  -13.8598   -0.0639    1.2669 O   0  0  0  0  0  0  0  0  0  0  0  0
  -12.0743   -1.4573    0.7562 N   0  0  0  0  0  0  0  0  0  0  0  0
  -10.8123   -1.7939    0.0893 C   0  0  2  0  0  0  0  0  0  0  0  0
  -11.0864   -2.0505   -1.4005 C   0  0  0  0  0  0  0  0  0  0  0  0
  -10.1830   -2.9867    0.7835 C   0  0  0  0  0  0  0  0  0  0  0  0
  -10.1592   -3.0221    2.0450 O   0  0  0  0  0  0  0  0  0  0  0  0
   -9.6348   -4.0938    0.0566 N   0  0  0  0  0  0  0  0  0  0  0  0
   -8.3652   -3.9650   -0.6624 C   0  0  2  0  0  0  0  0  0  0  0  0
   -8.3745   -4.8904   -1.8835 C   0  0  0  0  0  0  0  0  0  0  0  0
   -7.2074   -4.2964    0.2418 C   0  0  0  0  0  0  0  0  0  0  0  0
   -6.2881   -3.4472    0.4145 O   0  0  0  0  0  0  0  0  0  0  0  0
   -7.1317   -5.5677    0.8898 N   0  0  0  0  0  0  0  0  0  0  0  0
   -6.0900   -6.5276    0.5206 C   0  0  2  0  0  0  0  0  0  0  0  0
   -6.5348   -7.9581    0.8787 C   0  0  0  0  0  0  0  0  0  0  0  0
   -4.7912   -6.2122    1.2244 C   0  0  0  0  0  0  0  0  0  0  0  0
   -4.8379   -5.8592    2.4352 O   0  0  0  0  0  0  0  0  0  0  0  0
   -3.4987   -6.4126    0.6178 N   0  0  0  0  0  0  0  0  0  0  0  0
   -3.2052   -6.5135   -0.8144 C   0  0  1  0  0  0  0  0  0  0  0  0
   -3.8067   -7.7800   -1.3944 C   0  0  0  0  0  0  0  0  0  0  0  0
   -3.4229   -9.0470   -0.8583 N   0  0  0  0  0  0  0  0  0  0  0  0
   -4.6280   -7.7364   -2.3518 O   0  0  0  0  0  0  0  0  0  0  0  0
   -3.5800   -5.2038   -1.5613 C   0  0  0  0  0  0  0  0  0  0  0  0
   -2.1369   -4.0818   -1.7338 S   0  0  0  0  0  0  0  0  0  0  0  0
   -2.1724   -3.3735   -0.0495 C   0  0  0  0  0  0  0  0  0  0  0  0
    5.1679  -10.5970   -1.2195 H   0  0  0  0  0  0  0  0  0  0  0  0
    3.8609   -9.8341   -0.2446 H   0  0  0  0  0  0  0  0  0  0  0  0
    4.7002   -8.8842   -1.5430 H   0  0  0  0  0  0  0  0  0  0  0  0
    6.3471   -7.7486    1.7545 H   0  0  0  0  0  0  0  0  0  0  0  0
    3.6945   -7.4871    0.3631 H   0  0  0  0  0  0  0  0  0  0  0  0
    4.9276   -5.2965    2.1293 H   0  0  0  0  0  0  0  0  0  0  0  0
    4.3218   -6.8101    2.8423 H   0  0  0  0  0  0  0  0  0  0  0  0
    2.8220   -4.6194   -0.2750 H   0  0  0  0  0  0  0  0  0  0  0  0
    3.6724   -3.6430    0.9791 H   0  0  0  0  0  0  0  0  0  0  0  0
    0.1186   -4.7895    0.2641 H   0  0  0  0  0  0  0  0  0  0  0  0
   -1.4227   -0.7815    0.3808 H   0  0  0  0  0  0  0  0  0  0  0  0
    2.7413   -1.5044    1.1625 H   0  0  0  0  0  0  0  0  0  0  0  0
    1.5564    0.6658    1.8839 H   0  0  0  0  0  0  0  0  0  0  0  0
   -0.0556    0.9914    1.2085 H   0  0  0  0  0  0  0  0  0  0  0  0
    0.4029    2.2368   -2.1629 H   0  0  0  0  0  0  0  0  0  0  0  0
   -0.5898    1.9707   -0.7001 H   0  0  0  0  0  0  0  0  0  0  0  0
    1.6731    4.0002   -1.1229 H   0  0  0  0  0  0  0  0  0  0  0  0
    0.1495    3.3422    1.4415 H   0  0  0  0  0  0  0  0  0  0  0  0
    2.4209    5.7648   -0.0415 H   0  0  0  0  0  0  0  0  0  0  0  0
    3.6567    7.3668    1.2961 H   0  0  0  0  0  0  0  0  0  0  0  0
    2.1120    6.9668    2.1177 H   0  0  0  0  0  0  0  0  0  0  0  0
    3.6599    6.2648    2.7251 H   0  0  0  0  0  0  0  0  0  0  0  0
    4.8536    4.4738    1.2905 H   0  0  0  0  0  0  0  0  0  0  0  0
    6.3423    5.2779   -2.0481 H   0  0  0  0  0  0  0  0  0  0  0  0
    4.3913    6.4253   -2.9919 H   0  0  0  0  0  0  0  0  0  0  0  0
    4.1431    7.3557   -1.4620 H   0  0  0  0  0  0  0  0  0  0  0  0
    5.6196    7.6378   -2.4703 H   0  0  0  0  0  0  0  0  0  0  0  0
    5.8780    6.9641    0.4558 H   0  0  0  0  0  0  0  0  0  0  0  0
    8.5956    6.2732   -1.7413 H   0  0  0  0  0  0  0  0  0  0  0  0
   10.4186    5.2499    0.5242 H   0  0  0  0  0  0  0  0  0  0  0  0
   10.9200    5.7129   -1.1464 H   0  0  0  0  0  0  0  0  0  0  0  0
   10.2511    6.9639   -0.0295 H   0  0  0  0  0  0  0  0  0  0  0  0
    8.5453    4.0365   -2.3431 H   0  0  0  0  0  0  0  0  0  0  0  0
    9.3480    1.0709   -0.8968 H   0  0  0  0  0  0  0  0  0  0  0  0
   11.4638    1.5186   -2.1391 H   0  0  0  0  0  0  0  0  0  0  0  0
   11.2612    3.2929   -1.8665 H   0  0  0  0  0  0  0  0  0  0  0  0
   10.0720    2.3641   -2.8802 H   0  0  0  0  0  0  0  0  0  0  0  0
   11.1199    2.8138    0.8694 H   0  0  0  0  0  0  0  0  0  0  0  0
   10.6476   -0.6611   -0.4523 H   0  0  0  0  0  0  0  0  0  0  0  0
   13.4865   -0.5457    0.7669 H   0  0  0  0  0  0  0  0  0  0  0  0
   12.9882   -1.4884   -0.6875 H   0  0  0  0  0  0  0  0  0  0  0  0
   12.9643    0.3092   -0.7352 H   0  0  0  0  0  0  0  0  0  0  0  0
   11.2539   -1.6359    2.3190 H   0  0  0  0  0  0  0  0  0  0  0  0
   10.9100   -2.6940   -1.2825 H   0  0  0  0  0  0  0  0  0  0  0  0
   11.1079   -5.6357   -0.4059 H   0  0  0  0  0  0  0  0  0  0  0  0
   12.4777   -4.6035   -0.9876 H   0  0  0  0  0  0  0  0  0  0  0  0
   11.1216   -4.9866   -2.0980 H   0  0  0  0  0  0  0  0  0  0  0  0
    8.6086   -2.8522   -0.1977 H   0  0  0  0  0  0  0  0  0  0  0  0
    7.6332   -6.5821    0.0343 H   0  0  0  0  0  0  0  0  0  0  0  0
    7.6613   -3.9934    1.7163 H   0  0  0  0  0  0  0  0  0  0  0  0
    8.9038   -5.3050    1.7815 H   0  0  0  0  0  0  0  0  0  0  0  0
    7.2201   -5.6473    2.2673 H   0  0  0  0  0  0  0  0  0  0  0  0
    5.9590   -4.1157   -0.5324 H   0  0  0  0  0  0  0  0  0  0  0  0
   -1.9433    4.7413    0.3536 H   0  0  0  0  0  0  0  0  0  0  0  0
   -0.0159    7.0538   -0.1651 H   0  0  0  0  0  0  0  0  0  0  0  0
   -0.5739    7.8342    2.0903 H   0  0  0  0  0  0  0  0  0  0  0  0
   -0.1304    6.0925    2.1881 H   0  0  0  0  0  0  0  0  0  0  0  0
   -1.8659    6.5716    2.2613 H   0  0  0  0  0  0  0  0  0  0  0  0
   -3.2158    6.2593   -1.4827 H   0  0  0  0  0  0  0  0  0  0  0  0
   -5.2953    7.5234   -1.0771 H   0  0  0  0  0  0  0  0  0  0  0  0
   -5.7025    8.5271    1.2156 H   0  0  0  0  0  0  0  0  0  0  0  0
   -3.9642    8.2951    1.5971 H   0  0  0  0  0  0  0  0  0  0  0  0
   -4.4732    9.3899    0.2402 H   0  0  0  0  0  0  0  0  0  0  0  0
   -6.6011    4.4853    0.6563 H   0  0  0  0  0  0  0  0  0  0  0  0
   -6.8052    6.0240   -1.8270 H   0  0  0  0  0  0  0  0  0  0  0  0
   -8.8826    7.3489   -1.1708 H   0  0  0  0  0  0  0  0  0  0  0  0
   -8.5662    6.9415    0.5620 H   0  0  0  0  0  0  0  0  0  0  0  0
   -7.4089    7.9567   -0.3694 H   0  0  0  0  0  0  0  0  0  0  0  0
   -9.0054    4.5220    0.8725 H   0  0  0  0  0  0  0  0  0  0  0  0
  -10.5266    2.9534   -1.1124 H   0  0  0  0  0  0  0  0  0  0  0  0
  -11.4451    5.8329   -0.4477 H   0  0  0  0  0  0  0  0  0  0  0  0
  -11.0238    5.1688   -2.0695 H   0  0  0  0  0  0  0  0  0  0  0  0
  -12.4986    4.5916   -1.2195 H   0  0  0  0  0  0  0  0  0  0  0  0
  -11.9669    1.7813    2.0880 H   0  0  0  0  0  0  0  0  0  0  0  0
  -11.2146    0.7905   -0.5123 H   0  0  0  0  0  0  0  0  0  0  0  0
  -13.9506    2.1870   -0.3964 H   0  0  0  0  0  0  0  0  0  0  0  0
  -12.6669    2.2986   -1.6718 H   0  0  0  0  0  0  0  0  0  0  0  0
  -13.6345    0.8101   -1.5230 H   0  0  0  0  0  0  0  0  0  0  0  0
  -12.6088   -2.2280    1.2267 H   0  0  0  0  0  0  0  0  0  0  0  0
  -10.0910   -0.9604    0.2033 H   0  0  0  0  0  0  0  0  0  0  0  0
  -11.7043   -2.9655   -1.5366 H   0  0  0  0  0  0  0  0  0  0  0  0
  -10.1444   -2.1574   -1.9699 H   0  0  0  0  0  0  0  0  0  0  0  0
  -11.6343   -1.1934   -1.8397 H   0  0  0  0  0  0  0  0  0  0  0  0
   -9.9304   -5.0518    0.3593 H   0  0  0  0  0  0  0  0  0  0  0  0
   -8.2404   -2.9202   -1.0256 H   0  0  0  0  0  0  0  0  0  0  0  0
   -7.4250   -4.7807   -2.4474 H   0  0  0  0  0  0  0  0  0  0  0  0
   -8.4913   -5.9520   -1.5719 H   0  0  0  0  0  0  0  0  0  0  0  0
   -9.2151   -4.6238   -2.5545 H   0  0  0  0  0  0  0  0  0  0  0  0
   -7.9622   -5.8905    1.4394 H   0  0  0  0  0  0  0  0  0  0  0  0
   -5.9650   -6.4831   -0.5779 H   0  0  0  0  0  0  0  0  0  0  0  0
   -7.5489   -8.1595    0.4710 H   0  0  0  0  0  0  0  0  0  0  0  0
   -6.5496   -8.0945    1.9806 H   0  0  0  0  0  0  0  0  0  0  0  0
   -5.8301   -8.6900    0.4386 H   0  0  0  0  0  0  0  0  0  0  0  0
   -2.6764   -6.4298    1.2677 H   0  0  0  0  0  0  0  0  0  0  0  0
   -2.1036   -6.6515   -0.9300 H   0  0  0  0  0  0  0  0  0  0  0  0
   -2.7513   -9.1056   -0.0610 H   0  0  0  0  0  0  0  0  0  0  0  0
   -3.8302   -9.9248   -1.2494 H   0  0  0  0  0  0  0  0  0  0  0  0
   -4.4182   -4.6685   -1.0688 H   0  0  0  0  0  0  0  0  0  0  0  0
   -3.9081   -5.4234   -2.6036 H   0  0  0  0  0  0  0  0  0  0  0  0
   -2.9434   -2.5707   -0.0138 H   0  0  0  0  0  0  0  0  0  0  0  0
   -2.4337   -4.1345    0.6998 H   0  0  0  0  0  0  0  0  0  0  0  0
  1  2  1  0
  2  3  2  0
  2  4  1  0
  4  5  1  0
  5  6  1  0
  6  7  1  0
  7  8  1  0
  8  9  1  0
  9 10  1  0
 10 11  2  0
 11 12  1  0
 12 13  2  0
 13 14  1  0
 13 15  1  0
 15 16  1  0
 16 17  1  0
 17 18  1  0
 18 19  1  0
 19 20  1  0
 20 21  2  0
 20 22  1  0
 22 23  1  0
 22 24  1  0
 24 25  1  0
 25 26  2  0
 25 27  1  0
 27 28  1  0
 27 29  1  0
 29 30  1  0
 30 31  2  0
 30 32  1  0
 32 33  1  0
 32 34  1  0
 34 35  1  0
 35 36  2  0
 35 37  1  0
 37 38  1  0
 37 39  1  0
 39 40  1  0
 40 41  2  0
 40 42  1  0
 42 43  1  0
 42 44  1  0
 44 45  1  0
 45 46  2  0
 45 47  1  0
 47 48  1  0
 47 49  1  0
 49 50  1  0
 50 51  2  0
 50 52  1  0
 52 53  1  0
 52 54  1  0
 54 55  1  0
 55 56  2  0
 18 57  1  0
 57 58  2  0
 57 59  1  0
 59 60  1  0
 60 61  1  0
 60 62  1  0
 62 63  2  0
 62 64  1  0
 64 65  1  0
 65 66  1  0
 65 67  1  0
 67 68  2  0
 67 69  1  0
 69 70  1  0
 70 71  1  0
 70 72  1  0
 72 73  2  0
 72 74  1  0
 74 75  1  0
 75 76  1  0
 75 77  1  0
 77 78  2  0
 77 79  1  0
 79 80  1  0
 80 81  1  0
 80 82  1  0
 82 83  2  0
 82 84  1  0
 84 85  1  0
 85 86  1  0
 85 87  1  0
 87 88  2  0
 87 89  1  0
 89 90  1  0
 90 91  1  0
 90 92  1  0
 92 93  2  0
 92 94  1  0
 94 95  1  0
 95 96  1  0
 95 97  1  0
 97 98  2  0
 97 99  1  0
 99100  1  0
100101  1  0
101102  1  0
101103  2  0
100104  1  0
104105  1  0
105106  1  0
 55  5  1  0
 14  9  2  0
106 11  1  0
  1107  1  0
  1108  1  0
  1109  1  0
  4110  1  0
  5111  1  6
  6112  1  0
  6113  1  0
  8114  1  0
  8115  1  0
 10116  1  0
 12117  1  0
 14118  1  0
 15119  1  0
 15120  1  0
 17121  1  0
 17122  1  0
 18123  1  6
 19124  1  0
 22125  1  6
 23126  1  0
 23127  1  0
 23128  1  0
 24129  1  0
 27130  1  6
 28131  1  0
 28132  1  0
 28133  1  0
 29134  1  0
 32135  1  6
 33136  1  0
 33137  1  0
 33138  1  0
 34139  1  0
 37140  1  6
 38141  1  0
 38142  1  0
 38143  1  0
 39144  1  0
 42145  1  6
 43146  1  0
 43147  1  0
 43148  1  0
 44149  1  0
 47150  1  6
 48151  1  0
 48152  1  0
 48153  1  0
 49154  1  0
 52155  1  1
 53156  1  0
 53157  1  0
 53158  1  0
 54159  1  0
 59160  1  0
 60161  1  6
 61162  1  0
 61163  1  0
 61164  1  0
 64165  1  0
 65166  1  6
 66167  1  0
 66168  1  0
 66169  1  0
 69170  1  0
 70171  1  6
 71172  1  0
 71173  1  0
 71174  1  0
 74175  1  0
 75176  1  6
 76177  1  0
 76178  1  0
 76179  1  0
 79180  1  0
 80181  1  6
 81182  1  0
 81183  1  0
 81184  1  0
 84185  1  0
 85186  1  6
 86187  1  0
 86188  1  0
 86189  1  0
 89190  1  0
 90191  1  6
 91192  1  0
 91193  1  0
 91194  1  0
 94195  1  0
 95196  1  6
 96197  1  0
 96198  1  0
 96199  1  0
 99200  1  0
100201  1  1
102202  1  0
102203  1  0
104204  1  0
104205  1  0
106206  1  0
106207  1  0
M  END
