
     RDKit          3D

197199  0  0  0  0  0  0  0  0999 V2000
   -5.0708   -9.0919    0.7605 C   0  0  0  0  0  0  0  0  0  0  0  0
   -4.2939   -7.8356    0.9538 C   0  0  0  0  0  0  0  0  0  0  0  0
   -3.1057   -7.8553    1.3713 O   0  0  0  0  0  0  0  0  0  0  0  0
   -4.9239   -6.5828    0.6727 N   0  0  0  0  0  0  0  0  0  0  0  0
   -4.6992   -5.8523   -0.6001 C   0  0  2  0  0  0  0  0  0  0  0  0
   -3.8702   -4.5792   -0.3751 C   0  0  0  0  0  0  0  0  0  0  0  0
   -4.4000   -3.6132    1.1207 S   0  0  0  0  0  0  0  0  0  0  0  0
   -3.2783   -2.1989    0.9605 C   0  0  0  0  0  0  0  0  0  0  0  0
   -1.9342   -2.3568    1.6678 C   0  0  0  0  0  0  0  0  0  0  0  0
   -1.3036   -3.6340    1.8151 C   0  0  0  0  0  0  0  0  0  0  0  0
    0.0578   -3.7397    1.5997 C   0  0  0  0  0  0  0  0  0  0  0  0
    0.8326   -2.5903    1.8103 C   0  0  0  0  0  0  0  0  0  0  0  0
    0.2769   -1.3102    1.6885 C   0  0  0  0  0  0  0  0  0  0  0  0
   -1.1194   -1.2152    1.6712 C   0  0  0  0  0  0  0  0  0  0  0  0
    1.1196   -0.3173    0.9003 C   0  0  0  0  0  0  0  0  0  0  0  0
    0.3052    0.1024   -0.6990 S   0  0  0  0  0  0  0  0  0  0  0  0
   -0.3575    1.7066   -0.1370 C   0  0  0  0  0  0  0  0  0  0  0  0
    0.7252    2.8171   -0.2208 C   0  0  2  0  0  0  0  0  0  0  0  0
    0.8415    3.6188    1.0093 N   0  0  0  0  0  0  0  0  0  0  0  0
   -0.2459    4.0384    1.8899 C   0  0  0  0  0  0  0  0  0  0  0  0
   -0.1932    3.6960    3.1027 O   0  0  0  0  0  0  0  0  0  0  0  0
   -1.3806    4.8926    1.3961 C   0  0  1  0  0  0  0  0  0  0  0  0
   -0.8537    6.0138    0.4699 C   0  0  0  0  0  0  0  0  0  0  0  0
   -2.4332    4.0550    0.8305 N   0  0  0  0  0  0  0  0  0  0  0  0
   -3.5823    4.4862    0.0731 C   0  0  0  0  0  0  0  0  0  0  0  0
   -4.1927    3.6266   -0.6276 O   0  0  0  0  0  0  0  0  0  0  0  0
   -4.1174    5.8981    0.1207 C   0  0  1  0  0  0  0  0  0  0  0  0
   -4.5064    6.3670   -1.2772 C   0  0  0  0  0  0  0  0  0  0  0  0
   -5.2134    5.9880    1.0832 N   0  0  0  0  0  0  0  0  0  0  0  0
   -6.4404    5.2546    0.9796 C   0  0  0  0  0  0  0  0  0  0  0  0
   -6.4907    4.0729    1.4119 O   0  0  0  0  0  0  0  0  0  0  0  0
   -7.7229    5.8988    0.5073 C   0  0  1  0  0  0  0  0  0  0  0  0
   -7.6148    7.3997    0.3475 C   0  0  0  0  0  0  0  0  0  0  0  0
   -8.1315    5.2990   -0.7672 N   0  0  0  0  0  0  0  0  0  0  0  0
   -9.0290    4.1829   -0.9337 C   0  0  0  0  0  0  0  0  0  0  0  0
   -9.3674    3.8958   -2.1133 O   0  0  0  0  0  0  0  0  0  0  0  0
   -9.6419    3.4315    0.2246 C   0  0  1  0  0  0  0  0  0  0  0  0
  -11.1785    3.6480    0.2879 C   0  0  0  0  0  0  0  0  0  0  0  0
   -9.3388    2.0112    0.2027 N   0  0  0  0  0  0  0  0  0  0  0  0
   -9.9085    1.1021   -0.7644 C   0  0  0  0  0  0  0  0  0  0  0  0
   -9.9323    1.4060   -1.9748 O   0  0  0  0  0  0  0  0  0  0  0  0
  -10.5531   -0.1822   -0.3263 C   0  0  1  0  0  0  0  0  0  0  0  0
  -12.0888   -0.0260   -0.3492 C   0  0  0  0  0  0  0  0  0  0  0  0
  -10.1212   -1.2627   -1.2154 N   0  0  0  0  0  0  0  0  0  0  0  0
  -10.4518   -2.6496   -1.0580 C   0  0  0  0  0  0  0  0  0  0  0  0
  -10.1504   -3.4426   -1.9936 O   0  0  0  0  0  0  0  0  0  0  0  0
  -11.0800   -3.1989    0.2032 C   0  0  1  0  0  0  0  0  0  0  0  0
  -12.2126   -4.1699   -0.1527 C   0  0  0  0  0  0  0  0  0  0  0  0
  -10.1139   -3.8978    1.0669 N   0  0  0  0  0  0  0  0  0  0  0  0
   -8.6901   -3.8901    0.8812 C   0  0  0  0  0  0  0  0  0  0  0  0
   -8.0078   -2.9168    1.3178 O   0  0  0  0  0  0  0  0  0  0  0  0
   -7.9795   -5.0847    0.2843 C   0  0  1  0  0  0  0  0  0  0  0  0
   -8.9071   -6.0962   -0.3819 C   0  0  0  0  0  0  0  0  0  0  0  0
   -6.9789   -4.6294   -0.6834 N   0  0  0  0  0  0  0  0  0  0  0  0
   -6.0115   -5.5161   -1.2728 C   0  0  0  0  0  0  0  0  0  0  0  0
   -6.1973   -5.9220   -2.4594 O   0  0  0  0  0  0  0  0  0  0  0  0
    0.5860    3.6729   -1.4633 C   0  0  0  0  0  0  0  0  0  0  0  0
   -0.5419    4.0301   -1.8794 O   0  0  0  0  0  0  0  0  0  0  0  0
    1.7383    4.0006   -2.2189 N   0  0  0  0  0  0  0  0  0  0  0  0
    2.8836    4.6644   -1.6031 C   0  0  2  0  0  0  0  0  0  0  0  0
    3.0483    6.0413   -2.2685 C   0  0  0  0  0  0  0  0  0  0  0  0
    4.1079    3.8139   -1.7263 C   0  0  0  0  0  0  0  0  0  0  0  0
    4.1978    2.9812   -2.6697 O   0  0  0  0  0  0  0  0  0  0  0  0
    5.1856    3.8612   -0.7618 N   0  0  0  0  0  0  0  0  0  0  0  0
    5.4666    5.0329    0.0925 C   0  0  2  0  0  0  0  0  0  0  0  0
    6.2719    6.0931   -0.6319 C   0  0  0  0  0  0  0  0  0  0  0  0
    6.0825    4.5961    1.4105 C   0  0  0  0  0  0  0  0  0  0  0  0
    5.3625    4.4756    2.4275 O   0  0  0  0  0  0  0  0  0  0  0  0
    7.5011    4.4592    1.5687 N   0  0  0  0  0  0  0  0  0  0  0  0
    8.3888    3.7138    0.6617 C   0  0  2  0  0  0  0  0  0  0  0  0
    8.4852    2.2748    1.1510 C   0  0  0  0  0  0  0  0  0  0  0  0
    9.7191    4.4792    0.5852 C   0  0  0  0  0  0  0  0  0  0  0  0
    9.6689    5.6802    0.1902 O   0  0  0  0  0  0  0  0  0  0  0  0
   10.9850    3.9356    0.9691 N   0  0  0  0  0  0  0  0  0  0  0  0
   11.5405    2.6651    0.5290 C   0  0  2  0  0  0  0  0  0  0  0  0
   13.0041    2.5205    0.9909 C   0  0  0  0  0  0  0  0  0  0  0  0
   11.5050    2.5525   -0.9553 C   0  0  0  0  0  0  0  0  0  0  0  0
   11.9673    3.4893   -1.6517 O   0  0  0  0  0  0  0  0  0  0  0  0
   10.9196    1.4159   -1.6156 N   0  0  0  0  0  0  0  0  0  0  0  0
   10.9005    0.0277   -1.1326 C   0  0  2  0  0  0  0  0  0  0  0  0
   12.0461   -0.7661   -1.7754 C   0  0  0  0  0  0  0  0  0  0  0  0
    9.5342   -0.5656   -1.4115 C   0  0  0  0  0  0  0  0  0  0  0  0
    8.5790    0.1878   -1.7350 O   0  0  0  0  0  0  0  0  0  0  0  0
    9.3364   -1.9815   -1.4254 N   0  0  0  0  0  0  0  0  0  0  0  0
    9.1478   -2.8201   -0.2334 C   0  0  2  0  0  0  0  0  0  0  0  0
   10.1823   -2.5192    0.8531 C   0  0  0  0  0  0  0  0  0  0  0  0
    9.2910   -4.2637   -0.6484 C   0  0  0  0  0  0  0  0  0  0  0  0
   10.3281   -4.6598   -1.2464 O   0  0  0  0  0  0  0  0  0  0  0  0
    8.2802   -5.2432   -0.3590 N   0  0  0  0  0  0  0  0  0  0  0  0
    6.8216   -5.1138   -0.6312 C   0  0  2  0  0  0  0  0  0  0  0  0
    6.4878   -4.0517   -1.7286 C   0  0  0  0  0  0  0  0  0  0  0  0
    6.0901   -4.9049    0.6703 C   0  0  0  0  0  0  0  0  0  0  0  0
    6.0366   -3.7530    1.2124 O   0  0  0  0  0  0  0  0  0  0  0  0
    5.1445   -5.8915    1.0669 N   0  0  0  0  0  0  0  0  0  0  0  0
    3.7452   -5.8548    0.6063 C   0  0  2  0  0  0  0  0  0  0  0  0
    3.5345   -6.9476   -0.4280 C   0  0  0  0  0  0  0  0  0  0  0  0
    3.9919   -8.2741   -0.1689 N   0  0  0  0  0  0  0  0  0  0  0  0
    2.9421   -6.7335   -1.5140 O   0  0  0  0  0  0  0  0  0  0  0  0
    3.3204   -4.4317    0.1314 C   0  0  0  0  0  0  0  0  0  0  0  0
    1.6456   -4.2260   -0.6100 S   0  0  0  0  0  0  0  0  0  0  0  0
    0.5473   -4.8353    0.7244 C   0  0  0  0  0  0  0  0  0  0  0  0
   -4.4479   -9.9728    1.0363 H   0  0  0  0  0  0  0  0  0  0  0  0
   -5.3779   -9.1988   -0.3030 H   0  0  0  0  0  0  0  0  0  0  0  0
   -5.9615   -9.0727    1.4108 H   0  0  0  0  0  0  0  0  0  0  0  0
   -5.3869   -6.1231    1.5033 H   0  0  0  0  0  0  0  0  0  0  0  0
   -4.1253   -6.5334   -1.2803 H   0  0  0  0  0  0  0  0  0  0  0  0
   -2.7882   -4.8827   -0.2914 H   0  0  0  0  0  0  0  0  0  0  0  0
   -3.9724   -3.9114   -1.2603 H   0  0  0  0  0  0  0  0  0  0  0  0
   -3.8197   -1.3152    1.3818 H   0  0  0  0  0  0  0  0  0  0  0  0
   -3.0456   -2.0087   -0.1304 H   0  0  0  0  0  0  0  0  0  0  0  0
   -1.8738   -4.5381    1.7518 H   0  0  0  0  0  0  0  0  0  0  0  0
    1.9109   -2.6706    1.8520 H   0  0  0  0  0  0  0  0  0  0  0  0
   -1.5547   -0.2250    1.5586 H   0  0  0  0  0  0  0  0  0  0  0  0
    2.0826   -0.7882    0.5537 H   0  0  0  0  0  0  0  0  0  0  0  0
    1.4147    0.5781    1.5294 H   0  0  0  0  0  0  0  0  0  0  0  0
   -0.7199    1.6341    0.9016 H   0  0  0  0  0  0  0  0  0  0  0  0
   -1.2404    1.9339   -0.7605 H   0  0  0  0  0  0  0  0  0  0  0  0
    1.7104    2.2943   -0.3249 H   0  0  0  0  0  0  0  0  0  0  0  0
    1.7723    3.5986    1.4852 H   0  0  0  0  0  0  0  0  0  0  0  0
   -1.8218    5.3949    2.2991 H   0  0  0  0  0  0  0  0  0  0  0  0
    0.2386    5.9748    0.3321 H   0  0  0  0  0  0  0  0  0  0  0  0
   -1.3342    5.9601   -0.5314 H   0  0  0  0  0  0  0  0  0  0  0  0
   -1.0958    7.0061    0.9028 H   0  0  0  0  0  0  0  0  0  0  0  0
   -2.4601    3.0526    1.0949 H   0  0  0  0  0  0  0  0  0  0  0  0
   -3.3503    6.6002    0.4738 H   0  0  0  0  0  0  0  0  0  0  0  0
   -5.4106    5.8299   -1.6516 H   0  0  0  0  0  0  0  0  0  0  0  0
   -3.6767    6.1678   -1.9905 H   0  0  0  0  0  0  0  0  0  0  0  0
   -4.7173    7.4595   -1.2764 H   0  0  0  0  0  0  0  0  0  0  0  0
   -4.9120    6.1479    2.0831 H   0  0  0  0  0  0  0  0  0  0  0  0
   -8.5048    5.7402    1.2865 H   0  0  0  0  0  0  0  0  0  0  0  0
   -8.5747    7.7851   -0.0777 H   0  0  0  0  0  0  0  0  0  0  0  0
   -6.7722    7.7182   -0.2963 H   0  0  0  0  0  0  0  0  0  0  0  0
   -7.5695    7.9012    1.3553 H   0  0  0  0  0  0  0  0  0  0  0  0
   -7.7530    5.7122   -1.6553 H   0  0  0  0  0  0  0  0  0  0  0  0
   -9.2615    3.8031    1.1900 H   0  0  0  0  0  0  0  0  0  0  0  0
  -11.5956    3.1999    1.2089 H   0  0  0  0  0  0  0  0  0  0  0  0
  -11.3926    4.7327    0.2803 H   0  0  0  0  0  0  0  0  0  0  0  0
  -11.6701    3.1994   -0.6040 H   0  0  0  0  0  0  0  0  0  0  0  0
   -8.3930    1.7363    0.5622 H   0  0  0  0  0  0  0  0  0  0  0  0
  -10.2172   -0.4161    0.7267 H   0  0  0  0  0  0  0  0  0  0  0  0
  -12.5025   -0.0943    0.6805 H   0  0  0  0  0  0  0  0  0  0  0  0
  -12.3993    0.9458   -0.7635 H   0  0  0  0  0  0  0  0  0  0  0  0
  -12.5491   -0.8149   -0.9667 H   0  0  0  0  0  0  0  0  0  0  0  0
   -9.5457   -1.0328   -2.0707 H   0  0  0  0  0  0  0  0  0  0  0  0
  -11.5488   -2.3813    0.8098 H   0  0  0  0  0  0  0  0  0  0  0  0
  -11.8006   -5.0872   -0.6118 H   0  0  0  0  0  0  0  0  0  0  0  0
  -12.8855   -3.7101   -0.8848 H   0  0  0  0  0  0  0  0  0  0  0  0
  -12.7584   -4.4955    0.7631 H   0  0  0  0  0  0  0  0  0  0  0  0
  -10.4337   -4.1468    2.0415 H   0  0  0  0  0  0  0  0  0  0  0  0
   -7.5034   -5.5777    1.1310 H   0  0  0  0  0  0  0  0  0  0  0  0
   -9.7191   -6.4044    0.3307 H   0  0  0  0  0  0  0  0  0  0  0  0
   -9.3430   -5.6743   -1.3045 H   0  0  0  0  0  0  0  0  0  0  0  0
   -8.3282   -6.9992   -0.6541 H   0  0  0  0  0  0  0  0  0  0  0  0
   -7.0735   -3.6888   -1.1394 H   0  0  0  0  0  0  0  0  0  0  0  0
    1.6687    3.9644   -3.2613 H   0  0  0  0  0  0  0  0  0  0  0  0
    2.6441    4.8288   -0.5360 H   0  0  0  0  0  0  0  0  0  0  0  0
    3.5375    5.9422   -3.2421 H   0  0  0  0  0  0  0  0  0  0  0  0
    2.0438    6.4954   -2.4318 H   0  0  0  0  0  0  0  0  0  0  0  0
    3.5996    6.7333   -1.5881 H   0  0  0  0  0  0  0  0  0  0  0  0
    5.8591    3.0481   -0.7503 H   0  0  0  0  0  0  0  0  0  0  0  0
    4.4937    5.5182    0.3733 H   0  0  0  0  0  0  0  0  0  0  0  0
    7.3115    5.7357   -0.8463 H   0  0  0  0  0  0  0  0  0  0  0  0
    5.7931    6.3413   -1.6085 H   0  0  0  0  0  0  0  0  0  0  0  0
    6.3089    7.0048   -0.0005 H   0  0  0  0  0  0  0  0  0  0  0  0
    7.8951    4.6521    2.5333 H   0  0  0  0  0  0  0  0  0  0  0  0
    7.9714    3.6868   -0.3717 H   0  0  0  0  0  0  0  0  0  0  0  0
    7.4811    1.9027    1.3682 H   0  0  0  0  0  0  0  0  0  0  0  0
    9.1081    2.2267    2.0589 H   0  0  0  0  0  0  0  0  0  0  0  0
    8.8751    1.6604    0.3322 H   0  0  0  0  0  0  0  0  0  0  0  0
   11.6184    4.6227    1.4304 H   0  0  0  0  0  0  0  0  0  0  0  0
   11.0349    1.8442    1.0572 H   0  0  0  0  0  0  0  0  0  0  0  0
   13.1315    2.8748    2.0358 H   0  0  0  0  0  0  0  0  0  0  0  0
   13.3455    1.4705    0.9349 H   0  0  0  0  0  0  0  0  0  0  0  0
   13.6923    3.1373    0.3823 H   0  0  0  0  0  0  0  0  0  0  0  0
   10.7402    1.5190   -2.6578 H   0  0  0  0  0  0  0  0  0  0  0  0
   11.0701    0.0047   -0.0561 H   0  0  0  0  0  0  0  0  0  0  0  0
   11.7125   -1.8165   -1.9813 H   0  0  0  0  0  0  0  0  0  0  0  0
   12.3047   -0.3285   -2.7638 H   0  0  0  0  0  0  0  0  0  0  0  0
   12.9385   -0.7811   -1.1074 H   0  0  0  0  0  0  0  0  0  0  0  0
    8.7399   -2.2619   -2.2567 H   0  0  0  0  0  0  0  0  0  0  0  0
    8.1681   -2.6168    0.1752 H   0  0  0  0  0  0  0  0  0  0  0  0
   11.2203   -2.6968    0.4509 H   0  0  0  0  0  0  0  0  0  0  0  0
   10.0224   -3.1973    1.7050 H   0  0  0  0  0  0  0  0  0  0  0  0
   10.0540   -1.4930    1.2342 H   0  0  0  0  0  0  0  0  0  0  0  0
    8.6265   -6.2124   -0.1810 H   0  0  0  0  0  0  0  0  0  0  0  0
    6.4931   -6.0821   -1.0603 H   0  0  0  0  0  0  0  0  0  0  0  0
    6.5024   -3.0199   -1.3247 H   0  0  0  0  0  0  0  0  0  0  0  0
    5.5310   -4.2935   -2.1749 H   0  0  0  0  0  0  0  0  0  0  0  0
    7.2503   -4.1441   -2.4975 H   0  0  0  0  0  0  0  0  0  0  0  0
    5.2791   -6.3289    2.0148 H   0  0  0  0  0  0  0  0  0  0  0  0
    3.1090   -6.1027    1.4574 H   0  0  0  0  0  0  0  0  0  0  0  0
    3.3622   -9.0823   -0.4162 H   0  0  0  0  0  0  0  0  0  0  0  0
    4.6160   -8.4206    0.6756 H   0  0  0  0  0  0  0  0  0  0  0  0
    4.0219   -4.0587   -0.6510 H   0  0  0  0  0  0  0  0  0  0  0  0
    3.4630   -3.7518    1.0016 H   0  0  0  0  0  0  0  0  0  0  0  0
    0.9712   -5.6822    1.2658 H   0  0  0  0  0  0  0  0  0  0  0  0
   -0.3002   -5.2652    0.1427 H   0  0  0  0  0  0  0  0  0  0  0  0
  1  2  1  0
  2  3  2  0
  2  4  1  0
  4  5  1  0
  5  6  1  0
  6  7  1  0
  7  8  1  0
  8  9  1  0
  9 10  2  0
 10 11  1  0
 11 12  2  0
 12 13  1  0
 13 14  2  0
 13 15  1  0
 15 16  1  0
 16 17  1  0
 17 18  1  0
 18 19  1  0
 19 20  1  0
 20 21  2  0
 20 22  1  0
 22 23  1  0
 22 24  1  0
 24 25  1  0
 25 26  2  0
 25 27  1  0
 27 28  1  0
 27 29  1  0
 29 30  1  0
 30 31  2  0
 30 32  1  0
 32 33  1  0
 32 34  1  0
 34 35  1  0
 35 36  2  0
 35 37  1  0
 37 38  1  0
 37 39  1  0
 39 40  1  0
 40 41  2  0
 40 42  1  0
 42 43  1  0
 42 44  1  0
 44 45  1  0
 45 46  2  0
 45 47  1  0
 47 48  1  0
 47 49  1  0
 49 50  1  0
 50 51  2  0
 50 52  1  0
 52 53  1  0
 52 54  1  0
 54 55  1  0
 55 56  2  0
 18 57  1  0
 57 58  2  0
 57 59  1  0
 59 60  1  0
 60 61  1  0
 60 62  1  0
 62 63  2  0
 62 64  1  0
 64 65  1  0
 65 66  1  0
 65 67  1  0
 67 68  2  0
 67 69  1  0
 69 70  1  0
 70 71  1  0
 70 72  1  0
 72 73  2  0
 72 74  1  0
 74 75  1  0
 75 76  1  0
 75 77  1  0
 77 78  2  0
 77 79  1  0
 79 80  1  0
 80 81  1  0
 80 82  1  0
 82 83  2  0
 82 84  1  0
 84 85  1  0
 85 86  1  0
 85 87  1  0
 87 88  2  0
 87 89  1  0
 89 90  1  0
 90 91  1  0
 90 92  1  0
 92 93  2  0
 92 94  1  0
 94 95  1  0
 95 96  1  0
 96 97  1  0
 96 98  2  0
 95 99  1  0
 99100  1  0
100101  1  0
 55  5  1  0
 14  9  1  0
101 11  1  0
  1102  1  0
  1103  1  0
  1104  1  0
  4105  1  0
  5106  1  6
  6107  1  0
  6108  1  0
  8109  1  0
  8110  1  0
 10111  1  0
 12112  1  0
 14113  1  0
 15114  1  0
 15115  1  0
 17116  1  0
 17117  1  0
 18118  1  6
 19119  1  0
 22120  1  1
 23121  1  0
 23122  1  0
 23123  1  0
 24124  1  0
 27125  1  1
 28126  1  0
 28127  1  0
 28128  1  0
 29129  1  0
 32130  1  1
 33131  1  0
 33132  1  0
 33133  1  0
 34134  1  0
 37135  1  1
 38136  1  0
 38137  1  0
 38138  1  0
 39139  1  0
 42140  1  1
 43141  1  0
 43142  1  0
 43143  1  0
 44144  1  0
 47145  1  1
 48146  1  0
 48147  1  0
 48148  1  0
 49149  1  0
 52150  1  1
 53151  1  0
 53152  1  0
 53153  1  0
 54154  1  0
 59155  1  0
 60156  1  1
 61157  1  0
 61158  1  0
 61159  1  0
 64160  1  0
 65161  1  1
 66162  1  0
 66163  1  0
 66164  1  0
 69165  1  0
 70166  1  6
 71167  1  0
 71168  1  0
 71169  1  0
 74170  1  0
 75171  1  1
 76172  1  0
 76173  1  0
 76174  1  0
 79175  1  0
 80176  1  1
 81177  1  0
 81178  1  0
 81179  1  0
 84180  1  0
 85181  1  1
 86182  1  0
 86183  1  0
 86184  1  0
 89185  1  0
 90186  1  6
 91187  1  0
 91188  1  0
 91189  1  0
 94190  1  0
 95191  1  1
 97192  1  0
 97193  1  0
 99194  1  0
 99195  1  0
101196  1  0
101197  1  0
M  END
