
     RDKit          3D

187189  0  0  0  0  0  0  0  0999 V2000
    4.4524    9.1132   -1.5779 C   0  0  0  0  0  0  0  0  0  0  0  0
    3.7892    7.8594   -1.0996 C   0  0  0  0  0  0  0  0  0  0  0  0
    2.5359    7.8359   -0.9406 O   0  0  0  0  0  0  0  0  0  0  0  0
    4.5638    6.6708   -0.8923 N   0  0  0  0  0  0  0  0  0  0  0  0
    4.9129    6.2010    0.4542 C   0  0  2  0  0  0  0  0  0  0  0  0
    3.6755    5.9131    1.3234 C   0  0  0  0  0  0  0  0  0  0  0  0
    2.5179    4.7297    0.5482 S   0  0  0  0  0  0  0  0  0  0  0  0
    1.7332    4.2295    2.1182 C   0  0  0  0  0  0  0  0  0  0  0  0
    0.3519    3.6805    1.8883 C   0  0  0  0  0  0  0  0  0  0  0  0
   -0.7269    4.5607    1.7263 C   0  0  0  0  0  0  0  0  0  0  0  0
   -2.0413    4.0854    1.5964 C   0  0  0  0  0  0  0  0  0  0  0  0
   -2.2593    2.6966    1.6518 C   0  0  0  0  0  0  0  0  0  0  0  0
   -1.1893    1.8005    1.8117 C   0  0  0  0  0  0  0  0  0  0  0  0
    0.1241    2.2974    1.8980 C   0  0  0  0  0  0  0  0  0  0  0  0
   -1.4619    0.3228    1.8808 C   0  0  0  0  0  0  0  0  0  0  0  0
   -2.0877   -0.2674    0.2692 S   0  0  0  0  0  0  0  0  0  0  0  0
   -0.5393   -1.0076   -0.3671 C   0  0  0  0  0  0  0  0  0  0  0  0
   -0.6565   -2.5397   -0.3970 C   0  0  2  0  0  0  0  0  0  0  0  0
    0.6354   -3.1305   -0.7420 N   0  0  0  0  0  0  0  0  0  0  0  0
    1.5964   -3.4975    0.2490 C   0  0  0  0  0  0  0  0  0  0  0  0
    2.2381   -2.6013    0.8664 O   0  0  0  0  0  0  0  0  0  0  0  0
    1.9252   -4.9400    0.5013 C   0  0  1  0  0  0  0  0  0  0  0  0
    0.7168   -5.6465    1.1292 C   0  0  0  0  0  0  0  0  0  0  0  0
    2.2825   -5.6058   -0.7605 N   0  0  0  0  0  0  0  0  0  0  0  0
    3.2730   -6.6396   -0.9279 C   0  0  0  0  0  0  0  0  0  0  0  0
    3.3484   -7.2146   -2.0483 O   0  0  0  0  0  0  0  0  0  0  0  0
    4.3275   -6.9390    0.1159 C   0  0  1  0  0  0  0  0  0  0  0  0
    4.8034   -8.4004   -0.0071 C   0  0  0  0  0  0  0  0  0  0  0  0
    5.4575   -6.0190   -0.0625 N   0  0  0  0  0  0  0  0  0  0  0  0
    6.6966   -6.1374    0.6673 C   0  0  0  0  0  0  0  0  0  0  0  0
    6.7091   -6.6701    1.8131 O   0  0  0  0  0  0  0  0  0  0  0  0
    7.9793   -5.6027    0.0918 C   0  0  1  0  0  0  0  0  0  0  0  0
    8.1627   -6.0653   -1.3585 C   0  0  0  0  0  0  0  0  0  0  0  0
    7.9976   -4.1413    0.1531 N   0  0  0  0  0  0  0  0  0  0  0  0
    8.9170   -3.4499    1.0038 C   0  0  0  0  0  0  0  0  0  0  0  0
    8.5787   -3.1743    2.1855 O   0  0  0  0  0  0  0  0  0  0  0  0
   10.2833   -3.0573    0.5017 C   0  0  1  0  0  0  0  0  0  0  0  0
   11.2264   -4.2616    0.4758 C   0  0  0  0  0  0  0  0  0  0  0  0
   10.1833   -2.4645   -0.8366 N   0  0  0  0  0  0  0  0  0  0  0  0
    9.9408   -1.0655   -1.0990 C   0  0  0  0  0  0  0  0  0  0  0  0
    9.8040   -0.7039   -2.2988 O   0  0  0  0  0  0  0  0  0  0  0  0
    9.8468   -0.0358    0.0072 C   0  0  1  0  0  0  0  0  0  0  0  0
   11.2394    0.4292    0.4493 C   0  0  0  0  0  0  0  0  0  0  0  0
    9.0153    1.1122   -0.3882 N   0  0  0  0  0  0  0  0  0  0  0  0
    9.5073    2.2172   -1.1599 C   0  0  0  0  0  0  0  0  0  0  0  0
    9.9480    2.0322   -2.3218 O   0  0  0  0  0  0  0  0  0  0  0  0
    9.6190    3.5814   -0.5223 C   0  0  1  0  0  0  0  0  0  0  0  0
   11.0792    4.0517   -0.5617 C   0  0  0  0  0  0  0  0  0  0  0  0
    8.7591    4.5511   -1.2090 N   0  0  0  0  0  0  0  0  0  0  0  0
    8.4089    5.8287   -0.6316 C   0  0  0  0  0  0  0  0  0  0  0  0
    8.3605    6.8359   -1.3882 O   0  0  0  0  0  0  0  0  0  0  0  0
    8.0523    5.9842    0.8376 C   0  0  1  0  0  0  0  0  0  0  0  0
    9.3233    6.1323    1.7077 C   0  0  0  0  0  0  0  0  0  0  0  0
    7.2371    7.1914    1.0205 N   0  0  0  0  0  0  0  0  0  0  0  0
    5.8021    7.2236    1.1294 C   0  0  0  0  0  0  0  0  0  0  0  0
    5.2710    8.2265    1.6841 O   0  0  0  0  0  0  0  0  0  0  0  0
   -1.6906   -2.9640   -1.4213 C   0  0  0  0  0  0  0  0  0  0  0  0
   -1.4669   -2.7007   -2.6405 O   0  0  0  0  0  0  0  0  0  0  0  0
   -2.9399   -3.5734   -1.0649 N   0  0  0  0  0  0  0  0  0  0  0  0
   -3.1021   -4.6418   -0.0737 C   0  0  2  0  0  0  0  0  0  0  0  0
   -2.8525   -5.9973   -0.7634 C   0  0  0  0  0  0  0  0  0  0  0  0
   -4.4847   -4.5382    0.5279 C   0  0  0  0  0  0  0  0  0  0  0  0
   -4.8949   -3.4194    0.9363 O   0  0  0  0  0  0  0  0  0  0  0  0
   -5.3466   -5.6909    0.6337 N   0  0  0  0  0  0  0  0  0  0  0  0
   -6.8095   -5.6064    0.5774 C   0  0  2  0  0  0  0  0  0  0  0  0
   -7.3861   -7.0358    0.6463 C   0  0  0  0  0  0  0  0  0  0  0  0
   -7.2752   -4.9143   -0.6957 C   0  0  0  0  0  0  0  0  0  0  0  0
   -6.4242   -4.6336   -1.5920 O   0  0  0  0  0  0  0  0  0  0  0  0
   -8.6519   -4.5495   -0.9256 N   0  0  0  0  0  0  0  0  0  0  0  0
   -9.6807   -4.4221    0.1134 C   0  0  2  0  0  0  0  0  0  0  0  0
  -11.0777   -4.6236   -0.4870 C   0  0  0  0  0  0  0  0  0  0  0  0
   -9.6031   -3.0994    0.8419 C   0  0  0  0  0  0  0  0  0  0  0  0
  -10.1012   -3.0399    2.0046 O   0  0  0  0  0  0  0  0  0  0  0  0
   -8.9939   -1.9221    0.2899 N   0  0  0  0  0  0  0  0  0  0  0  0
   -9.3643   -1.3675   -1.0096 C   0  0  2  0  0  0  0  0  0  0  0  0
   -8.1461   -0.6540   -1.6070 C   0  0  0  0  0  0  0  0  0  0  0  0
  -10.5700   -0.4620   -0.8492 C   0  0  0  0  0  0  0  0  0  0  0  0
  -11.6052   -0.9316   -0.2842 O   0  0  0  0  0  0  0  0  0  0  0  0
  -10.6100    0.8697   -1.3909 N   0  0  0  0  0  0  0  0  0  0  0  0
  -11.1198    2.0102   -0.6157 C   0  0  2  0  0  0  0  0  0  0  0  0
  -12.6533    1.9682   -0.5014 C   0  0  0  0  0  0  0  0  0  0  0  0
  -10.7143    3.3239   -1.2761 C   0  0  0  0  0  0  0  0  0  0  0  0
  -11.1544    3.5823   -2.4239 O   0  0  0  0  0  0  0  0  0  0  0  0
   -9.8809    4.3039   -0.6269 N   0  0  0  0  0  0  0  0  0  0  0  0
   -9.0623    4.0782    0.5723 C   0  0  2  0  0  0  0  0  0  0  0  0
   -8.6456    5.4101    1.2124 C   0  0  0  0  0  0  0  0  0  0  0  0
   -7.8956    3.1565    0.2749 C   0  0  0  0  0  0  0  0  0  0  0  0
   -7.7223    2.1523    1.0167 O   0  0  0  0  0  0  0  0  0  0  0  0
   -7.0350    3.3171   -0.8674 N   0  0  0  0  0  0  0  0  0  0  0  0
   -6.3254    4.5620   -1.2151 C   0  0  2  0  0  0  0  0  0  0  0  0
   -6.3996    4.7999   -2.7053 C   0  0  0  0  0  0  0  0  0  0  0  0
   -7.6506    4.6704   -3.3825 N   0  0  0  0  0  0  0  0  0  0  0  0
   -5.3811    5.1307   -3.3582 O   0  0  0  0  0  0  0  0  0  0  0  0
   -4.8669    4.4784   -0.7133 C   0  0  0  0  0  0  0  0  0  0  0  0
   -4.8211    4.3826    1.1252 S   0  0  0  0  0  0  0  0  0  0  0  0
   -3.1444    5.0917    1.3711 C   0  0  0  0  0  0  0  0  0  0  0  0
    5.5597    8.9796   -1.6154 H   0  0  0  0  0  0  0  0  0  0  0  0
    4.2246    9.9415   -0.8764 H   0  0  0  0  0  0  0  0  0  0  0  0
    4.0748    9.3771   -2.5886 H   0  0  0  0  0  0  0  0  0  0  0  0
    5.1996    6.3730   -1.6669 H   0  0  0  0  0  0  0  0  0  0  0  0
    5.4595    5.2439    0.3470 H   0  0  0  0  0  0  0  0  0  0  0  0
    3.1191    6.8501    1.5310 H   0  0  0  0  0  0  0  0  0  0  0  0
    4.0238    5.5033    2.2943 H   0  0  0  0  0  0  0  0  0  0  0  0
    2.3856    3.4765    2.6043 H   0  0  0  0  0  0  0  0  0  0  0  0
    1.6651    5.0904    2.8128 H   0  0  0  0  0  0  0  0  0  0  0  0
   -0.5478    5.6288    1.7059 H   0  0  0  0  0  0  0  0  0  0  0  0
   -3.2567    2.2881    1.5585 H   0  0  0  0  0  0  0  0  0  0  0  0
    0.9579    1.6112    1.9824 H   0  0  0  0  0  0  0  0  0  0  0  0
   -0.5696   -0.2485    2.2295 H   0  0  0  0  0  0  0  0  0  0  0  0
   -2.2482    0.1313    2.6419 H   0  0  0  0  0  0  0  0  0  0  0  0
   -0.3528   -0.6080   -1.3895 H   0  0  0  0  0  0  0  0  0  0  0  0
    0.3382   -0.6962    0.2480 H   0  0  0  0  0  0  0  0  0  0  0  0
   -0.9419   -2.8785    0.6246 H   0  0  0  0  0  0  0  0  0  0  0  0
    0.9739   -3.0709   -1.7309 H   0  0  0  0  0  0  0  0  0  0  0  0
    2.7675   -4.9929    1.2338 H   0  0  0  0  0  0  0  0  0  0  0  0
   -0.1217   -5.6918    0.4012 H   0  0  0  0  0  0  0  0  0  0  0  0
    0.3686   -5.1014    2.0427 H   0  0  0  0  0  0  0  0  0  0  0  0
    0.9882   -6.6811    1.4274 H   0  0  0  0  0  0  0  0  0  0  0  0
    1.6419   -5.4574   -1.5747 H   0  0  0  0  0  0  0  0  0  0  0  0
    3.9094   -6.8217    1.1341 H   0  0  0  0  0  0  0  0  0  0  0  0
    5.4508   -8.5326   -0.9055 H   0  0  0  0  0  0  0  0  0  0  0  0
    5.3803   -8.7099    0.8963 H   0  0  0  0  0  0  0  0  0  0  0  0
    3.9313   -9.0800   -0.0956 H   0  0  0  0  0  0  0  0  0  0  0  0
    5.3651   -5.2251   -0.7379 H   0  0  0  0  0  0  0  0  0  0  0  0
    8.8240   -6.0100    0.6903 H   0  0  0  0  0  0  0  0  0  0  0  0
    7.3775   -5.6422   -2.0215 H   0  0  0  0  0  0  0  0  0  0  0  0
    9.1472   -5.7350   -1.7392 H   0  0  0  0  0  0  0  0  0  0  0  0
    8.1382   -7.1780   -1.4095 H   0  0  0  0  0  0  0  0  0  0  0  0
    7.2224   -3.5915   -0.2959 H   0  0  0  0  0  0  0  0  0  0  0  0
   10.7192   -2.3319    1.2115 H   0  0  0  0  0  0  0  0  0  0  0  0
   12.2462   -3.9270    0.2017 H   0  0  0  0  0  0  0  0  0  0  0  0
   10.8959   -5.0149   -0.2709 H   0  0  0  0  0  0  0  0  0  0  0  0
   11.2668   -4.7459    1.4761 H   0  0  0  0  0  0  0  0  0  0  0  0
   10.2022   -3.1033   -1.6587 H   0  0  0  0  0  0  0  0  0  0  0  0
    9.3558   -0.5108    0.8839 H   0  0  0  0  0  0  0  0  0  0  0  0
   11.8410   -0.4118    0.8485 H   0  0  0  0  0  0  0  0  0  0  0  0
   11.8039    0.8658   -0.4053 H   0  0  0  0  0  0  0  0  0  0  0  0
   11.1443    1.1927    1.2525 H   0  0  0  0  0  0  0  0  0  0  0  0
    8.0920    1.2379    0.0966 H   0  0  0  0  0  0  0  0  0  0  0  0
    9.2903    3.4777    0.5331 H   0  0  0  0  0  0  0  0  0  0  0  0
   11.1884    5.0623   -0.1223 H   0  0  0  0  0  0  0  0  0  0  0  0
   11.4410    4.0977   -1.6173 H   0  0  0  0  0  0  0  0  0  0  0  0
   11.7257    3.3536    0.0149 H   0  0  0  0  0  0  0  0  0  0  0  0
    8.7241    4.4909   -2.2480 H   0  0  0  0  0  0  0  0  0  0  0  0
    7.5030    5.0897    1.1894 H   0  0  0  0  0  0  0  0  0  0  0  0
    9.0356    6.4702    2.7267 H   0  0  0  0  0  0  0  0  0  0  0  0
    9.8472    5.1674    1.8292 H   0  0  0  0  0  0  0  0  0  0  0  0
   10.0164    6.8673    1.2531 H   0  0  0  0  0  0  0  0  0  0  0  0
    7.7321    8.1023    1.1353 H   0  0  0  0  0  0  0  0  0  0  0  0
   -3.7081   -3.4774   -1.7694 H   0  0  0  0  0  0  0  0  0  0  0  0
   -2.3509   -4.5387    0.7445 H   0  0  0  0  0  0  0  0  0  0  0  0
   -1.8727   -5.9897   -1.2913 H   0  0  0  0  0  0  0  0  0  0  0  0
   -3.6459   -6.1906   -1.5271 H   0  0  0  0  0  0  0  0  0  0  0  0
   -2.8421   -6.8239   -0.0192 H   0  0  0  0  0  0  0  0  0  0  0  0
   -4.9144   -6.5736    1.0171 H   0  0  0  0  0  0  0  0  0  0  0  0
   -7.1821   -5.0269    1.4542 H   0  0  0  0  0  0  0  0  0  0  0  0
   -7.2300   -7.4371    1.6715 H   0  0  0  0  0  0  0  0  0  0  0  0
   -6.8658   -7.7002   -0.0763 H   0  0  0  0  0  0  0  0  0  0  0  0
   -8.4697   -7.0736    0.4167 H   0  0  0  0  0  0  0  0  0  0  0  0
   -8.9124   -4.3230   -1.9144 H   0  0  0  0  0  0  0  0  0  0  0  0
   -9.5389   -5.2267    0.8701 H   0  0  0  0  0  0  0  0  0  0  0  0
  -11.1587   -5.6493   -0.9158 H   0  0  0  0  0  0  0  0  0  0  0  0
  -11.2700   -3.8850   -1.2922 H   0  0  0  0  0  0  0  0  0  0  0  0
  -11.8549   -4.5143    0.2938 H   0  0  0  0  0  0  0  0  0  0  0  0
   -8.6370   -1.2431    1.0048 H   0  0  0  0  0  0  0  0  0  0  0  0
   -9.6389   -2.1797   -1.7179 H   0  0  0  0  0  0  0  0  0  0  0  0
   -7.8639    0.1957   -0.9466 H   0  0  0  0  0  0  0  0  0  0  0  0
   -8.3520   -0.2622   -2.6275 H   0  0  0  0  0  0  0  0  0  0  0  0
   -7.2909   -1.3592   -1.6696 H   0  0  0  0  0  0  0  0  0  0  0  0
  -10.1040    1.0689   -2.2794 H   0  0  0  0  0  0  0  0  0  0  0  0
  -10.7073    1.9443    0.4100 H   0  0  0  0  0  0  0  0  0  0  0  0
  -13.0301    2.9085   -0.0315 H   0  0  0  0  0  0  0  0  0  0  0  0
  -13.1167    1.8507   -1.5132 H   0  0  0  0  0  0  0  0  0  0  0  0
  -12.9747    1.1210    0.1415 H   0  0  0  0  0  0  0  0  0  0  0  0
   -9.8633    5.2610   -1.0592 H   0  0  0  0  0  0  0  0  0  0  0  0
   -9.6876    3.5912    1.3552 H   0  0  0  0  0  0  0  0  0  0  0  0
   -8.3928    6.1879    0.4672 H   0  0  0  0  0  0  0  0  0  0  0  0
   -7.7738    5.2664    1.8859 H   0  0  0  0  0  0  0  0  0  0  0  0
   -9.4917    5.8172    1.8116 H   0  0  0  0  0  0  0  0  0  0  0  0
   -6.6742    2.4392   -1.3004 H   0  0  0  0  0  0  0  0  0  0  0  0
   -6.7846    5.4354   -0.7328 H   0  0  0  0  0  0  0  0  0  0  0  0
   -7.7898    5.1084   -4.3224 H   0  0  0  0  0  0  0  0  0  0  0  0
   -8.4745    4.2276   -2.9079 H   0  0  0  0  0  0  0  0  0  0  0  0
   -4.3149    5.3866   -1.0511 H   0  0  0  0  0  0  0  0  0  0  0  0
   -4.3630    3.5787   -1.1260 H   0  0  0  0  0  0  0  0  0  0  0  0
   -3.2112    5.7113    2.2930 H   0  0  0  0  0  0  0  0  0  0  0  0
   -2.8699    5.7859    0.5512 H   0  0  0  0  0  0  0  0  0  0  0  0
  1  2  1  0
  2  3  2  0
  2  4  1  0
  4  5  1  0
  5  6  1  0
  6  7  1  0
  7  8  1  0
  8  9  1  0
  9 10  1  0
 10 11  2  0
 11 12  1  0
 12 13  2  0
 13 14  1  0
 13 15  1  0
 15 16  1  0
 16 17  1  0
 17 18  1  0
 18 19  1  0
 19 20  1  0
 20 21  2  0
 20 22  1  0
 22 23  1  0
 22 24  1  0
 24 25  1  0
 25 26  2  0
 25 27  1  0
 27 28  1  0
 27 29  1  0
 29 30  1  0
 30 31  2  0
 30 32  1  0
 32 33  1  0
 32 34  1  0
 34 35  1  0
 35 36  2  0
 35 37  1  0
 37 38  1  0
 37 39  1  0
 39 40  1  0
 40 41  2  0
 40 42  1  0
 42 43  1  0
 42 44  1  0
 44 45  1  0
 45 46  2  0
 45 47  1  0
 47 48  1  0
 47 49  1  0
 49 50  1  0
 50 51  2  0
 50 52  1  0
 52 53  1  0
 52 54  1  0
 54 55  1  0
 55 56  2  0
 18 57  1  0
 57 58  2  0
 57 59  1  0
 59 60  1  0
 60 61  1  0
 60 62  1  0
 62 63  2  0
 62 64  1  0
 64 65  1  0
 65 66  1  0
 65 67  1  0
 67 68  2  0
 67 69  1  0
 69 70  1  0
 70 71  1  0
 70 72  1  0
 72 73  2  0
 72 74  1  0
 74 75  1  0
 75 76  1  0
 75 77  1  0
 77 78  2  0
 77 79  1  0
 79 80  1  0
 80 81  1  0
 80 82  1  0
 82 83  2  0
 82 84  1  0
 84 85  1  0
 85 86  1  0
 85 87  1  0
 87 88  2  0
 87 89  1  0
 89 90  1  0
 90 91  1  0
 91 92  1  0
 91 93  2  0
 90 94  1  0
 94 95  1  0
 95 96  1  0
 55  5  1  0
 14  9  2  0
 96 11  1  0
  1 97  1  0
  1 98  1  0
  1 99  1  0
  4100  1  0
  5101  1  6
  6102  1  0
  6103  1  0
  8104  1  0
  8105  1  0
 10106  1  0
 12107  1  0
 14108  1  0
 15109  1  0
 15110  1  0
 17111  1  0
 17112  1  0
 18113  1  1
 19114  1  0
 22115  1  1
 23116  1  0
 23117  1  0
 23118  1  0
 24119  1  0
 27120  1  1
 28121  1  0
 28122  1  0
 28123  1  0
 29124  1  0
 32125  1  1
 33126  1  0
 33127  1  0
 33128  1  0
 34129  1  0
 37130  1  1
 38131  1  0
 38132  1  0
 38133  1  0
 39134  1  0
 42135  1  1
 43136  1  0
 43137  1  0
 43138  1  0
 44139  1  0
 47140  1  1
 48141  1  0
 48142  1  0
 48143  1  0
 49144  1  0
 52145  1  1
 53146  1  0
 53147  1  0
 53148  1  0
 54149  1  0
 59150  1  0
 60151  1  1
 61152  1  0
 61153  1  0
 61154  1  0
 64155  1  0
 65156  1  1
 66157  1  0
 66158  1  0
 66159  1  0
 69160  1  0
 70161  1  1
 71162  1  0
 71163  1  0
 71164  1  0
 74165  1  0
 75166  1  6
 76167  1  0
 76168  1  0
 76169  1  0
 79170  1  0
 80171  1  1
 81172  1  0
 81173  1  0
 81174  1  0
 84175  1  0
 85176  1  1
 86177  1  0
 86178  1  0
 86179  1  0
 89180  1  0
 90181  1  1
 92182  1  0
 92183  1  0
 94184  1  0
 94185  1  0
 96186  1  0
 96187  1  0
M  END
