
     RDKit          3D

207209  0  0  0  0  0  0  0  0999 V2000
    6.4250   -6.0983   -3.3585 C   0  0  0  0  0  0  0  0  0  0  0  0
    5.5721   -7.2778   -2.9907 C   0  0  0  0  0  0  0  0  0  0  0  0
    5.5687   -8.2873   -3.7462 O   0  0  0  0  0  0  0  0  0  0  0  0
    4.7714   -7.2966   -1.8008 N   0  0  0  0  0  0  0  0  0  0  0  0
    4.7713   -6.2172   -0.8056 C   0  0  1  0  0  0  0  0  0  0  0  0
    3.5689   -6.3252    0.1529 C   0  0  0  0  0  0  0  0  0  0  0  0
    1.9943   -6.6952   -0.7135 S   0  0  0  0  0  0  0  0  0  0  0  0
    1.6609   -5.0248   -1.4010 C   0  0  0  0  0  0  0  0  0  0  0  0
    1.2418   -4.0407   -0.3400 C   0  0  0  0  0  0  0  0  0  0  0  0
    0.2991   -4.3975    0.6381 C   0  0  0  0  0  0  0  0  0  0  0  0
   -0.1213   -3.4616    1.5958 C   0  0  0  0  0  0  0  0  0  0  0  0
    0.3678   -2.1513    1.5452 C   0  0  0  0  0  0  0  0  0  0  0  0
    1.2715   -1.7659    0.5428 C   0  0  0  0  0  0  0  0  0  0  0  0
    1.7312   -2.7257   -0.3771 C   0  0  0  0  0  0  0  0  0  0  0  0
    1.6729   -0.3295    0.4034 C   0  0  0  0  0  0  0  0  0  0  0  0
    0.2260    0.6563   -0.1159 S   0  0  0  0  0  0  0  0  0  0  0  0
    1.1724    2.1743   -0.5015 C   0  0  0  0  0  0  0  0  0  0  0  0
    0.3364    3.4348   -0.2016 C   0  0  2  0  0  0  0  0  0  0  0  0
    0.8802    4.6049   -0.9090 N   0  0  0  0  0  0  0  0  0  0  0  0
    1.9416    5.4581   -0.4467 C   0  0  0  0  0  0  0  0  0  0  0  0
    1.7331    6.6984   -0.3912 O   0  0  0  0  0  0  0  0  0  0  0  0
    3.3299    4.9569   -0.1147 C   0  0  1  0  0  0  0  0  0  0  0  0
    3.4545    4.5805    1.3630 C   0  0  0  0  0  0  0  0  0  0  0  0
    3.7312    3.8650   -1.0058 N   0  0  0  0  0  0  0  0  0  0  0  0
    4.9529    3.1495   -0.8112 C   0  0  0  0  0  0  0  0  0  0  0  0
    4.9200    2.0245   -0.2437 O   0  0  0  0  0  0  0  0  0  0  0  0
    6.2720    3.6996   -1.2872 C   0  0  1  0  0  0  0  0  0  0  0  0
    6.8057    2.8740   -2.4551 C   0  0  0  0  0  0  0  0  0  0  0  0
    6.1457    5.1044   -1.6955 N   0  0  0  0  0  0  0  0  0  0  0  0
    6.8857    6.1805   -1.1076 C   0  0  0  0  0  0  0  0  0  0  0  0
    6.3587    7.3262   -1.0642 O   0  0  0  0  0  0  0  0  0  0  0  0
    8.2718    5.9800   -0.5464 C   0  0  1  0  0  0  0  0  0  0  0  0
    9.1783    7.1615   -0.9163 C   0  0  0  0  0  0  0  0  0  0  0  0
    8.1978    5.8663    0.9151 N   0  0  0  0  0  0  0  0  0  0  0  0
    8.6003    4.7256    1.7016 C   0  0  0  0  0  0  0  0  0  0  0  0
    8.1488    4.6287    2.8770 O   0  0  0  0  0  0  0  0  0  0  0  0
    9.5539    3.6577    1.1793 C   0  0  1  0  0  0  0  0  0  0  0  0
   10.9181    4.2599    0.8446 C   0  0  0  0  0  0  0  0  0  0  0  0
    9.7351    2.5928    2.1763 N   0  0  0  0  0  0  0  0  0  0  0  0
    9.9986    1.2049    1.8943 C   0  0  0  0  0  0  0  0  0  0  0  0
   10.0563    0.4001    2.8636 O   0  0  0  0  0  0  0  0  0  0  0  0
   10.2741    0.6585    0.5075 C   0  0  1  0  0  0  0  0  0  0  0  0
   11.7792    0.3659    0.3844 C   0  0  0  0  0  0  0  0  0  0  0  0
    9.4568   -0.5471    0.3033 N   0  0  0  0  0  0  0  0  0  0  0  0
    9.8299   -1.6509   -0.5372 C   0  0  0  0  0  0  0  0  0  0  0  0
   10.4169   -1.4441   -1.6347 O   0  0  0  0  0  0  0  0  0  0  0  0
    9.5146   -3.0682   -0.1236 C   0  0  1  0  0  0  0  0  0  0  0  0
   10.7938   -3.9107   -0.0811 C   0  0  0  0  0  0  0  0  0  0  0  0
    8.8724   -3.0970    1.1966 N   0  0  0  0  0  0  0  0  0  0  0  0
    7.4561   -3.1956    1.4402 C   0  0  0  0  0  0  0  0  0  0  0  0
    7.0136   -2.7858    2.5495 O   0  0  0  0  0  0  0  0  0  0  0  0
    6.4762   -3.8281    0.4703 C   0  0  1  0  0  0  0  0  0  0  0  0
    6.2092   -2.9283   -0.7460 C   0  0  0  0  0  0  0  0  0  0  0  0
    6.9405   -5.1631    0.0742 N   0  0  0  0  0  0  0  0  0  0  0  0
    6.0551   -6.2838   -0.0242 C   0  0  0  0  0  0  0  0  0  0  0  0
    6.3974   -7.3765    0.5036 O   0  0  0  0  0  0  0  0  0  0  0  0
    0.1550    3.7136    1.2810 C   0  0  0  0  0  0  0  0  0  0  0  0
    0.5942    2.8929    2.1299 O   0  0  0  0  0  0  0  0  0  0  0  0
   -0.5030    4.8972    1.7548 N   0  0  0  0  0  0  0  0  0  0  0  0
   -1.6331    5.5373    1.0688 C   0  0  2  0  0  0  0  0  0  0  0  0
   -1.4810    7.0580    1.1680 C   0  0  0  0  0  0  0  0  0  0  0  0
   -2.9424    5.0790    1.6784 C   0  0  0  0  0  0  0  0  0  0  0  0
   -2.9509    4.2150    2.5978 O   0  0  0  0  0  0  0  0  0  0  0  0
   -4.1850    5.6050    1.1860 N   0  0  0  0  0  0  0  0  0  0  0  0
   -5.3565    4.8000    0.7925 C   0  0  2  0  0  0  0  0  0  0  0  0
   -5.0647    3.2946    0.7143 C   0  0  0  0  0  0  0  0  0  0  0  0
   -5.8367    5.2750   -0.5609 C   0  0  0  0  0  0  0  0  0  0  0  0
   -5.0205    5.2442   -1.5268 O   0  0  0  0  0  0  0  0  0  0  0  0
   -7.1709    5.7522   -0.8142 N   0  0  0  0  0  0  0  0  0  0  0  0
   -8.1152    6.3151    0.1604 C   0  0  2  0  0  0  0  0  0  0  0  0
   -7.5068    7.5400    0.8606 C   0  0  0  0  0  0  0  0  0  0  0  0
   -8.6274    5.2655    1.1263 C   0  0  0  0  0  0  0  0  0  0  0  0
   -8.5864    5.4884    2.3650 O   0  0  0  0  0  0  0  0  0  0  0  0
   -9.1523    4.0092    0.6725 N   0  0  0  0  0  0  0  0  0  0  0  0
   -9.8794    3.8444   -0.5911 C   0  0  2  0  0  0  0  0  0  0  0  0
  -11.3708    4.1136   -0.3744 C   0  0  0  0  0  0  0  0  0  0  0  0
   -9.6527    2.4760   -1.1815 C   0  0  0  0  0  0  0  0  0  0  0  0
   -9.8539    2.2993   -2.4142 O   0  0  0  0  0  0  0  0  0  0  0  0
   -9.2122    1.3739   -0.3863 N   0  0  0  0  0  0  0  0  0  0  0  0
  -10.1008    0.7177    0.5713 C   0  0  2  0  0  0  0  0  0  0  0  0
   -9.2979    0.1409    1.7387 C   0  0  0  0  0  0  0  0  0  0  0  0
  -10.9562   -0.3293   -0.1096 C   0  0  0  0  0  0  0  0  0  0  0  0
  -12.1137   -0.0097   -0.4934 O   0  0  0  0  0  0  0  0  0  0  0  0
  -10.5388   -1.6940   -0.2534 N   0  0  0  0  0  0  0  0  0  0  0  0
   -9.3730   -2.0913   -1.0396 C   0  0  2  0  0  0  0  0  0  0  0  0
   -9.8153   -2.9128   -2.2561 C   0  0  0  0  0  0  0  0  0  0  0  0
   -8.3865   -2.8249   -0.1690 C   0  0  0  0  0  0  0  0  0  0  0  0
   -7.2188   -2.3752   -0.0595 O   0  0  0  0  0  0  0  0  0  0  0  0
   -8.7773   -3.9398    0.6393 N   0  0  0  0  0  0  0  0  0  0  0  0
   -9.0756   -5.2596    0.0743 C   0  0  2  0  0  0  0  0  0  0  0  0
  -10.5172   -5.6519    0.4180 C   0  0  0  0  0  0  0  0  0  0  0  0
   -8.0891   -6.2842    0.6056 C   0  0  0  0  0  0  0  0  0  0  0  0
   -8.3600   -6.9117    1.6661 O   0  0  0  0  0  0  0  0  0  0  0  0
   -6.8352   -6.5576   -0.0467 N   0  0  0  0  0  0  0  0  0  0  0  0
   -6.3083   -5.7821   -1.1732 C   0  0  2  0  0  0  0  0  0  0  0  0
   -6.7696   -6.4158   -2.4953 C   0  0  0  0  0  0  0  0  0  0  0  0
   -4.7970   -5.6950   -1.1304 C   0  0  0  0  0  0  0  0  0  0  0  0
   -4.1865   -5.1569   -2.0965 O   0  0  0  0  0  0  0  0  0  0  0  0
   -4.0257   -6.2654   -0.0650 N   0  0  0  0  0  0  0  0  0  0  0  0
   -3.6473   -5.5383    1.1547 C   0  0  2  0  0  0  0  0  0  0  0  0
   -4.7450   -5.6425    2.1898 C   0  0  0  0  0  0  0  0  0  0  0  0
   -5.8340   -4.7222    2.2259 N   0  0  0  0  0  0  0  0  0  0  0  0
   -4.7003   -6.5831    3.0293 O   0  0  0  0  0  0  0  0  0  0  0  0
   -3.2137   -4.0871    0.8382 C   0  0  0  0  0  0  0  0  0  0  0  0
   -2.7638   -3.1276    2.3418 S   0  0  0  0  0  0  0  0  0  0  0  0
   -1.1084   -3.8561    2.6569 C   0  0  0  0  0  0  0  0  0  0  0  0
    7.1942   -5.9209   -2.5772 H   0  0  0  0  0  0  0  0  0  0  0  0
    6.9548   -6.2844   -4.3118 H   0  0  0  0  0  0  0  0  0  0  0  0
    5.7937   -5.1941   -3.4730 H   0  0  0  0  0  0  0  0  0  0  0  0
    4.2174   -8.1631   -1.6083 H   0  0  0  0  0  0  0  0  0  0  0  0
    4.6966   -5.2469   -1.3306 H   0  0  0  0  0  0  0  0  0  0  0  0
    3.7365   -7.1518    0.8745 H   0  0  0  0  0  0  0  0  0  0  0  0
    3.4644   -5.3865    0.7410 H   0  0  0  0  0  0  0  0  0  0  0  0
    0.8251   -5.1222   -2.1245 H   0  0  0  0  0  0  0  0  0  0  0  0
    2.5426   -4.6686   -1.9736 H   0  0  0  0  0  0  0  0  0  0  0  0
   -0.1154   -5.3972    0.6509 H   0  0  0  0  0  0  0  0  0  0  0  0
    0.0302   -1.4181    2.2680 H   0  0  0  0  0  0  0  0  0  0  0  0
    2.4378   -2.4370   -1.1486 H   0  0  0  0  0  0  0  0  0  0  0  0
    2.0319    0.0567    1.3812 H   0  0  0  0  0  0  0  0  0  0  0  0
    2.4952   -0.2189   -0.3410 H   0  0  0  0  0  0  0  0  0  0  0  0
    2.1172    2.1944    0.0737 H   0  0  0  0  0  0  0  0  0  0  0  0
    1.4235    2.1464   -1.5830 H   0  0  0  0  0  0  0  0  0  0  0  0
   -0.6790    3.2366   -0.6183 H   0  0  0  0  0  0  0  0  0  0  0  0
    0.2670    5.0140   -1.6508 H   0  0  0  0  0  0  0  0  0  0  0  0
    4.0268    5.8105   -0.2858 H   0  0  0  0  0  0  0  0  0  0  0  0
    3.0190    5.3775    2.0022 H   0  0  0  0  0  0  0  0  0  0  0  0
    2.9534    3.6237    1.5854 H   0  0  0  0  0  0  0  0  0  0  0  0
    4.5255    4.4732    1.6420 H   0  0  0  0  0  0  0  0  0  0  0  0
    3.2889    3.7906   -1.9523 H   0  0  0  0  0  0  0  0  0  0  0  0
    6.9730    3.6112   -0.4373 H   0  0  0  0  0  0  0  0  0  0  0  0
    6.9714    1.8214   -2.1380 H   0  0  0  0  0  0  0  0  0  0  0  0
    6.0847    2.8845   -3.2996 H   0  0  0  0  0  0  0  0  0  0  0  0
    7.7705    3.2932   -2.7993 H   0  0  0  0  0  0  0  0  0  0  0  0
    5.4185    5.3499   -2.4075 H   0  0  0  0  0  0  0  0  0  0  0  0
    8.7115    5.0703   -1.0003 H   0  0  0  0  0  0  0  0  0  0  0  0
    8.7900    8.1090   -0.4825 H   0  0  0  0  0  0  0  0  0  0  0  0
   10.2074    7.0105   -0.5290 H   0  0  0  0  0  0  0  0  0  0  0  0
    9.2298    7.2671   -2.0209 H   0  0  0  0  0  0  0  0  0  0  0  0
    7.7393    6.6532    1.4263 H   0  0  0  0  0  0  0  0  0  0  0  0
    9.1016    3.2357    0.2629 H   0  0  0  0  0  0  0  0  0  0  0  0
   11.2948    4.8803    1.6862 H   0  0  0  0  0  0  0  0  0  0  0  0
   11.6532    3.4549    0.6437 H   0  0  0  0  0  0  0  0  0  0  0  0
   10.8656    4.8769   -0.0710 H   0  0  0  0  0  0  0  0  0  0  0  0
    9.8309    2.8703    3.1794 H   0  0  0  0  0  0  0  0  0  0  0  0
   10.0070    1.3870   -0.2748 H   0  0  0  0  0  0  0  0  0  0  0  0
   12.0631    0.2283   -0.6790 H   0  0  0  0  0  0  0  0  0  0  0  0
   12.0444   -0.5529    0.9494 H   0  0  0  0  0  0  0  0  0  0  0  0
   12.3786    1.2093    0.7791 H   0  0  0  0  0  0  0  0  0  0  0  0
    8.5145   -0.5819    0.7570 H   0  0  0  0  0  0  0  0  0  0  0  0
    8.8644   -3.5120   -0.8944 H   0  0  0  0  0  0  0  0  0  0  0  0
   10.5482   -4.9499    0.2407 H   0  0  0  0  0  0  0  0  0  0  0  0
   11.2578   -3.9667   -1.0906 H   0  0  0  0  0  0  0  0  0  0  0  0
   11.5274   -3.4777    0.6318 H   0  0  0  0  0  0  0  0  0  0  0  0
    9.4664   -2.8147    2.0117 H   0  0  0  0  0  0  0  0  0  0  0  0
    5.5094   -3.9373    1.0123 H   0  0  0  0  0  0  0  0  0  0  0  0
    5.1403   -2.9860   -1.0357 H   0  0  0  0  0  0  0  0  0  0  0  0
    6.4319   -1.8607   -0.5121 H   0  0  0  0  0  0  0  0  0  0  0  0
    6.8093   -3.2306   -1.6285 H   0  0  0  0  0  0  0  0  0  0  0  0
    7.9515   -5.3972    0.1865 H   0  0  0  0  0  0  0  0  0  0  0  0
   -0.3299    5.1652    2.7512 H   0  0  0  0  0  0  0  0  0  0  0  0
   -1.6469    5.2748   -0.0037 H   0  0  0  0  0  0  0  0  0  0  0  0
   -0.4871    7.3654    0.7789 H   0  0  0  0  0  0  0  0  0  0  0  0
   -1.5706    7.4010    2.2233 H   0  0  0  0  0  0  0  0  0  0  0  0
   -2.2518    7.5686    0.5483 H   0  0  0  0  0  0  0  0  0  0  0  0
   -4.2692    6.6407    1.0939 H   0  0  0  0  0  0  0  0  0  0  0  0
   -6.1383    4.9382    1.5646 H   0  0  0  0  0  0  0  0  0  0  0  0
   -4.8996    2.8811    1.7307 H   0  0  0  0  0  0  0  0  0  0  0  0
   -4.1711    3.0922    0.0866 H   0  0  0  0  0  0  0  0  0  0  0  0
   -5.9364    2.7593    0.2819 H   0  0  0  0  0  0  0  0  0  0  0  0
   -7.4391    5.8381   -1.8239 H   0  0  0  0  0  0  0  0  0  0  0  0
   -8.9986    6.6962   -0.4014 H   0  0  0  0  0  0  0  0  0  0  0  0
   -6.6548    7.2552    1.5125 H   0  0  0  0  0  0  0  0  0  0  0  0
   -8.2784    8.0455    1.4800 H   0  0  0  0  0  0  0  0  0  0  0  0
   -7.1401    8.2660    0.1007 H   0  0  0  0  0  0  0  0  0  0  0  0
   -9.3021    3.2912    1.4135 H   0  0  0  0  0  0  0  0  0  0  0  0
   -9.5117    4.5800   -1.3354 H   0  0  0  0  0  0  0  0  0  0  0  0
  -11.5203    5.1519   -0.0039 H   0  0  0  0  0  0  0  0  0  0  0  0
  -11.7989    3.4155    0.3764 H   0  0  0  0  0  0  0  0  0  0  0  0
  -11.9315    3.9927   -1.3278 H   0  0  0  0  0  0  0  0  0  0  0  0
   -8.3786    0.8499   -0.7353 H   0  0  0  0  0  0  0  0  0  0  0  0
  -10.7865    1.4682    1.0104 H   0  0  0  0  0  0  0  0  0  0  0  0
   -9.9615   -0.4201    2.4293 H   0  0  0  0  0  0  0  0  0  0  0  0
   -8.4889   -0.5255    1.3787 H   0  0  0  0  0  0  0  0  0  0  0  0
   -8.8240    0.9684    2.3131 H   0  0  0  0  0  0  0  0  0  0  0  0
  -11.2158   -2.4357    0.0305 H   0  0  0  0  0  0  0  0  0  0  0  0
   -8.8670   -1.1941   -1.4495 H   0  0  0  0  0  0  0  0  0  0  0  0
  -10.3730   -2.2589   -2.9610 H   0  0  0  0  0  0  0  0  0  0  0  0
   -8.9279   -3.3261   -2.7879 H   0  0  0  0  0  0  0  0  0  0  0  0
  -10.4902   -3.7435   -1.9661 H   0  0  0  0  0  0  0  0  0  0  0  0
   -8.6545   -3.8585    1.6710 H   0  0  0  0  0  0  0  0  0  0  0  0
   -9.0033   -5.2344   -1.0274 H   0  0  0  0  0  0  0  0  0  0  0  0
  -10.6622   -5.6885    1.5194 H   0  0  0  0  0  0  0  0  0  0  0  0
  -10.7534   -6.6528   -0.0134 H   0  0  0  0  0  0  0  0  0  0  0  0
  -11.2267   -4.9085    0.0039 H   0  0  0  0  0  0  0  0  0  0  0  0
   -6.3209   -7.4209    0.2505 H   0  0  0  0  0  0  0  0  0  0  0  0
   -6.6853   -4.7420   -1.1298 H   0  0  0  0  0  0  0  0  0  0  0  0
   -6.6117   -5.6996   -3.3296 H   0  0  0  0  0  0  0  0  0  0  0  0
   -6.1931   -7.3389   -2.7059 H   0  0  0  0  0  0  0  0  0  0  0  0
   -7.8545   -6.6606   -2.4583 H   0  0  0  0  0  0  0  0  0  0  0  0
   -3.4616   -7.1135   -0.3036 H   0  0  0  0  0  0  0  0  0  0  0  0
   -2.7559   -6.0539    1.5772 H   0  0  0  0  0  0  0  0  0  0  0  0
   -5.9012   -3.9421    1.5428 H   0  0  0  0  0  0  0  0  0  0  0  0
   -6.5726   -4.8217    2.9578 H   0  0  0  0  0  0  0  0  0  0  0  0
   -2.3688   -4.1072    0.1197 H   0  0  0  0  0  0  0  0  0  0  0  0
   -4.0360   -3.5418    0.3330 H   0  0  0  0  0  0  0  0  0  0  0  0
   -1.1715   -4.9575    2.7699 H   0  0  0  0  0  0  0  0  0  0  0  0
   -0.7588   -3.4683    3.6399 H   0  0  0  0  0  0  0  0  0  0  0  0
  1  2  1  0
  2  3  2  0
  2  4  1  0
  4  5  1  0
  5  6  1  0
  6  7  1  0
  7  8  1  0
  8  9  1  0
  9 10  1  0
 10 11  2  0
 11 12  1  0
 12 13  2  0
 13 14  1  0
 13 15  1  0
 15 16  1  0
 16 17  1  0
 17 18  1  0
 18 19  1  0
 19 20  1  0
 20 21  2  0
 20 22  1  0
 22 23  1  0
 22 24  1  0
 24 25  1  0
 25 26  2  0
 25 27  1  0
 27 28  1  0
 27 29  1  0
 29 30  1  0
 30 31  2  0
 30 32  1  0
 32 33  1  0
 32 34  1  0
 34 35  1  0
 35 36  2  0
 35 37  1  0
 37 38  1  0
 37 39  1  0
 39 40  1  0
 40 41  2  0
 40 42  1  0
 42 43  1  0
 42 44  1  0
 44 45  1  0
 45 46  2  0
 45 47  1  0
 47 48  1  0
 47 49  1  0
 49 50  1  0
 50 51  2  0
 50 52  1  0
 52 53  1  0
 52 54  1  0
 54 55  1  0
 55 56  2  0
 18 57  1  0
 57 58  2  0
 57 59  1  0
 59 60  1  0
 60 61  1  0
 60 62  1  0
 62 63  2  0
 62 64  1  0
 64 65  1  0
 65 66  1  0
 65 67  1  0
 67 68  2  0
 67 69  1  0
 69 70  1  0
 70 71  1  0
 70 72  1  0
 72 73  2  0
 72 74  1  0
 74 75  1  0
 75 76  1  0
 75 77  1  0
 77 78  2  0
 77 79  1  0
 79 80  1  0
 80 81  1  0
 80 82  1  0
 82 83  2  0
 82 84  1  0
 84 85  1  0
 85 86  1  0
 85 87  1  0
 87 88  2  0
 87 89  1  0
 89 90  1  0
 90 91  1  0
 90 92  1  0
 92 93  2  0
 92 94  1  0
 94 95  1  0
 95 96  1  0
 95 97  1  0
 97 98  2  0
 97 99  1  0
 99100  1  0
100101  1  0
101102  1  0
101103  2  0
100104  1  0
104105  1  0
105106  1  0
 55  5  1  0
 14  9  2  0
106 11  1  0
  1107  1  0
  1108  1  0
  1109  1  0
  4110  1  0
  5111  1  6
  6112  1  0
  6113  1  0
  8114  1  0
  8115  1  0
 10116  1  0
 12117  1  0
 14118  1  0
 15119  1  0
 15120  1  0
 17121  1  0
 17122  1  0
 18123  1  6
 19124  1  0
 22125  1  1
 23126  1  0
 23127  1  0
 23128  1  0
 24129  1  0
 27130  1  1
 28131  1  0
 28132  1  0
 28133  1  0
 29134  1  0
 32135  1  6
 33136  1  0
 33137  1  0
 33138  1  0
 34139  1  0
 37140  1  6
 38141  1  0
 38142  1  0
 38143  1  0
 39144  1  0
 42145  1  6
 43146  1  0
 43147  1  0
 43148  1  0
 44149  1  0
 47150  1  6
 48151  1  0
 48152  1  0
 48153  1  0
 49154  1  0
 52155  1  1
 53156  1  0
 53157  1  0
 53158  1  0
 54159  1  0
 59160  1  0
 60161  1  6
 61162  1  0
 61163  1  0
 61164  1  0
 64165  1  0
 65166  1  1
 66167  1  0
 66168  1  0
 66169  1  0
 69170  1  0
 70171  1  6
 71172  1  0
 71173  1  0
 71174  1  0
 74175  1  0
 75176  1  6
 76177  1  0
 76178  1  0
 76179  1  0
 79180  1  0
 80181  1  1
 81182  1  0
 81183  1  0
 81184  1  0
 84185  1  0
 85186  1  6
 86187  1  0
 86188  1  0
 86189  1  0
 89190  1  0
 90191  1  6
 91192  1  0
 91193  1  0
 91194  1  0
 94195  1  0
 95196  1  1
 96197  1  0
 96198  1  0
 96199  1  0
 99200  1  0
100201  1  1
102202  1  0
102203  1  0
104204  1  0
104205  1  0
106206  1  0
106207  1  0
M  END
