
     RDKit          3D

197199  0  0  0  0  0  0  0  0999 V2000
    3.2491   10.2156    1.0246 C   0  0  0  0  0  0  0  0  0  0  0  0
    4.1400    9.0315    0.8061 C   0  0  0  0  0  0  0  0  0  0  0  0
    5.1033    9.1313    0.0006 O   0  0  0  0  0  0  0  0  0  0  0  0
    3.8902    7.7912    1.4932 N   0  0  0  0  0  0  0  0  0  0  0  0
    4.6717    6.5775    1.2392 C   0  0  1  0  0  0  0  0  0  0  0  0
    4.2671    5.4281    2.1867 C   0  0  0  0  0  0  0  0  0  0  0  0
    2.4644    5.0702    2.1322 S   0  0  0  0  0  0  0  0  0  0  0  0
    2.5397    3.5773    1.0840 C   0  0  0  0  0  0  0  0  0  0  0  0
    1.1527    3.2057    0.6432 C   0  0  0  0  0  0  0  0  0  0  0  0
    0.4670    4.0375   -0.2524 C   0  0  0  0  0  0  0  0  0  0  0  0
   -0.8378    3.7356   -0.6692 C   0  0  0  0  0  0  0  0  0  0  0  0
   -1.4359    2.5475   -0.2130 C   0  0  0  0  0  0  0  0  0  0  0  0
   -0.7919    1.7264    0.7294 C   0  0  0  0  0  0  0  0  0  0  0  0
    0.5163    2.0550    1.1483 C   0  0  0  0  0  0  0  0  0  0  0  0
   -1.5498    0.5941    1.3564 C   0  0  0  0  0  0  0  0  0  0  0  0
   -0.5750   -0.9508    1.4385 S   0  0  0  0  0  0  0  0  0  0  0  0
   -0.7704   -1.3782   -0.3329 C   0  0  0  0  0  0  0  0  0  0  0  0
    0.2708   -2.4324   -0.7378 C   0  0  2  0  0  0  0  0  0  0  0  0
    1.6301   -1.8981   -0.5621 N   0  0  0  0  0  0  0  0  0  0  0  0
    2.8412   -2.6376   -0.7903 C   0  0  0  0  0  0  0  0  0  0  0  0
    3.9071   -1.9863   -0.9800 O   0  0  0  0  0  0  0  0  0  0  0  0
    2.8814   -4.1596   -0.8493 C   0  0  1  0  0  0  0  0  0  0  0  0
    3.5550   -4.6426   -2.1365 C   0  0  0  0  0  0  0  0  0  0  0  0
    3.5400   -4.7271    0.3344 N   0  0  0  0  0  0  0  0  0  0  0  0
    4.9523   -4.6230    0.6117 C   0  0  0  0  0  0  0  0  0  0  0  0
    5.5674   -3.5714    0.3098 O   0  0  0  0  0  0  0  0  0  0  0  0
    5.7480   -5.7768    1.1742 C   0  0  1  0  0  0  0  0  0  0  0  0
    4.9112   -6.8138    1.9317 C   0  0  0  0  0  0  0  0  0  0  0  0
    6.4546   -6.4446    0.0718 N   0  0  0  0  0  0  0  0  0  0  0  0
    7.8834   -6.5833   -0.0245 C   0  0  0  0  0  0  0  0  0  0  0  0
    8.4016   -6.7054   -1.1647 O   0  0  0  0  0  0  0  0  0  0  0  0
    8.7891   -6.6537    1.1884 C   0  0  1  0  0  0  0  0  0  0  0  0
    9.3730   -8.0698    1.3021 C   0  0  0  0  0  0  0  0  0  0  0  0
    9.8818   -5.6721    1.0990 N   0  0  0  0  0  0  0  0  0  0  0  0
    9.7025   -4.2946    0.7296 C   0  0  0  0  0  0  0  0  0  0  0  0
    8.5527   -3.8621    0.4487 O   0  0  0  0  0  0  0  0  0  0  0  0
   10.8845   -3.3446    0.6878 C   0  0  1  0  0  0  0  0  0  0  0  0
   12.0907   -3.9652   -0.0326 C   0  0  0  0  0  0  0  0  0  0  0  0
   10.5203   -2.0961    0.0100 N   0  0  0  0  0  0  0  0  0  0  0  0
   10.2010   -0.9099    0.7454 C   0  0  0  0  0  0  0  0  0  0  0  0
    9.0949   -0.8289    1.3484 O   0  0  0  0  0  0  0  0  0  0  0  0
   11.1259    0.2735    0.7159 C   0  0  1  0  0  0  0  0  0  0  0  0
   12.5215   -0.1033    1.2287 C   0  0  0  0  0  0  0  0  0  0  0  0
   11.2214    0.7948   -0.6560 N   0  0  0  0  0  0  0  0  0  0  0  0
   10.6962    2.0543   -1.1281 C   0  0  0  0  0  0  0  0  0  0  0  0
   10.9704    2.4100   -2.3037 O   0  0  0  0  0  0  0  0  0  0  0  0
    9.8586    2.9638   -0.2644 C   0  0  1  0  0  0  0  0  0  0  0  0
   10.7626    3.8697    0.5767 C   0  0  0  0  0  0  0  0  0  0  0  0
    8.9918    3.8099   -1.0937 N   0  0  0  0  0  0  0  0  0  0  0  0
    7.5780    3.8981   -0.8437 C   0  0  0  0  0  0  0  0  0  0  0  0
    6.8808    2.8466   -0.8787 O   0  0  0  0  0  0  0  0  0  0  0  0
    6.9470    5.1950   -0.3799 C   0  0  1  0  0  0  0  0  0  0  0  0
    7.6942    6.4386   -0.8884 C   0  0  0  0  0  0  0  0  0  0  0  0
    5.5448    5.2701   -0.8110 N   0  0  0  0  0  0  0  0  0  0  0  0
    4.5518    6.1212   -0.1997 C   0  0  0  0  0  0  0  0  0  0  0  0
    3.5171    6.4112   -0.8602 O   0  0  0  0  0  0  0  0  0  0  0  0
    0.0572   -2.8285   -2.1756 C   0  0  0  0  0  0  0  0  0  0  0  0
    0.5134   -2.0938   -3.0926 O   0  0  0  0  0  0  0  0  0  0  0  0
   -0.5975   -4.0554   -2.5324 N   0  0  0  0  0  0  0  0  0  0  0  0
   -1.8861   -4.4442   -1.9461 C   0  0  2  0  0  0  0  0  0  0  0  0
   -2.0242   -5.9741   -1.9879 C   0  0  0  0  0  0  0  0  0  0  0  0
   -2.9996   -3.7969   -2.7326 C   0  0  0  0  0  0  0  0  0  0  0  0
   -3.0053   -3.8639   -3.9894 O   0  0  0  0  0  0  0  0  0  0  0  0
   -4.0437   -3.0858   -2.0620 N   0  0  0  0  0  0  0  0  0  0  0  0
   -5.1553   -3.8162   -1.4485 C   0  0  2  0  0  0  0  0  0  0  0  0
   -6.1356   -4.2609   -2.5463 C   0  0  0  0  0  0  0  0  0  0  0  0
   -5.8227   -2.9603   -0.4001 C   0  0  0  0  0  0  0  0  0  0  0  0
   -5.1083   -2.3699    0.4562 O   0  0  0  0  0  0  0  0  0  0  0  0
   -7.2499   -2.8180   -0.3370 N   0  0  0  0  0  0  0  0  0  0  0  0
   -8.1202   -3.6899    0.4635 C   0  0  2  0  0  0  0  0  0  0  0  0
   -7.3847   -4.9220    1.0281 C   0  0  0  0  0  0  0  0  0  0  0  0
   -9.3163   -4.0939   -0.3787 C   0  0  0  0  0  0  0  0  0  0  0  0
   -9.2632   -5.1564   -1.0576 O   0  0  0  0  0  0  0  0  0  0  0  0
  -10.4743   -3.2488   -0.5330 N   0  0  0  0  0  0  0  0  0  0  0  0
  -11.0220   -2.4174    0.5496 C   0  0  2  0  0  0  0  0  0  0  0  0
  -11.4771   -3.3093    1.7200 C   0  0  0  0  0  0  0  0  0  0  0  0
  -12.2040   -1.6058    0.0521 C   0  0  0  0  0  0  0  0  0  0  0  0
  -13.0635   -2.1599   -0.6915 O   0  0  0  0  0  0  0  0  0  0  0  0
  -12.3812   -0.2193    0.3907 N   0  0  0  0  0  0  0  0  0  0  0  0
  -12.1372    0.3110    1.7399 C   0  0  2  0  0  0  0  0  0  0  0  0
  -13.3268   -0.0581    2.6454 C   0  0  0  0  0  0  0  0  0  0  0  0
  -11.9328    1.8151    1.6532 C   0  0  0  0  0  0  0  0  0  0  0  0
  -12.6558    2.5947    2.3478 O   0  0  0  0  0  0  0  0  0  0  0  0
  -10.9481    2.3894    0.7831 N   0  0  0  0  0  0  0  0  0  0  0  0
   -9.6461    1.7544    0.5444 C   0  0  2  0  0  0  0  0  0  0  0  0
   -8.7716    1.8214    1.8001 C   0  0  0  0  0  0  0  0  0  0  0  0
   -8.9749    2.3252   -0.6945 C   0  0  0  0  0  0  0  0  0  0  0  0
   -8.8292    1.5516   -1.6831 O   0  0  0  0  0  0  0  0  0  0  0  0
   -8.5684    3.6986   -0.8504 N   0  0  0  0  0  0  0  0  0  0  0  0
   -8.5243    4.7316    0.1893 C   0  0  2  0  0  0  0  0  0  0  0  0
   -8.5254    6.1385   -0.4487 C   0  0  0  0  0  0  0  0  0  0  0  0
   -7.3182    4.5989    1.0951 C   0  0  0  0  0  0  0  0  0  0  0  0
   -7.3825    5.1053    2.2482 O   0  0  0  0  0  0  0  0  0  0  0  0
   -6.1357    3.8722    0.7402 N   0  0  0  0  0  0  0  0  0  0  0  0
   -5.5315    3.8383   -0.5933 C   0  0  2  0  0  0  0  0  0  0  0  0
   -5.4472    2.4092   -1.0601 C   0  0  0  0  0  0  0  0  0  0  0  0
   -5.9123    2.0362   -2.3523 N   0  0  0  0  0  0  0  0  0  0  0  0
   -4.9316    1.5305   -0.3143 O   0  0  0  0  0  0  0  0  0  0  0  0
   -4.1368    4.4993   -0.5423 C   0  0  0  0  0  0  0  0  0  0  0  0
   -3.2254    4.2940   -2.1296 S   0  0  0  0  0  0  0  0  0  0  0  0
   -1.5770    4.7726   -1.4905 C   0  0  0  0  0  0  0  0  0  0  0  0
    2.7531   10.4936    0.0646 H   0  0  0  0  0  0  0  0  0  0  0  0
    3.8605   11.0765    1.3643 H   0  0  0  0  0  0  0  0  0  0  0  0
    2.4645    9.9974    1.7761 H   0  0  0  0  0  0  0  0  0  0  0  0
    3.0956    7.7662    2.1807 H   0  0  0  0  0  0  0  0  0  0  0  0
    5.7244    6.8308    1.4488 H   0  0  0  0  0  0  0  0  0  0  0  0
    4.8592    4.5145    1.9610 H   0  0  0  0  0  0  0  0  0  0  0  0
    4.5208    5.7237    3.2263 H   0  0  0  0  0  0  0  0  0  0  0  0
    3.0208    2.7582    1.6534 H   0  0  0  0  0  0  0  0  0  0  0  0
    3.1441    3.7639    0.1794 H   0  0  0  0  0  0  0  0  0  0  0  0
    0.9338    4.9616   -0.5797 H   0  0  0  0  0  0  0  0  0  0  0  0
   -2.4223    2.2721   -0.5389 H   0  0  0  0  0  0  0  0  0  0  0  0
    1.0093    1.4491    1.8800 H   0  0  0  0  0  0  0  0  0  0  0  0
   -2.4974    0.3804    0.8013 H   0  0  0  0  0  0  0  0  0  0  0  0
   -1.8341    0.8833    2.3920 H   0  0  0  0  0  0  0  0  0  0  0  0
   -0.6429   -0.4729   -0.9686 H   0  0  0  0  0  0  0  0  0  0  0  0
   -1.7939   -1.7700   -0.4891 H   0  0  0  0  0  0  0  0  0  0  0  0
    0.1381   -3.3168   -0.0755 H   0  0  0  0  0  0  0  0  0  0  0  0
    1.7385   -0.8706   -0.4315 H   0  0  0  0  0  0  0  0  0  0  0  0
    1.8466   -4.5490   -0.8766 H   0  0  0  0  0  0  0  0  0  0  0  0
    3.0243   -4.2379   -3.0201 H   0  0  0  0  0  0  0  0  0  0  0  0
    4.6166   -4.3091   -2.1839 H   0  0  0  0  0  0  0  0  0  0  0  0
    3.5268   -5.7489   -2.1841 H   0  0  0  0  0  0  0  0  0  0  0  0
    2.9501   -5.3302    0.9556 H   0  0  0  0  0  0  0  0  0  0  0  0
    6.4577   -5.3333    1.9073 H   0  0  0  0  0  0  0  0  0  0  0  0
    5.5787   -7.5716    2.3761 H   0  0  0  0  0  0  0  0  0  0  0  0
    4.3293   -6.3299    2.7495 H   0  0  0  0  0  0  0  0  0  0  0  0
    4.2077   -7.3321    1.2337 H   0  0  0  0  0  0  0  0  0  0  0  0
    5.8850   -6.7256   -0.7613 H   0  0  0  0  0  0  0  0  0  0  0  0
    8.2310   -6.4717    2.1271 H   0  0  0  0  0  0  0  0  0  0  0  0
    8.5495   -8.8110    1.3880 H   0  0  0  0  0  0  0  0  0  0  0  0
    9.9946   -8.3121    0.4113 H   0  0  0  0  0  0  0  0  0  0  0  0
   10.0031   -8.1502    2.2128 H   0  0  0  0  0  0  0  0  0  0  0  0
   10.7804   -5.9126    1.5772 H   0  0  0  0  0  0  0  0  0  0  0  0
   11.1774   -3.1249    1.7349 H   0  0  0  0  0  0  0  0  0  0  0  0
   12.8779   -3.2004   -0.1788 H   0  0  0  0  0  0  0  0  0  0  0  0
   11.7828   -4.3649   -1.0263 H   0  0  0  0  0  0  0  0  0  0  0  0
   12.5250   -4.7843    0.5782 H   0  0  0  0  0  0  0  0  0  0  0  0
   10.3572   -2.1027   -1.0299 H   0  0  0  0  0  0  0  0  0  0  0  0
   10.7286    1.0444    1.3990 H   0  0  0  0  0  0  0  0  0  0  0  0
   12.4441   -0.5317    2.2486 H   0  0  0  0  0  0  0  0  0  0  0  0
   13.1739    0.7917    1.2657 H   0  0  0  0  0  0  0  0  0  0  0  0
   12.9911   -0.8495    0.5597 H   0  0  0  0  0  0  0  0  0  0  0  0
   11.7229    0.1961   -1.3555 H   0  0  0  0  0  0  0  0  0  0  0  0
    9.2261    2.3535    0.4221 H   0  0  0  0  0  0  0  0  0  0  0  0
   10.1445    4.5693    1.1836 H   0  0  0  0  0  0  0  0  0  0  0  0
   11.3917    3.2635    1.2726 H   0  0  0  0  0  0  0  0  0  0  0  0
   11.4426    4.4653   -0.0768 H   0  0  0  0  0  0  0  0  0  0  0  0
    9.4352    4.4763   -1.7699 H   0  0  0  0  0  0  0  0  0  0  0  0
    7.0066    5.1724    0.7275 H   0  0  0  0  0  0  0  0  0  0  0  0
    8.7848    6.3784   -0.6791 H   0  0  0  0  0  0  0  0  0  0  0  0
    7.3286    7.3369   -0.3696 H   0  0  0  0  0  0  0  0  0  0  0  0
    7.5339    6.5613   -1.9744 H   0  0  0  0  0  0  0  0  0  0  0  0
    5.3109    4.9073   -1.7690 H   0  0  0  0  0  0  0  0  0  0  0  0
   -0.3598   -4.4493   -3.4721 H   0  0  0  0  0  0  0  0  0  0  0  0
   -1.9495   -4.1295   -0.8797 H   0  0  0  0  0  0  0  0  0  0  0  0
   -1.2311   -6.4295   -1.3623 H   0  0  0  0  0  0  0  0  0  0  0  0
   -1.9250   -6.3511   -3.0272 H   0  0  0  0  0  0  0  0  0  0  0  0
   -3.0061   -6.2869   -1.5829 H   0  0  0  0  0  0  0  0  0  0  0  0
   -4.2510   -2.1256   -2.4102 H   0  0  0  0  0  0  0  0  0  0  0  0
   -4.7650   -4.7257   -0.9367 H   0  0  0  0  0  0  0  0  0  0  0  0
   -5.6056   -4.8631   -3.3183 H   0  0  0  0  0  0  0  0  0  0  0  0
   -6.9301   -4.9074   -2.1237 H   0  0  0  0  0  0  0  0  0  0  0  0
   -6.5883   -3.3841   -3.0396 H   0  0  0  0  0  0  0  0  0  0  0  0
   -7.6466   -1.9139   -0.6869 H   0  0  0  0  0  0  0  0  0  0  0  0
   -8.4699   -3.1085    1.3359 H   0  0  0  0  0  0  0  0  0  0  0  0
   -6.5384   -4.5967    1.6726 H   0  0  0  0  0  0  0  0  0  0  0  0
   -6.9844   -5.5603    0.2204 H   0  0  0  0  0  0  0  0  0  0  0  0
   -8.0739   -5.5240    1.6559 H   0  0  0  0  0  0  0  0  0  0  0  0
  -11.0269   -3.3778   -1.4046 H   0  0  0  0  0  0  0  0  0  0  0  0
  -10.2334   -1.7238    0.8985 H   0  0  0  0  0  0  0  0  0  0  0  0
  -12.3294   -3.9549    1.4083 H   0  0  0  0  0  0  0  0  0  0  0  0
  -11.7779   -2.6855    2.5851 H   0  0  0  0  0  0  0  0  0  0  0  0
  -10.6446   -3.9604    2.0581 H   0  0  0  0  0  0  0  0  0  0  0  0
  -13.0014    0.3461   -0.2467 H   0  0  0  0  0  0  0  0  0  0  0  0
  -11.2151   -0.1309    2.1745 H   0  0  0  0  0  0  0  0  0  0  0  0
  -13.5220   -1.1513    2.6062 H   0  0  0  0  0  0  0  0  0  0  0  0
  -14.2507    0.4658    2.3160 H   0  0  0  0  0  0  0  0  0  0  0  0
  -13.0926    0.2246    3.6976 H   0  0  0  0  0  0  0  0  0  0  0  0
  -11.1631    3.3226    0.3663 H   0  0  0  0  0  0  0  0  0  0  0  0
   -9.8183    0.6780    0.3273 H   0  0  0  0  0  0  0  0  0  0  0  0
   -9.0720    1.0202    2.5090 H   0  0  0  0  0  0  0  0  0  0  0  0
   -7.7007    1.6643    1.5452 H   0  0  0  0  0  0  0  0  0  0  0  0
   -8.8970    2.7877    2.3296 H   0  0  0  0  0  0  0  0  0  0  0  0
   -8.3462    3.9882   -1.8280 H   0  0  0  0  0  0  0  0  0  0  0  0
   -9.4319    4.6628    0.8103 H   0  0  0  0  0  0  0  0  0  0  0  0
   -8.5169    6.9186    0.3472 H   0  0  0  0  0  0  0  0  0  0  0  0
   -7.6235    6.2688   -1.0889 H   0  0  0  0  0  0  0  0  0  0  0  0
   -9.4339    6.2632   -1.0742 H   0  0  0  0  0  0  0  0  0  0  0  0
   -5.5918    3.4533    1.5234 H   0  0  0  0  0  0  0  0  0  0  0  0
   -6.1227    4.4308   -1.3164 H   0  0  0  0  0  0  0  0  0  0  0  0
   -5.8491    1.0471   -2.6846 H   0  0  0  0  0  0  0  0  0  0  0  0
   -6.3738    2.7381   -2.9776 H   0  0  0  0  0  0  0  0  0  0  0  0
   -4.2563    5.5879   -0.3373 H   0  0  0  0  0  0  0  0  0  0  0  0
   -3.5618    4.0709    0.3045 H   0  0  0  0  0  0  0  0  0  0  0  0
   -0.9536    5.0422   -2.3673 H   0  0  0  0  0  0  0  0  0  0  0  0
   -1.7025    5.6957   -0.8810 H   0  0  0  0  0  0  0  0  0  0  0  0
  1  2  1  0
  2  3  2  0
  2  4  1  0
  4  5  1  0
  5  6  1  0
  6  7  1  0
  7  8  1  0
  8  9  1  0
  9 10  2  0
 10 11  1  0
 11 12  2  0
 12 13  1  0
 13 14  2  0
 13 15  1  0
 15 16  1  0
 16 17  1  0
 17 18  1  0
 18 19  1  0
 19 20  1  0
 20 21  2  0
 20 22  1  0
 22 23  1  0
 22 24  1  0
 24 25  1  0
 25 26  2  0
 25 27  1  0
 27 28  1  0
 27 29  1  0
 29 30  1  0
 30 31  2  0
 30 32  1  0
 32 33  1  0
 32 34  1  0
 34 35  1  0
 35 36  2  0
 35 37  1  0
 37 38  1  0
 37 39  1  0
 39 40  1  0
 40 41  2  0
 40 42  1  0
 42 43  1  0
 42 44  1  0
 44 45  1  0
 45 46  2  0
 45 47  1  0
 47 48  1  0
 47 49  1  0
 49 50  1  0
 50 51  2  0
 50 52  1  0
 52 53  1  0
 52 54  1  0
 54 55  1  0
 55 56  2  0
 18 57  1  0
 57 58  2  0
 57 59  1  0
 59 60  1  0
 60 61  1  0
 60 62  1  0
 62 63  2  0
 62 64  1  0
 64 65  1  0
 65 66  1  0
 65 67  1  0
 67 68  2  0
 67 69  1  0
 69 70  1  0
 70 71  1  0
 70 72  1  0
 72 73  2  0
 72 74  1  0
 74 75  1  0
 75 76  1  0
 75 77  1  0
 77 78  2  0
 77 79  1  0
 79 80  1  0
 80 81  1  0
 80 82  1  0
 82 83  2  0
 82 84  1  0
 84 85  1  0
 85 86  1  0
 85 87  1  0
 87 88  2  0
 87 89  1  0
 89 90  1  0
 90 91  1  0
 90 92  1  0
 92 93  2  0
 92 94  1  0
 94 95  1  0
 95 96  1  0
 96 97  1  0
 96 98  2  0
 95 99  1  0
 99100  1  0
100101  1  0
 55  5  1  0
 14  9  1  0
101 11  1  0
  1102  1  0
  1103  1  0
  1104  1  0
  4105  1  0
  5106  1  1
  6107  1  0
  6108  1  0
  8109  1  0
  8110  1  0
 10111  1  0
 12112  1  0
 14113  1  0
 15114  1  0
 15115  1  0
 17116  1  0
 17117  1  0
 18118  1  1
 19119  1  0
 22120  1  6
 23121  1  0
 23122  1  0
 23123  1  0
 24124  1  0
 27125  1  1
 28126  1  0
 28127  1  0
 28128  1  0
 29129  1  0
 32130  1  1
 33131  1  0
 33132  1  0
 33133  1  0
 34134  1  0
 37135  1  1
 38136  1  0
 38137  1  0
 38138  1  0
 39139  1  0
 42140  1  1
 43141  1  0
 43142  1  0
 43143  1  0
 44144  1  0
 47145  1  1
 48146  1  0
 48147  1  0
 48148  1  0
 49149  1  0
 52150  1  1
 53151  1  0
 53152  1  0
 53153  1  0
 54154  1  0
 59155  1  0
 60156  1  1
 61157  1  0
 61158  1  0
 61159  1  0
 64160  1  0
 65161  1  1
 66162  1  0
 66163  1  0
 66164  1  0
 69165  1  0
 70166  1  1
 71167  1  0
 71168  1  0
 71169  1  0
 74170  1  0
 75171  1  1
 76172  1  0
 76173  1  0
 76174  1  0
 79175  1  0
 80176  1  1
 81177  1  0
 81178  1  0
 81179  1  0
 84180  1  0
 85181  1  6
 86182  1  0
 86183  1  0
 86184  1  0
 89185  1  0
 90186  1  1
 91187  1  0
 91188  1  0
 91189  1  0
 94190  1  0
 95191  1  6
 97192  1  0
 97193  1  0
 99194  1  0
 99195  1  0
101196  1  0
101197  1  0
M  END
