
     RDKit          3D

167169  0  0  0  0  0  0  0  0999 V2000
    0.9048    9.9886   -0.8602 C   0  0  0  0  0  0  0  0  0  0  0  0
    1.3575    8.9247    0.0866 C   0  0  0  0  0  0  0  0  0  0  0  0
    1.3389    9.1612    1.3265 O   0  0  0  0  0  0  0  0  0  0  0  0
    1.8181    7.6610   -0.4051 N   0  0  0  0  0  0  0  0  0  0  0  0
    2.1839    6.5510    0.4852 C   0  0  1  0  0  0  0  0  0  0  0  0
    0.9408    5.9628    1.1852 C   0  0  0  0  0  0  0  0  0  0  0  0
   -0.4119    5.6091   -0.0018 S   0  0  0  0  0  0  0  0  0  0  0  0
   -1.3506    4.5061    1.1090 C   0  0  0  0  0  0  0  0  0  0  0  0
   -2.4217    3.8183    0.3150 C   0  0  0  0  0  0  0  0  0  0  0  0
   -3.6410    4.4615    0.0660 C   0  0  0  0  0  0  0  0  0  0  0  0
   -4.6333    3.8331   -0.7015 C   0  0  0  0  0  0  0  0  0  0  0  0
   -4.4060    2.5429   -1.2004 C   0  0  0  0  0  0  0  0  0  0  0  0
   -3.1826    1.8989   -0.9764 C   0  0  0  0  0  0  0  0  0  0  0  0
   -2.1989    2.5375   -0.2104 C   0  0  0  0  0  0  0  0  0  0  0  0
   -2.9604    0.5081   -1.4869 C   0  0  0  0  0  0  0  0  0  0  0  0
   -3.4655   -0.6758   -0.1995 S   0  0  0  0  0  0  0  0  0  0  0  0
   -3.4568   -2.1346   -1.2984 C   0  0  0  0  0  0  0  0  0  0  0  0
   -3.8584   -3.4149   -0.5452 C   0  0  1  0  0  0  0  0  0  0  0  0
   -2.8265   -3.7483    0.4414 N   0  0  0  0  0  0  0  0  0  0  0  0
   -2.2495   -5.0566    0.5390 C   0  0  0  0  0  0  0  0  0  0  0  0
   -2.4702   -5.7421    1.5720 O   0  0  0  0  0  0  0  0  0  0  0  0
   -1.2383   -5.5598   -0.4628 C   0  0  1  0  0  0  0  0  0  0  0  0
   -1.7659   -5.6028   -1.8982 C   0  0  0  0  0  0  0  0  0  0  0  0
   -0.0324   -4.7259   -0.4121 N   0  0  0  0  0  0  0  0  0  0  0  0
    1.2991   -5.2181   -0.1856 C   0  0  0  0  0  0  0  0  0  0  0  0
    2.2742   -4.4764   -0.4969 O   0  0  0  0  0  0  0  0  0  0  0  0
    1.5750   -6.5789    0.4113 C   0  0  1  0  0  0  0  0  0  0  0  0
    1.6067   -7.6480   -0.6943 C   0  0  0  0  0  0  0  0  0  0  0  0
    2.8216   -6.5253    1.1892 N   0  0  0  0  0  0  0  0  0  0  0  0
    3.9892   -7.3134    0.9133 C   0  0  0  0  0  0  0  0  0  0  0  0
    3.9475   -8.5678    1.0517 O   0  0  0  0  0  0  0  0  0  0  0  0
    5.2499   -6.6653    0.4034 C   0  0  1  0  0  0  0  0  0  0  0  0
    5.2220   -6.6135   -1.1298 C   0  0  0  0  0  0  0  0  0  0  0  0
    5.4333   -5.3371    1.0017 N   0  0  0  0  0  0  0  0  0  0  0  0
    6.1810   -4.2960    0.3637 C   0  0  0  0  0  0  0  0  0  0  0  0
    5.5752   -3.4665   -0.3691 O   0  0  0  0  0  0  0  0  0  0  0  0
    7.6642   -4.1236    0.6017 C   0  0  1  0  0  0  0  0  0  0  0  0
    8.2989   -5.3663    1.2459 C   0  0  0  0  0  0  0  0  0  0  0  0
    8.3436   -3.8552   -0.6685 N   0  0  0  0  0  0  0  0  0  0  0  0
    9.5447   -3.0718   -0.8062 C   0  0  0  0  0  0  0  0  0  0  0  0
   10.3185   -3.3249   -1.7666 O   0  0  0  0  0  0  0  0  0  0  0  0
    9.9088   -1.9646    0.1613 C   0  0  1  0  0  0  0  0  0  0  0  0
   10.6468   -2.5176    1.3868 C   0  0  0  0  0  0  0  0  0  0  0  0
   10.7760   -0.9831   -0.5011 N   0  0  0  0  0  0  0  0  0  0  0  0
   10.5624    0.4376   -0.4951 C   0  0  0  0  0  0  0  0  0  0  0  0
   11.5653    1.1953   -0.6249 O   0  0  0  0  0  0  0  0  0  0  0  0
    9.1947    1.0582   -0.3408 C   0  0  1  0  0  0  0  0  0  0  0  0
    8.9410    1.3843    1.1394 C   0  0  0  0  0  0  0  0  0  0  0  0
    9.1067    2.2406   -1.2092 N   0  0  0  0  0  0  0  0  0  0  0  0
    8.2714    3.3741   -0.9456 C   0  0  0  0  0  0  0  0  0  0  0  0
    7.1485    3.4514   -1.5179 O   0  0  0  0  0  0  0  0  0  0  0  0
    8.7856    4.5263   -0.1118 C   0  0  1  0  0  0  0  0  0  0  0  0
    9.9936    5.1718   -0.8005 C   0  0  0  0  0  0  0  0  0  0  0  0
    7.7340    5.5212    0.1151 N   0  0  0  0  0  0  0  0  0  0  0  0
    6.5528    5.2185    0.8749 C   0  0  0  0  0  0  0  0  0  0  0  0
    6.5464    4.2218    1.6454 O   0  0  0  0  0  0  0  0  0  0  0  0
    5.2654    6.0002    0.6976 C   0  0  1  0  0  0  0  0  0  0  0  0
    5.4909    7.3773    0.0566 C   0  0  0  0  0  0  0  0  0  0  0  0
    4.3299    5.2085   -0.1168 N   0  0  0  0  0  0  0  0  0  0  0  0
    2.9289    5.4814   -0.2927 C   0  0  0  0  0  0  0  0  0  0  0  0
    2.2965    4.8101   -1.1550 O   0  0  0  0  0  0  0  0  0  0  0  0
   -5.2211   -3.3405    0.1044 C   0  0  0  0  0  0  0  0  0  0  0  0
   -6.0652   -2.5017   -0.3064 O   0  0  0  0  0  0  0  0  0  0  0  0
   -5.5812   -4.2778    1.1322 N   0  0  0  0  0  0  0  0  0  0  0  0
   -6.7599   -5.1481    1.0472 C   0  0  2  0  0  0  0  0  0  0  0  0
   -6.6971   -6.0432   -0.1979 C   0  0  0  0  0  0  0  0  0  0  0  0
   -8.0414   -4.3531    1.1515 C   0  0  0  0  0  0  0  0  0  0  0  0
   -8.5955   -4.2467    2.2783 O   0  0  0  0  0  0  0  0  0  0  0  0
   -8.6082   -3.6886    0.0077 N   0  0  0  0  0  0  0  0  0  0  0  0
   -9.7024   -2.7215    0.1321 C   0  0  2  0  0  0  0  0  0  0  0  0
  -11.0416   -3.4304   -0.0626 C   0  0  0  0  0  0  0  0  0  0  0  0
   -9.5396   -1.6176   -0.8895 C   0  0  0  0  0  0  0  0  0  0  0  0
   -9.4549   -1.9234   -2.1114 O   0  0  0  0  0  0  0  0  0  0  0  0
   -9.4262   -0.2318   -0.5231 N   0  0  0  0  0  0  0  0  0  0  0  0
  -10.1750    0.3978    0.5711 C   0  0  2  0  0  0  0  0  0  0  0  0
  -11.5263    0.8957    0.0493 C   0  0  0  0  0  0  0  0  0  0  0  0
   -9.3179    1.4607    1.2174 C   0  0  0  0  0  0  0  0  0  0  0  0
   -8.2149    1.1127    1.7229 O   0  0  0  0  0  0  0  0  0  0  0  0
   -9.7438    2.8223    1.3798 N   0  0  0  0  0  0  0  0  0  0  0  0
   -9.8366    3.7743    0.2601 C   0  0  1  0  0  0  0  0  0  0  0  0
  -10.1953    5.1638    0.7338 C   0  0  0  0  0  0  0  0  0  0  0  0
  -10.9026    6.0523   -0.1332 N   0  0  0  0  0  0  0  0  0  0  0  0
   -9.8457    5.5649    1.8791 O   0  0  0  0  0  0  0  0  0  0  0  0
   -8.5395    3.8104   -0.5684 C   0  0  0  0  0  0  0  0  0  0  0  0
   -7.0785    4.2356    0.4482 S   0  0  0  0  0  0  0  0  0  0  0  0
   -5.9444    4.5207   -0.9596 C   0  0  0  0  0  0  0  0  0  0  0  0
    0.9926    9.6466   -1.9122 H   0  0  0  0  0  0  0  0  0  0  0  0
    1.5277   10.8974   -0.7257 H   0  0  0  0  0  0  0  0  0  0  0  0
   -0.1566   10.2399   -0.6546 H   0  0  0  0  0  0  0  0  0  0  0  0
    1.9275    7.5458   -1.4379 H   0  0  0  0  0  0  0  0  0  0  0  0
    2.8342    6.9496    1.2864 H   0  0  0  0  0  0  0  0  0  0  0  0
    0.5570    6.6845    1.9387 H   0  0  0  0  0  0  0  0  0  0  0  0
    1.2406    5.0419    1.7304 H   0  0  0  0  0  0  0  0  0  0  0  0
   -0.6688    3.7528    1.5611 H   0  0  0  0  0  0  0  0  0  0  0  0
   -1.8008    5.0986    1.9323 H   0  0  0  0  0  0  0  0  0  0  0  0
   -3.8184    5.4575    0.4610 H   0  0  0  0  0  0  0  0  0  0  0  0
   -5.1833    2.0474   -1.7744 H   0  0  0  0  0  0  0  0  0  0  0  0
   -1.2531    2.0353   -0.0266 H   0  0  0  0  0  0  0  0  0  0  0  0
   -1.8874    0.3539   -1.7316 H   0  0  0  0  0  0  0  0  0  0  0  0
   -3.5491    0.3466   -2.4136 H   0  0  0  0  0  0  0  0  0  0  0  0
   -2.4326   -2.2644   -1.7173 H   0  0  0  0  0  0  0  0  0  0  0  0
   -4.1563   -1.9701   -2.1527 H   0  0  0  0  0  0  0  0  0  0  0  0
   -3.9415   -4.2290   -1.2913 H   0  0  0  0  0  0  0  0  0  0  0  0
   -2.7070   -3.1127    1.2632 H   0  0  0  0  0  0  0  0  0  0  0  0
   -1.0108   -6.6081   -0.1920 H   0  0  0  0  0  0  0  0  0  0  0  0
   -1.9081   -4.5817   -2.3086 H   0  0  0  0  0  0  0  0  0  0  0  0
   -2.7241   -6.1662   -1.9399 H   0  0  0  0  0  0  0  0  0  0  0  0
   -1.0343   -6.1236   -2.5502 H   0  0  0  0  0  0  0  0  0  0  0  0
   -0.1317   -3.7270   -0.7015 H   0  0  0  0  0  0  0  0  0  0  0  0
    0.7643   -6.8317    1.1241 H   0  0  0  0  0  0  0  0  0  0  0  0
    2.4557   -7.4747   -1.3851 H   0  0  0  0  0  0  0  0  0  0  0  0
    0.6756   -7.6363   -1.2975 H   0  0  0  0  0  0  0  0  0  0  0  0
    1.6993   -8.6585   -0.2421 H   0  0  0  0  0  0  0  0  0  0  0  0
    2.8866   -5.8187    1.9583 H   0  0  0  0  0  0  0  0  0  0  0  0
    6.1058   -7.3063    0.7096 H   0  0  0  0  0  0  0  0  0  0  0  0
    4.4272   -5.9235   -1.4811 H   0  0  0  0  0  0  0  0  0  0  0  0
    6.1994   -6.2686   -1.5219 H   0  0  0  0  0  0  0  0  0  0  0  0
    5.0275   -7.6243   -1.5483 H   0  0  0  0  0  0  0  0  0  0  0  0
    5.3203   -5.2566    2.0392 H   0  0  0  0  0  0  0  0  0  0  0  0
    7.7760   -3.2701    1.2990 H   0  0  0  0  0  0  0  0  0  0  0  0
    7.8297   -5.5806    2.2287 H   0  0  0  0  0  0  0  0  0  0  0  0
    9.3838   -5.2067    1.4074 H   0  0  0  0  0  0  0  0  0  0  0  0
    8.1886   -6.2473    0.5782 H   0  0  0  0  0  0  0  0  0  0  0  0
    8.0986   -4.4723   -1.4757 H   0  0  0  0  0  0  0  0  0  0  0  0
    8.9733   -1.4860    0.5090 H   0  0  0  0  0  0  0  0  0  0  0  0
   11.4666   -3.1979    1.0745 H   0  0  0  0  0  0  0  0  0  0  0  0
   11.0756   -1.6814    1.9806 H   0  0  0  0  0  0  0  0  0  0  0  0
    9.9540   -3.0615    2.0559 H   0  0  0  0  0  0  0  0  0  0  0  0
   11.7111   -1.3148   -0.8362 H   0  0  0  0  0  0  0  0  0  0  0  0
    8.4230    0.3386   -0.6802 H   0  0  0  0  0  0  0  0  0  0  0  0
    7.9433    1.8522    1.2694 H   0  0  0  0  0  0  0  0  0  0  0  0
    9.7273    2.0620    1.5332 H   0  0  0  0  0  0  0  0  0  0  0  0
    8.9561    0.4594    1.7507 H   0  0  0  0  0  0  0  0  0  0  0  0
    9.3477    2.0905   -2.2164 H   0  0  0  0  0  0  0  0  0  0  0  0
    9.1242    4.1499    0.8721 H   0  0  0  0  0  0  0  0  0  0  0  0
   10.4042    5.9794   -0.1580 H   0  0  0  0  0  0  0  0  0  0  0  0
   10.7969    4.4246   -0.9658 H   0  0  0  0  0  0  0  0  0  0  0  0
    9.6963    5.6089   -1.7789 H   0  0  0  0  0  0  0  0  0  0  0  0
    7.9799    6.5375   -0.0132 H   0  0  0  0  0  0  0  0  0  0  0  0
    4.8407    6.1431    1.7143 H   0  0  0  0  0  0  0  0  0  0  0  0
    6.2052    7.9679    0.6683 H   0  0  0  0  0  0  0  0  0  0  0  0
    5.8842    7.2680   -0.9775 H   0  0  0  0  0  0  0  0  0  0  0  0
    4.5443    7.9524    0.0043 H   0  0  0  0  0  0  0  0  0  0  0  0
    4.7080    4.3848   -0.6433 H   0  0  0  0  0  0  0  0  0  0  0  0
   -4.8619   -4.5247    1.8460 H   0  0  0  0  0  0  0  0  0  0  0  0
   -6.7331   -5.8398    1.9185 H   0  0  0  0  0  0  0  0  0  0  0  0
   -5.8250   -6.7244   -0.1130 H   0  0  0  0  0  0  0  0  0  0  0  0
   -7.6171   -6.6624   -0.2760 H   0  0  0  0  0  0  0  0  0  0  0  0
   -6.5785   -5.4486   -1.1279 H   0  0  0  0  0  0  0  0  0  0  0  0
   -8.2157   -3.8831   -0.9370 H   0  0  0  0  0  0  0  0  0  0  0  0
   -9.6781   -2.2980    1.1543 H   0  0  0  0  0  0  0  0  0  0  0  0
  -11.1647   -4.2261    0.7015 H   0  0  0  0  0  0  0  0  0  0  0  0
  -11.1013   -3.8954   -1.0711 H   0  0  0  0  0  0  0  0  0  0  0  0
  -11.8773   -2.7064    0.0533 H   0  0  0  0  0  0  0  0  0  0  0  0
   -9.0397    0.4097   -1.2519 H   0  0  0  0  0  0  0  0  0  0  0  0
  -10.4049   -0.3309    1.3713 H   0  0  0  0  0  0  0  0  0  0  0  0
  -11.4058    1.4355   -0.9119 H   0  0  0  0  0  0  0  0  0  0  0  0
  -12.0269    1.5491    0.7959 H   0  0  0  0  0  0  0  0  0  0  0  0
  -12.1883    0.0256   -0.1422 H   0  0  0  0  0  0  0  0  0  0  0  0
   -9.7743    3.1754    2.3623 H   0  0  0  0  0  0  0  0  0  0  0  0
  -10.6541    3.4500   -0.4128 H   0  0  0  0  0  0  0  0  0  0  0  0
  -11.1867    5.7531   -1.0895 H   0  0  0  0  0  0  0  0  0  0  0  0
  -11.1153    7.0291    0.1737 H   0  0  0  0  0  0  0  0  0  0  0  0
   -8.6569    4.5469   -1.3960 H   0  0  0  0  0  0  0  0  0  0  0  0
   -8.3686    2.8194   -1.0394 H   0  0  0  0  0  0  0  0  0  0  0  0
   -6.3683    4.1605   -1.9232 H   0  0  0  0  0  0  0  0  0  0  0  0
   -5.7823    5.6137   -1.0673 H   0  0  0  0  0  0  0  0  0  0  0  0
  1  2  1  0
  2  3  2  0
  2  4  1  0
  4  5  1  0
  5  6  1  0
  6  7  1  0
  7  8  1  0
  8  9  1  0
  9 10  2  0
 10 11  1  0
 11 12  2  0
 12 13  1  0
 13 14  2  0
 13 15  1  0
 15 16  1  0
 16 17  1  0
 17 18  1  0
 18 19  1  0
 19 20  1  0
 20 21  2  0
 20 22  1  0
 22 23  1  0
 22 24  1  0
 24 25  1  0
 25 26  2  0
 25 27  1  0
 27 28  1  0
 27 29  1  0
 29 30  1  0
 30 31  2  0
 30 32  1  0
 32 33  1  0
 32 34  1  0
 34 35  1  0
 35 36  2  0
 35 37  1  0
 37 38  1  0
 37 39  1  0
 39 40  1  0
 40 41  2  0
 40 42  1  0
 42 43  1  0
 42 44  1  0
 44 45  1  0
 45 46  2  0
 45 47  1  0
 47 48  1  0
 47 49  1  0
 49 50  1  0
 50 51  2  0
 50 52  1  0
 52 53  1  0
 52 54  1  0
 54 55  1  0
 55 56  2  0
 55 57  1  0
 57 58  1  0
 57 59  1  0
 59 60  1  0
 60 61  2  0
 18 62  1  0
 62 63  2  0
 62 64  1  0
 64 65  1  0
 65 66  1  0
 65 67  1  0
 67 68  2  0
 67 69  1  0
 69 70  1  0
 70 71  1  0
 70 72  1  0
 72 73  2  0
 72 74  1  0
 74 75  1  0
 75 76  1  0
 75 77  1  0
 77 78  2  0
 77 79  1  0
 79 80  1  0
 80 81  1  0
 81 82  1  0
 81 83  2  0
 80 84  1  0
 84 85  1  0
 85 86  1  0
 60  5  1  0
 14  9  1  0
 86 11  1  0
  1 87  1  0
  1 88  1  0
  1 89  1  0
  4 90  1  0
  5 91  1  1
  6 92  1  0
  6 93  1  0
  8 94  1  0
  8 95  1  0
 10 96  1  0
 12 97  1  0
 14 98  1  0
 15 99  1  0
 15100  1  0
 17101  1  0
 17102  1  0
 18103  1  6
 19104  1  0
 22105  1  1
 23106  1  0
 23107  1  0
 23108  1  0
 24109  1  0
 27110  1  1
 28111  1  0
 28112  1  0
 28113  1  0
 29114  1  0
 32115  1  6
 33116  1  0
 33117  1  0
 33118  1  0
 34119  1  0
 37120  1  1
 38121  1  0
 38122  1  0
 38123  1  0
 39124  1  0
 42125  1  1
 43126  1  0
 43127  1  0
 43128  1  0
 44129  1  0
 47130  1  6
 48131  1  0
 48132  1  0
 48133  1  0
 49134  1  0
 52135  1  1
 53136  1  0
 53137  1  0
 53138  1  0
 54139  1  0
 57140  1  1
 58141  1  0
 58142  1  0
 58143  1  0
 59144  1  0
 64145  1  0
 65146  1  1
 66147  1  0
 66148  1  0
 66149  1  0
 69150  1  0
 70151  1  1
 71152  1  0
 71153  1  0
 71154  1  0
 74155  1  0
 75156  1  1
 76157  1  0
 76158  1  0
 76159  1  0
 79160  1  0
 80161  1  6
 82162  1  0
 82163  1  0
 84164  1  0
 84165  1  0
 86166  1  0
 86167  1  0
M  END
