
     RDKit          3D

227229  0  0  0  0  0  0  0  0999 V2000
   -5.2171   -8.8052   -0.0765 C   0  0  0  0  0  0  0  0  0  0  0  0
   -5.0575   -7.3480    0.2277 C   0  0  0  0  0  0  0  0  0  0  0  0
   -3.9616   -6.9240    0.6941 O   0  0  0  0  0  0  0  0  0  0  0  0
   -6.1228   -6.4373   -0.0624 N   0  0  0  0  0  0  0  0  0  0  0  0
   -6.2003   -5.0881    0.5174 C   0  0  1  0  0  0  0  0  0  0  0  0
   -5.3630   -4.0943   -0.3150 C   0  0  0  0  0  0  0  0  0  0  0  0
   -5.3513   -2.3904    0.3913 S   0  0  0  0  0  0  0  0  0  0  0  0
   -4.0207   -2.6484    1.6264 C   0  0  0  0  0  0  0  0  0  0  0  0
   -2.6628   -2.7336    0.9740 C   0  0  0  0  0  0  0  0  0  0  0  0
   -1.9686   -3.9552    0.9370 C   0  0  0  0  0  0  0  0  0  0  0  0
   -0.7329   -4.0558    0.2793 C   0  0  0  0  0  0  0  0  0  0  0  0
   -0.1886   -2.9199   -0.3374 C   0  0  0  0  0  0  0  0  0  0  0  0
   -0.8681   -1.6939   -0.3129 C   0  0  0  0  0  0  0  0  0  0  0  0
   -2.0978   -1.6040    0.3664 C   0  0  0  0  0  0  0  0  0  0  0  0
   -0.1855   -0.5042   -0.9414 C   0  0  0  0  0  0  0  0  0  0  0  0
   -1.3218    0.8184   -1.5096 S   0  0  0  0  0  0  0  0  0  0  0  0
   -1.1448    1.9283   -0.0439 C   0  0  0  0  0  0  0  0  0  0  0  0
   -1.4189    3.4066   -0.3878 C   0  0  2  0  0  0  0  0  0  0  0  0
   -2.7086    3.5600   -1.0773 N   0  0  0  0  0  0  0  0  0  0  0  0
   -3.9522    3.1397   -0.4931 C   0  0  0  0  0  0  0  0  0  0  0  0
   -4.4663    2.0525   -0.8715 O   0  0  0  0  0  0  0  0  0  0  0  0
   -4.6871    3.9880    0.5172 C   0  0  1  0  0  0  0  0  0  0  0  0
   -3.9787    4.0032    1.8745 C   0  0  0  0  0  0  0  0  0  0  0  0
   -4.8332    5.3595    0.0208 N   0  0  0  0  0  0  0  0  0  0  0  0
   -5.9470    6.2015    0.3597 C   0  0  0  0  0  0  0  0  0  0  0  0
   -5.7210    7.3926    0.6994 O   0  0  0  0  0  0  0  0  0  0  0  0
   -7.3698    5.6818    0.3345 C   0  0  1  0  0  0  0  0  0  0  0  0
   -7.8068    5.3374    1.7658 C   0  0  0  0  0  0  0  0  0  0  0  0
   -8.2718    6.6802   -0.2693 N   0  0  0  0  0  0  0  0  0  0  0  0
   -9.5084    6.4268   -0.9712 C   0  0  0  0  0  0  0  0  0  0  0  0
   -9.9417    7.3224   -1.7527 O   0  0  0  0  0  0  0  0  0  0  0  0
  -10.4074    5.2337   -0.7074 C   0  0  1  0  0  0  0  0  0  0  0  0
   -9.7253    3.9037   -1.0623 C   0  0  0  0  0  0  0  0  0  0  0  0
  -10.8884    5.2783    0.6846 N   0  0  0  0  0  0  0  0  0  0  0  0
  -11.7186    4.3106    1.3475 C   0  0  0  0  0  0  0  0  0  0  0  0
  -11.4802    4.0606    2.5577 O   0  0  0  0  0  0  0  0  0  0  0  0
  -12.9265    3.6637    0.7110 C   0  0  1  0  0  0  0  0  0  0  0  0
  -13.8364    4.6702    0.0004 C   0  0  0  0  0  0  0  0  0  0  0  0
  -12.5549    2.5604   -0.1780 N   0  0  0  0  0  0  0  0  0  0  0  0
  -11.9718    1.3601    0.3578 C   0  0  0  0  0  0  0  0  0  0  0  0
  -10.8662    1.4126    0.9617 O   0  0  0  0  0  0  0  0  0  0  0  0
  -12.7075    0.0448    0.2620 C   0  0  1  0  0  0  0  0  0  0  0  0
  -14.1137    0.1925    0.8503 C   0  0  0  0  0  0  0  0  0  0  0  0
  -12.7898   -0.3954   -1.1338 N   0  0  0  0  0  0  0  0  0  0  0  0
  -13.0561   -1.7624   -1.5032 C   0  0  0  0  0  0  0  0  0  0  0  0
  -13.8706   -1.9832   -2.4367 O   0  0  0  0  0  0  0  0  0  0  0  0
  -12.3704   -2.9291   -0.8255 C   0  0  1  0  0  0  0  0  0  0  0  0
  -13.3435   -3.6498    0.1073 C   0  0  0  0  0  0  0  0  0  0  0  0
  -11.8762   -3.8694   -1.8339 N   0  0  0  0  0  0  0  0  0  0  0  0
  -10.6016   -4.5331   -1.7806 C   0  0  0  0  0  0  0  0  0  0  0  0
  -10.0919   -4.9442   -2.8593 O   0  0  0  0  0  0  0  0  0  0  0  0
   -9.9255   -4.8809   -0.4742 C   0  0  1  0  0  0  0  0  0  0  0  0
  -10.2018   -6.3507   -0.1377 C   0  0  0  0  0  0  0  0  0  0  0  0
   -8.4812   -4.6483   -0.5518 N   0  0  0  0  0  0  0  0  0  0  0  0
   -7.6465   -4.6631    0.6152 C   0  0  0  0  0  0  0  0  0  0  0  0
   -8.1398   -4.3925    1.7412 O   0  0  0  0  0  0  0  0  0  0  0  0
   -0.2917    3.9821   -1.2260 C   0  0  0  0  0  0  0  0  0  0  0  0
   -0.0786    3.5012   -2.3746 O   0  0  0  0  0  0  0  0  0  0  0  0
    0.5633    5.0541   -0.7681 N   0  0  0  0  0  0  0  0  0  0  0  0
    0.2811    5.9325    0.3840 C   0  0  2  0  0  0  0  0  0  0  0  0
   -0.8943    6.8469    0.0455 C   0  0  0  0  0  0  0  0  0  0  0  0
    1.4733    6.7812    0.7711 C   0  0  0  0  0  0  0  0  0  0  0  0
    1.3628    7.5950    1.7272 O   0  0  0  0  0  0  0  0  0  0  0  0
    2.7122    6.7032    0.0559 N   0  0  0  0  0  0  0  0  0  0  0  0
    3.3739    7.9008   -0.4652 C   0  0  2  0  0  0  0  0  0  0  0  0
    2.4281    8.6516   -1.4161 C   0  0  0  0  0  0  0  0  0  0  0  0
    4.6384    7.5184   -1.1986 C   0  0  0  0  0  0  0  0  0  0  0  0
    4.5595    6.7504   -2.1965 O   0  0  0  0  0  0  0  0  0  0  0  0
    5.9294    8.0448   -0.8399 N   0  0  0  0  0  0  0  0  0  0  0  0
    6.3602    8.3446    0.5248 C   0  0  2  0  0  0  0  0  0  0  0  0
    6.7820    9.8155    0.6160 C   0  0  0  0  0  0  0  0  0  0  0  0
    7.4519    7.3762    0.9294 C   0  0  0  0  0  0  0  0  0  0  0  0
    7.1052    6.2323    1.3286 O   0  0  0  0  0  0  0  0  0  0  0  0
    8.8476    7.6827    0.7791 N   0  0  0  0  0  0  0  0  0  0  0  0
    9.8789    6.6454    0.8579 C   0  0  2  0  0  0  0  0  0  0  0  0
   11.2556    7.2642    1.0999 C   0  0  0  0  0  0  0  0  0  0  0  0
    9.9015    5.8327   -0.4185 C   0  0  0  0  0  0  0  0  0  0  0  0
    9.2853    6.2326   -1.4455 O   0  0  0  0  0  0  0  0  0  0  0  0
   10.6992    4.6413   -0.4988 N   0  0  0  0  0  0  0  0  0  0  0  0
   10.2841    3.3190   -0.0106 C   0  0  2  0  0  0  0  0  0  0  0  0
    8.8853    3.3126    0.6154 C   0  0  0  0  0  0  0  0  0  0  0  0
   11.3139    2.8263    0.9799 C   0  0  0  0  0  0  0  0  0  0  0  0
   11.4829    3.4895    2.0395 O   0  0  0  0  0  0  0  0  0  0  0  0
   12.1069    1.6341    0.7916 N   0  0  0  0  0  0  0  0  0  0  0  0
   12.4262    0.9167   -0.4534 C   0  0  2  0  0  0  0  0  0  0  0  0
   12.7836    1.8401   -1.6259 C   0  0  0  0  0  0  0  0  0  0  0  0
   11.3504   -0.0973   -0.7955 C   0  0  0  0  0  0  0  0  0  0  0  0
   10.2610    0.2997   -1.2955 O   0  0  0  0  0  0  0  0  0  0  0  0
   11.5174   -1.5097   -0.5730 N   0  0  0  0  0  0  0  0  0  0  0  0
   12.5382   -2.1093    0.2957 C   0  0  2  0  0  0  0  0  0  0  0  0
   13.7392   -2.5636   -0.5369 C   0  0  0  0  0  0  0  0  0  0  0  0
   11.9566   -3.2803    1.0444 C   0  0  0  0  0  0  0  0  0  0  0  0
   11.8075   -3.2022    2.2906 O   0  0  0  0  0  0  0  0  0  0  0  0
   11.5331   -4.4643    0.3475 N   0  0  0  0  0  0  0  0  0  0  0  0
   11.4183   -5.7617    1.0157 C   0  0  2  0  0  0  0  0  0  0  0  0
   12.8106   -6.2366    1.4630 C   0  0  0  0  0  0  0  0  0  0  0  0
   10.7615   -6.7577    0.0838 C   0  0  0  0  0  0  0  0  0  0  0  0
   11.4771   -7.5668   -0.5735 O   0  0  0  0  0  0  0  0  0  0  0  0
    9.3446   -6.7475   -0.1624 N   0  0  0  0  0  0  0  0  0  0  0  0
    8.3451   -6.2652    0.7969 C   0  0  2  0  0  0  0  0  0  0  0  0
    8.1739   -7.3008    1.9196 C   0  0  0  0  0  0  0  0  0  0  0  0
    7.0610   -5.9798    0.0547 C   0  0  0  0  0  0  0  0  0  0  0  0
    7.0482   -5.0350   -0.7837 O   0  0  0  0  0  0  0  0  0  0  0  0
    5.8854   -6.7774    0.2523 N   0  0  0  0  0  0  0  0  0  0  0  0
    5.1947   -7.4908   -0.8277 C   0  0  2  0  0  0  0  0  0  0  0  0
    6.1809   -8.1398   -1.8058 C   0  0  0  0  0  0  0  0  0  0  0  0
    4.2320   -6.5828   -1.5567 C   0  0  0  0  0  0  0  0  0  0  0  0
    4.6824   -5.5427   -2.1247 O   0  0  0  0  0  0  0  0  0  0  0  0
    2.8342   -6.8944   -1.7218 N   0  0  0  0  0  0  0  0  0  0  0  0
    1.9967   -7.6809   -0.7979 C   0  0  1  0  0  0  0  0  0  0  0  0
    2.3030   -9.1595   -0.9221 C   0  0  0  0  0  0  0  0  0  0  0  0
    2.5555  -10.0001    0.2104 N   0  0  0  0  0  0  0  0  0  0  0  0
    2.2816   -9.6748   -2.0664 O   0  0  0  0  0  0  0  0  0  0  0  0
    2.0418   -7.1035    0.6338 C   0  0  0  0  0  0  0  0  0  0  0  0
    1.6931   -5.3023    0.6915 S   0  0  0  0  0  0  0  0  0  0  0  0
   -0.0545   -5.3899    0.1322 C   0  0  0  0  0  0  0  0  0  0  0  0
   -4.2826   -9.3604    0.1489 H   0  0  0  0  0  0  0  0  0  0  0  0
   -5.4699   -8.9383   -1.1519 H   0  0  0  0  0  0  0  0  0  0  0  0
   -6.0339   -9.2269    0.5465 H   0  0  0  0  0  0  0  0  0  0  0  0
   -6.9314   -6.8018   -0.6165 H   0  0  0  0  0  0  0  0  0  0  0  0
   -5.7990   -5.1276    1.5495 H   0  0  0  0  0  0  0  0  0  0  0  0
   -5.7682   -4.0307   -1.3482 H   0  0  0  0  0  0  0  0  0  0  0  0
   -4.3260   -4.4661   -0.4169 H   0  0  0  0  0  0  0  0  0  0  0  0
   -4.2385   -3.5609    2.2091 H   0  0  0  0  0  0  0  0  0  0  0  0
   -4.0375   -1.7946    2.3375 H   0  0  0  0  0  0  0  0  0  0  0  0
   -2.4001   -4.8189    1.4049 H   0  0  0  0  0  0  0  0  0  0  0  0
    0.7599   -2.9955   -0.8530 H   0  0  0  0  0  0  0  0  0  0  0  0
   -2.6243   -0.6584    0.4295 H   0  0  0  0  0  0  0  0  0  0  0  0
    0.3777   -0.8407   -1.8383 H   0  0  0  0  0  0  0  0  0  0  0  0
    0.5686   -0.1235   -0.2281 H   0  0  0  0  0  0  0  0  0  0  0  0
   -1.8627    1.5916    0.7348 H   0  0  0  0  0  0  0  0  0  0  0  0
   -0.1263    1.8611    0.3930 H   0  0  0  0  0  0  0  0  0  0  0  0
   -1.4781    3.9381    0.5719 H   0  0  0  0  0  0  0  0  0  0  0  0
   -2.7204    3.7374   -2.1039 H   0  0  0  0  0  0  0  0  0  0  0  0
   -5.6875    3.5281    0.6671 H   0  0  0  0  0  0  0  0  0  0  0  0
   -3.1117    4.6953    1.8655 H   0  0  0  0  0  0  0  0  0  0  0  0
   -3.6410    2.9813    2.1556 H   0  0  0  0  0  0  0  0  0  0  0  0
   -4.6773    4.3690    2.6532 H   0  0  0  0  0  0  0  0  0  0  0  0
   -3.9747    5.8490   -0.3106 H   0  0  0  0  0  0  0  0  0  0  0  0
   -7.3670    4.7691   -0.2917 H   0  0  0  0  0  0  0  0  0  0  0  0
   -8.0954    6.2530    2.3204 H   0  0  0  0  0  0  0  0  0  0  0  0
   -6.9830    4.8408    2.3220 H   0  0  0  0  0  0  0  0  0  0  0  0
   -8.6505    4.6267    1.7587 H   0  0  0  0  0  0  0  0  0  0  0  0
   -7.9565    7.6759   -0.2962 H   0  0  0  0  0  0  0  0  0  0  0  0
  -11.2808    5.3286   -1.3839 H   0  0  0  0  0  0  0  0  0  0  0  0
   -9.2515    3.4348   -0.1753 H   0  0  0  0  0  0  0  0  0  0  0  0
   -8.9686    4.0532   -1.8586 H   0  0  0  0  0  0  0  0  0  0  0  0
  -10.4722    3.1939   -1.4723 H   0  0  0  0  0  0  0  0  0  0  0  0
  -10.5252    6.0407    1.3038 H   0  0  0  0  0  0  0  0  0  0  0  0
  -13.5376    3.2357    1.5337 H   0  0  0  0  0  0  0  0  0  0  0  0
  -14.0092    5.5612    0.6437 H   0  0  0  0  0  0  0  0  0  0  0  0
  -13.4087    4.9976   -0.9685 H   0  0  0  0  0  0  0  0  0  0  0  0
  -14.8103    4.1901   -0.2065 H   0  0  0  0  0  0  0  0  0  0  0  0
  -12.9955    2.5090   -1.1226 H   0  0  0  0  0  0  0  0  0  0  0  0
  -12.1560   -0.7046    0.8751 H   0  0  0  0  0  0  0  0  0  0  0  0
  -14.6489   -0.7795    0.8177 H   0  0  0  0  0  0  0  0  0  0  0  0
  -14.0549    0.5275    1.9087 H   0  0  0  0  0  0  0  0  0  0  0  0
  -14.7079    0.9302    0.2680 H   0  0  0  0  0  0  0  0  0  0  0  0
  -13.0200    0.3205   -1.8549 H   0  0  0  0  0  0  0  0  0  0  0  0
  -11.5209   -2.5324   -0.2272 H   0  0  0  0  0  0  0  0  0  0  0  0
  -12.8335   -4.4979    0.6103 H   0  0  0  0  0  0  0  0  0  0  0  0
  -13.7172   -2.9631    0.8929 H   0  0  0  0  0  0  0  0  0  0  0  0
  -14.2060   -4.0566   -0.4661 H   0  0  0  0  0  0  0  0  0  0  0  0
  -12.4724   -4.0720   -2.6711 H   0  0  0  0  0  0  0  0  0  0  0  0
  -10.3291   -4.2632    0.3496 H   0  0  0  0  0  0  0  0  0  0  0  0
  -11.2893   -6.5082    0.0095 H   0  0  0  0  0  0  0  0  0  0  0  0
   -9.6769   -6.6374    0.7965 H   0  0  0  0  0  0  0  0  0  0  0  0
   -9.8421   -7.0149   -0.9542 H   0  0  0  0  0  0  0  0  0  0  0  0
   -8.0206   -4.5409   -1.4891 H   0  0  0  0  0  0  0  0  0  0  0  0
    1.3554    5.3008   -1.4044 H   0  0  0  0  0  0  0  0  0  0  0  0
    0.0368    5.3140    1.2760 H   0  0  0  0  0  0  0  0  0  0  0  0
   -1.7629    6.2592   -0.3033 H   0  0  0  0  0  0  0  0  0  0  0  0
   -0.6101    7.5600   -0.7631 H   0  0  0  0  0  0  0  0  0  0  0  0
   -1.2135    7.4207    0.9449 H   0  0  0  0  0  0  0  0  0  0  0  0
    3.2807    5.8279    0.1961 H   0  0  0  0  0  0  0  0  0  0  0  0
    3.5923    8.5938    0.3740 H   0  0  0  0  0  0  0  0  0  0  0  0
    2.0521    7.9691   -2.2122 H   0  0  0  0  0  0  0  0  0  0  0  0
    1.5518    9.0477   -0.8628 H   0  0  0  0  0  0  0  0  0  0  0  0
    2.9537    9.5111   -1.8845 H   0  0  0  0  0  0  0  0  0  0  0  0
    6.6559    8.0688   -1.5931 H   0  0  0  0  0  0  0  0  0  0  0  0
    5.5293    8.1993    1.2477 H   0  0  0  0  0  0  0  0  0  0  0  0
    7.1906   10.0468    1.6248 H   0  0  0  0  0  0  0  0  0  0  0  0
    7.5435   10.0590   -0.1597 H   0  0  0  0  0  0  0  0  0  0  0  0
    5.8974   10.4655    0.4350 H   0  0  0  0  0  0  0  0  0  0  0  0
    9.1487    8.6867    0.7765 H   0  0  0  0  0  0  0  0  0  0  0  0
    9.6645    5.9778    1.7165 H   0  0  0  0  0  0  0  0  0  0  0  0
   11.5428    7.9226    0.2488 H   0  0  0  0  0  0  0  0  0  0  0  0
   11.2450    7.8711    2.0342 H   0  0  0  0  0  0  0  0  0  0  0  0
   12.0176    6.4689    1.2218 H   0  0  0  0  0  0  0  0  0  0  0  0
   11.5333    4.6737   -1.1281 H   0  0  0  0  0  0  0  0  0  0  0  0
   10.2270    2.6530   -0.8799 H   0  0  0  0  0  0  0  0  0  0  0  0
    8.8720    3.8352    1.5941 H   0  0  0  0  0  0  0  0  0  0  0  0
    8.1432    3.7883   -0.0630 H   0  0  0  0  0  0  0  0  0  0  0  0
    8.5621    2.2645    0.7826 H   0  0  0  0  0  0  0  0  0  0  0  0
   12.6338    1.3172    1.6357 H   0  0  0  0  0  0  0  0  0  0  0  0
   13.3655    0.3631   -0.2575 H   0  0  0  0  0  0  0  0  0  0  0  0
   13.3789    2.7076   -1.2694 H   0  0  0  0  0  0  0  0  0  0  0  0
   11.8923    2.2042   -2.1770 H   0  0  0  0  0  0  0  0  0  0  0  0
   13.3969    1.2784   -2.3629 H   0  0  0  0  0  0  0  0  0  0  0  0
   10.8404   -2.1441   -1.0597 H   0  0  0  0  0  0  0  0  0  0  0  0
   12.8860   -1.3666    1.0461 H   0  0  0  0  0  0  0  0  0  0  0  0
   14.2446   -1.6881   -1.0064 H   0  0  0  0  0  0  0  0  0  0  0  0
   14.4858   -3.0935    0.1023 H   0  0  0  0  0  0  0  0  0  0  0  0
   13.4119   -3.2469   -1.3562 H   0  0  0  0  0  0  0  0  0  0  0  0
   11.4108   -4.4107   -0.6891 H   0  0  0  0  0  0  0  0  0  0  0  0
   10.7912   -5.6642    1.9352 H   0  0  0  0  0  0  0  0  0  0  0  0
   13.1958   -5.5890    2.2798 H   0  0  0  0  0  0  0  0  0  0  0  0
   12.7587   -7.2764    1.8491 H   0  0  0  0  0  0  0  0  0  0  0  0
   13.5276   -6.1996    0.6087 H   0  0  0  0  0  0  0  0  0  0  0  0
    9.0100   -7.2651   -1.0081 H   0  0  0  0  0  0  0  0  0  0  0  0
    8.6740   -5.3090    1.2584 H   0  0  0  0  0  0  0  0  0  0  0  0
    7.8882   -8.2864    1.4898 H   0  0  0  0  0  0  0  0  0  0  0  0
    7.3945   -6.9768    2.6500 H   0  0  0  0  0  0  0  0  0  0  0  0
    9.1314   -7.4275    2.4680 H   0  0  0  0  0  0  0  0  0  0  0  0
    5.5516   -6.9533    1.2307 H   0  0  0  0  0  0  0  0  0  0  0  0
    4.6443   -8.3278   -0.3545 H   0  0  0  0  0  0  0  0  0  0  0  0
    6.8594   -8.8294   -1.2580 H   0  0  0  0  0  0  0  0  0  0  0  0
    5.6252   -8.7245   -2.5683 H   0  0  0  0  0  0  0  0  0  0  0  0
    6.7904   -7.3706   -2.3279 H   0  0  0  0  0  0  0  0  0  0  0  0
    2.3291   -6.3879   -2.4820 H   0  0  0  0  0  0  0  0  0  0  0  0
    0.9451   -7.6036   -1.1423 H   0  0  0  0  0  0  0  0  0  0  0  0
    2.6617  -11.0275    0.0800 H   0  0  0  0  0  0  0  0  0  0  0  0
    2.6663   -9.6198    1.1729 H   0  0  0  0  0  0  0  0  0  0  0  0
    3.0484   -7.2561    1.0789 H   0  0  0  0  0  0  0  0  0  0  0  0
    1.3118   -7.6343    1.2866 H   0  0  0  0  0  0  0  0  0  0  0  0
   -0.5867   -6.1729    0.7132 H   0  0  0  0  0  0  0  0  0  0  0  0
   -0.0911   -5.6642   -0.9432 H   0  0  0  0  0  0  0  0  0  0  0  0
  1  2  1  0
  2  3  2  0
  2  4  1  0
  4  5  1  0
  5  6  1  0
  6  7  1  0
  7  8  1  0
  8  9  1  0
  9 10  1  0
 10 11  2  0
 11 12  1  0
 12 13  2  0
 13 14  1  0
 13 15  1  0
 15 16  1  0
 16 17  1  0
 17 18  1  0
 18 19  1  0
 19 20  1  0
 20 21  2  0
 20 22  1  0
 22 23  1  0
 22 24  1  0
 24 25  1  0
 25 26  2  0
 25 27  1  0
 27 28  1  0
 27 29  1  0
 29 30  1  0
 30 31  2  0
 30 32  1  0
 32 33  1  0
 32 34  1  0
 34 35  1  0
 35 36  2  0
 35 37  1  0
 37 38  1  0
 37 39  1  0
 39 40  1  0
 40 41  2  0
 40 42  1  0
 42 43  1  0
 42 44  1  0
 44 45  1  0
 45 46  2  0
 45 47  1  0
 47 48  1  0
 47 49  1  0
 49 50  1  0
 50 51  2  0
 50 52  1  0
 52 53  1  0
 52 54  1  0
 54 55  1  0
 55 56  2  0
 18 57  1  0
 57 58  2  0
 57 59  1  0
 59 60  1  0
 60 61  1  0
 60 62  1  0
 62 63  2  0
 62 64  1  0
 64 65  1  0
 65 66  1  0
 65 67  1  0
 67 68  2  0
 67 69  1  0
 69 70  1  0
 70 71  1  0
 70 72  1  0
 72 73  2  0
 72 74  1  0
 74 75  1  0
 75 76  1  0
 75 77  1  0
 77 78  2  0
 77 79  1  0
 79 80  1  0
 80 81  1  0
 80 82  1  0
 82 83  2  0
 82 84  1  0
 84 85  1  0
 85 86  1  0
 85 87  1  0
 87 88  2  0
 87 89  1  0
 89 90  1  0
 90 91  1  0
 90 92  1  0
 92 93  2  0
 92 94  1  0
 94 95  1  0
 95 96  1  0
 95 97  1  0
 97 98  2  0
 97 99  1  0
 99100  1  0
100101  1  0
100102  1  0
102103  2  0
102104  1  0
104105  1  0
105106  1  0
105107  1  0
107108  2  0
107109  1  0
109110  1  0
110111  1  0
111112  1  0
111113  2  0
110114  1  0
114115  1  0
115116  1  0
 55  5  1  0
 14  9  2  0
116 11  1  0
  1117  1  0
  1118  1  0
  1119  1  0
  4120  1  0
  5121  1  1
  6122  1  0
  6123  1  0
  8124  1  0
  8125  1  0
 10126  1  0
 12127  1  0
 14128  1  0
 15129  1  0
 15130  1  0
 17131  1  0
 17132  1  0
 18133  1  1
 19134  1  0
 22135  1  1
 23136  1  0
 23137  1  0
 23138  1  0
 24139  1  0
 27140  1  6
 28141  1  0
 28142  1  0
 28143  1  0
 29144  1  0
 32145  1  6
 33146  1  0
 33147  1  0
 33148  1  0
 34149  1  0
 37150  1  1
 38151  1  0
 38152  1  0
 38153  1  0
 39154  1  0
 42155  1  1
 43156  1  0
 43157  1  0
 43158  1  0
 44159  1  0
 47160  1  1
 48161  1  0
 48162  1  0
 48163  1  0
 49164  1  0
 52165  1  1
 53166  1  0
 53167  1  0
 53168  1  0
 54169  1  0
 59170  1  0
 60171  1  1
 61172  1  0
 61173  1  0
 61174  1  0
 64175  1  0
 65176  1  1
 66177  1  0
 66178  1  0
 66179  1  0
 69180  1  0
 70181  1  1
 71182  1  0
 71183  1  0
 71184  1  0
 74185  1  0
 75186  1  1
 76187  1  0
 76188  1  0
 76189  1  0
 79190  1  0
 80191  1  6
 81192  1  0
 81193  1  0
 81194  1  0
 84195  1  0
 85196  1  1
 86197  1  0
 86198  1  0
 86199  1  0
 89200  1  0
 90201  1  1
 91202  1  0
 91203  1  0
 91204  1  0
 94205  1  0
 95206  1  1
 96207  1  0
 96208  1  0
 96209  1  0
 99210  1  0
100211  1  1
101212  1  0
101213  1  0
101214  1  0
104215  1  0
105216  1  1
106217  1  0
106218  1  0
106219  1  0
109220  1  0
110221  1  6
112222  1  0
112223  1  0
114224  1  0
114225  1  0
116226  1  0
116227  1  0
M  END
