
     RDKit          3D

217219  0  0  0  0  0  0  0  0999 V2000
    7.3106    8.4791   -1.4851 C   0  0  0  0  0  0  0  0  0  0  0  0
    7.5145    8.2808   -0.0089 C   0  0  0  0  0  0  0  0  0  0  0  0
    8.2723    9.0668    0.6118 O   0  0  0  0  0  0  0  0  0  0  0  0
    6.8075    7.2685    0.7225 N   0  0  0  0  0  0  0  0  0  0  0  0
    6.2279    6.0635    0.1202 C   0  0  2  0  0  0  0  0  0  0  0  0
    5.2040    5.4484    1.0990 C   0  0  0  0  0  0  0  0  0  0  0  0
    4.3523    3.9463    0.4554 S   0  0  0  0  0  0  0  0  0  0  0  0
    3.4208    4.7593   -0.8905 C   0  0  0  0  0  0  0  0  0  0  0  0
    2.1606    3.9745   -1.1927 C   0  0  0  0  0  0  0  0  0  0  0  0
    0.8948    4.5904   -1.1434 C   0  0  0  0  0  0  0  0  0  0  0  0
   -0.2675    3.8734   -1.4815 C   0  0  0  0  0  0  0  0  0  0  0  0
   -0.1518    2.5255   -1.8598 C   0  0  0  0  0  0  0  0  0  0  0  0
    1.0946    1.8939   -1.9010 C   0  0  0  0  0  0  0  0  0  0  0  0
    2.2536    2.6311   -1.6023 C   0  0  0  0  0  0  0  0  0  0  0  0
    1.1858    0.4667   -2.3664 C   0  0  0  0  0  0  0  0  0  0  0  0
    2.2041   -0.5368   -1.2372 S   0  0  0  0  0  0  0  0  0  0  0  0
    0.8976   -0.8686    0.0040 C   0  0  0  0  0  0  0  0  0  0  0  0
    1.3754   -1.9505    0.9859 C   0  0  2  0  0  0  0  0  0  0  0  0
    1.5603   -3.2346    0.3017 N   0  0  0  0  0  0  0  0  0  0  0  0
    2.3861   -4.2687    0.8399 C   0  0  0  0  0  0  0  0  0  0  0  0
    1.8737   -5.1181    1.6284 O   0  0  0  0  0  0  0  0  0  0  0  0
    3.8038   -4.4688    0.3497 C   0  0  1  0  0  0  0  0  0  0  0  0
    4.4799   -3.1393   -0.0070 C   0  0  0  0  0  0  0  0  0  0  0  0
    4.5915   -5.1571    1.3755 N   0  0  0  0  0  0  0  0  0  0  0  0
    5.3119   -6.3922    1.2077 C   0  0  0  0  0  0  0  0  0  0  0  0
    5.5520   -7.0836    2.2361 O   0  0  0  0  0  0  0  0  0  0  0  0
    5.8006   -6.9130   -0.1255 C   0  0  1  0  0  0  0  0  0  0  0  0
    4.7298   -7.7748   -0.8233 C   0  0  0  0  0  0  0  0  0  0  0  0
    6.2674   -5.8358   -0.9999 N   0  0  0  0  0  0  0  0  0  0  0  0
    7.5450   -5.1739   -0.8718 C   0  0  0  0  0  0  0  0  0  0  0  0
    7.8790   -4.3388   -1.7525 O   0  0  0  0  0  0  0  0  0  0  0  0
    8.5022   -5.4778    0.2701 C   0  0  1  0  0  0  0  0  0  0  0  0
    9.4819   -6.5967   -0.1103 C   0  0  0  0  0  0  0  0  0  0  0  0
    9.2164   -4.2709    0.7120 N   0  0  0  0  0  0  0  0  0  0  0  0
   10.3786   -3.7269    0.0717 C   0  0  0  0  0  0  0  0  0  0  0  0
   10.5318   -3.8556   -1.1754 O   0  0  0  0  0  0  0  0  0  0  0  0
   11.4643   -3.0858    0.9036 C   0  0  1  0  0  0  0  0  0  0  0  0
   12.7057   -3.9849    0.8910 C   0  0  0  0  0  0  0  0  0  0  0  0
   11.7792   -1.7486    0.3926 N   0  0  0  0  0  0  0  0  0  0  0  0
   12.6516   -0.8534    1.1132 C   0  0  0  0  0  0  0  0  0  0  0  0
   12.9085   -1.0815    2.3283 O   0  0  0  0  0  0  0  0  0  0  0  0
   13.2586    0.3844    0.4762 C   0  0  1  0  0  0  0  0  0  0  0  0
   14.7863    0.3245    0.5283 C   0  0  0  0  0  0  0  0  0  0  0  0
   12.8360    0.5366   -0.9223 N   0  0  0  0  0  0  0  0  0  0  0  0
   11.9945    1.5879   -1.4346 C   0  0  0  0  0  0  0  0  0  0  0  0
   11.3287    1.3550   -2.4771 O   0  0  0  0  0  0  0  0  0  0  0  0
   11.9196    2.9643   -0.8185 C   0  0  1  0  0  0  0  0  0  0  0  0
   12.4522    4.0138   -1.7863 C   0  0  0  0  0  0  0  0  0  0  0  0
   10.5314    3.2742   -0.4654 N   0  0  0  0  0  0  0  0  0  0  0  0
   10.0460    3.1671    0.8806 C   0  0  0  0  0  0  0  0  0  0  0  0
   10.4812    2.2612    1.6385 O   0  0  0  0  0  0  0  0  0  0  0  0
    9.0653    4.1792    1.4174 C   0  0  1  0  0  0  0  0  0  0  0  0
    9.6982    5.5748    1.4102 C   0  0  0  0  0  0  0  0  0  0  0  0
    7.7999    4.1056    0.6743 N   0  0  0  0  0  0  0  0  0  0  0  0
    7.3387    5.1029   -0.2548 C   0  0  0  0  0  0  0  0  0  0  0  0
    7.9034    5.2061   -1.3680 O   0  0  0  0  0  0  0  0  0  0  0  0
    0.4258   -2.0655    2.1552 C   0  0  0  0  0  0  0  0  0  0  0  0
    0.4504   -1.1714    3.0449 O   0  0  0  0  0  0  0  0  0  0  0  0
   -0.4512   -3.1793    2.3268 N   0  0  0  0  0  0  0  0  0  0  0  0
   -1.5404   -3.4698    1.3913 C   0  0  2  0  0  0  0  0  0  0  0  0
   -2.6082   -2.3681    1.4790 C   0  0  0  0  0  0  0  0  0  0  0  0
   -2.1698   -4.8155    1.6631 C   0  0  0  0  0  0  0  0  0  0  0  0
   -1.9583   -5.4257    2.7492 O   0  0  0  0  0  0  0  0  0  0  0  0
   -3.0087   -5.4255    0.6754 N   0  0  0  0  0  0  0  0  0  0  0  0
   -2.6490   -6.7209    0.0919 C   0  0  2  0  0  0  0  0  0  0  0  0
   -1.6924   -6.4718   -1.0780 C   0  0  0  0  0  0  0  0  0  0  0  0
   -3.8655   -7.4997   -0.3581 C   0  0  0  0  0  0  0  0  0  0  0  0
   -3.7098   -8.5286   -1.0758 O   0  0  0  0  0  0  0  0  0  0  0  0
   -5.1869   -7.1287    0.0619 N   0  0  0  0  0  0  0  0  0  0  0  0
   -6.3419   -7.3101   -0.8357 C   0  0  2  0  0  0  0  0  0  0  0  0
   -6.1959   -6.4105   -2.0697 C   0  0  0  0  0  0  0  0  0  0  0  0
   -7.6252   -7.0089   -0.1144 C   0  0  0  0  0  0  0  0  0  0  0  0
   -8.4241   -7.9722    0.1249 O   0  0  0  0  0  0  0  0  0  0  0  0
   -7.9586   -5.6587    0.2608 N   0  0  0  0  0  0  0  0  0  0  0  0
   -9.2461   -5.1950    0.7885 C   0  0  2  0  0  0  0  0  0  0  0  0
  -10.4502   -6.0199    0.2845 C   0  0  0  0  0  0  0  0  0  0  0  0
   -9.4620   -3.7598    0.3738 C   0  0  0  0  0  0  0  0  0  0  0  0
   -9.7969   -2.9104    1.2338 O   0  0  0  0  0  0  0  0  0  0  0  0
   -9.3537   -3.3849   -1.0046 N   0  0  0  0  0  0  0  0  0  0  0  0
  -10.2264   -2.3603   -1.5868 C   0  0  2  0  0  0  0  0  0  0  0  0
  -10.2555   -2.4701   -3.1154 C   0  0  0  0  0  0  0  0  0  0  0  0
   -9.7697   -0.9753   -1.1747 C   0  0  0  0  0  0  0  0  0  0  0  0
   -8.5782   -0.6363   -1.4031 O   0  0  0  0  0  0  0  0  0  0  0  0
  -10.6588   -0.0058   -0.6059 N   0  0  0  0  0  0  0  0  0  0  0  0
  -11.9100   -0.3305    0.0919 C   0  0  2  0  0  0  0  0  0  0  0  0
  -13.0674   -0.3645   -0.9143 C   0  0  0  0  0  0  0  0  0  0  0  0
  -12.1167    0.6654    1.2131 C   0  0  0  0  0  0  0  0  0  0  0  0
  -11.2114    0.7753    2.0899 O   0  0  0  0  0  0  0  0  0  0  0  0
  -13.2711    1.5180    1.2928 N   0  0  0  0  0  0  0  0  0  0  0  0
  -13.1192    2.9490    1.5873 C   0  0  2  0  0  0  0  0  0  0  0  0
  -14.4006    3.5044    2.2177 C   0  0  0  0  0  0  0  0  0  0  0  0
  -12.7757    3.6707    0.3021 C   0  0  0  0  0  0  0  0  0  0  0  0
  -13.6733    3.8196   -0.5664 O   0  0  0  0  0  0  0  0  0  0  0  0
  -11.4467    4.1243   -0.0087 N   0  0  0  0  0  0  0  0  0  0  0  0
  -10.3053    4.1298    0.9242 C   0  0  2  0  0  0  0  0  0  0  0  0
  -10.4697    5.2751    1.9250 C   0  0  0  0  0  0  0  0  0  0  0  0
   -9.0057    4.1891    0.1395 C   0  0  0  0  0  0  0  0  0  0  0  0
   -8.7720    3.2767   -0.6959 O   0  0  0  0  0  0  0  0  0  0  0  0
   -8.0243    5.2215    0.3512 N   0  0  0  0  0  0  0  0  0  0  0  0
   -7.4701    6.0670   -0.7148 C   0  0  2  0  0  0  0  0  0  0  0  0
   -7.4502    5.3763   -2.0844 C   0  0  0  0  0  0  0  0  0  0  0  0
   -6.0669    6.5031   -0.3612 C   0  0  0  0  0  0  0  0  0  0  0  0
   -5.6714    7.6473   -0.7130 O   0  0  0  0  0  0  0  0  0  0  0  0
   -5.1676    5.6205    0.3287 N   0  0  0  0  0  0  0  0  0  0  0  0
   -3.7731    5.9970    0.6031 C   0  0  1  0  0  0  0  0  0  0  0  0
   -3.7057    6.9066    1.7970 C   0  0  0  0  0  0  0  0  0  0  0  0
   -2.8809    8.0694    1.7632 N   0  0  0  0  0  0  0  0  0  0  0  0
   -4.3588    6.6437    2.8409 O   0  0  0  0  0  0  0  0  0  0  0  0
   -2.9159    4.7435    0.8566 C   0  0  0  0  0  0  0  0  0  0  0  0
   -2.8825    3.6463   -0.6060 S   0  0  0  0  0  0  0  0  0  0  0  0
   -1.6069    4.5664   -1.5545 C   0  0  0  0  0  0  0  0  0  0  0  0
    6.2295    8.5766   -1.7196 H   0  0  0  0  0  0  0  0  0  0  0  0
    7.8334    9.4017   -1.8150 H   0  0  0  0  0  0  0  0  0  0  0  0
    7.7342    7.6251   -2.0420 H   0  0  0  0  0  0  0  0  0  0  0  0
    6.8181    7.3424    1.7672 H   0  0  0  0  0  0  0  0  0  0  0  0
    5.6803    6.3498   -0.8026 H   0  0  0  0  0  0  0  0  0  0  0  0
    5.7347    5.1616    2.0361 H   0  0  0  0  0  0  0  0  0  0  0  0
    4.4447    6.2089    1.3724 H   0  0  0  0  0  0  0  0  0  0  0  0
    3.1610    5.8052   -0.6092 H   0  0  0  0  0  0  0  0  0  0  0  0
    4.0500    4.7950   -1.8099 H   0  0  0  0  0  0  0  0  0  0  0  0
    0.8215    5.6364   -0.8545 H   0  0  0  0  0  0  0  0  0  0  0  0
   -1.0442    1.9762   -2.1364 H   0  0  0  0  0  0  0  0  0  0  0  0
    3.2225    2.1579   -1.6794 H   0  0  0  0  0  0  0  0  0  0  0  0
    0.1872    0.0066   -2.4703 H   0  0  0  0  0  0  0  0  0  0  0  0
    1.6526    0.4516   -3.3722 H   0  0  0  0  0  0  0  0  0  0  0  0
   -0.0412   -1.2108   -0.4925 H   0  0  0  0  0  0  0  0  0  0  0  0
    0.6851    0.0745    0.5538 H   0  0  0  0  0  0  0  0  0  0  0  0
    2.3628   -1.6281    1.3972 H   0  0  0  0  0  0  0  0  0  0  0  0
    1.1555   -3.3880   -0.6616 H   0  0  0  0  0  0  0  0  0  0  0  0
    3.7460   -5.0667   -0.5707 H   0  0  0  0  0  0  0  0  0  0  0  0
    5.5183   -3.3197   -0.3311 H   0  0  0  0  0  0  0  0  0  0  0  0
    3.9407   -2.6675   -0.8600 H   0  0  0  0  0  0  0  0  0  0  0  0
    4.4950   -2.4540    0.8679 H   0  0  0  0  0  0  0  0  0  0  0  0
    4.5859   -4.7403    2.3384 H   0  0  0  0  0  0  0  0  0  0  0  0
    6.6447   -7.6052    0.0654 H   0  0  0  0  0  0  0  0  0  0  0  0
    5.1420   -8.1792   -1.7714 H   0  0  0  0  0  0  0  0  0  0  0  0
    4.4500   -8.6345   -0.1792 H   0  0  0  0  0  0  0  0  0  0  0  0
    3.8108   -7.1985   -1.0586 H   0  0  0  0  0  0  0  0  0  0  0  0
    5.6931   -5.5834   -1.8381 H   0  0  0  0  0  0  0  0  0  0  0  0
    7.9232   -5.8461    1.1326 H   0  0  0  0  0  0  0  0  0  0  0  0
   10.2038   -6.7701    0.7146 H   0  0  0  0  0  0  0  0  0  0  0  0
    8.9280   -7.5396   -0.2929 H   0  0  0  0  0  0  0  0  0  0  0  0
   10.0345   -6.3447   -1.0379 H   0  0  0  0  0  0  0  0  0  0  0  0
    8.8652   -3.7943    1.5834 H   0  0  0  0  0  0  0  0  0  0  0  0
   11.0932   -3.0000    1.9429 H   0  0  0  0  0  0  0  0  0  0  0  0
   13.4865   -3.5636    1.5554 H   0  0  0  0  0  0  0  0  0  0  0  0
   13.1110   -4.0726   -0.1391 H   0  0  0  0  0  0  0  0  0  0  0  0
   12.4441   -5.0007    1.2559 H   0  0  0  0  0  0  0  0  0  0  0  0
   11.4353   -1.4673   -0.5625 H   0  0  0  0  0  0  0  0  0  0  0  0
   12.9329    1.2398    1.0925 H   0  0  0  0  0  0  0  0  0  0  0  0
   15.2123    1.2483    0.1023 H   0  0  0  0  0  0  0  0  0  0  0  0
   15.1582   -0.5542   -0.0545 H   0  0  0  0  0  0  0  0  0  0  0  0
   15.1448    0.2339    1.5792 H   0  0  0  0  0  0  0  0  0  0  0  0
   13.0963   -0.2296   -1.5896 H   0  0  0  0  0  0  0  0  0  0  0  0
   12.5571    3.0463    0.0873 H   0  0  0  0  0  0  0  0  0  0  0  0
   11.8754    4.0025   -2.7388 H   0  0  0  0  0  0  0  0  0  0  0  0
   12.3718    5.0227   -1.3402 H   0  0  0  0  0  0  0  0  0  0  0  0
   13.5273    3.8266   -2.0168 H   0  0  0  0  0  0  0  0  0  0  0  0
    9.9447    3.7810   -1.1617 H   0  0  0  0  0  0  0  0  0  0  0  0
    8.8418    3.9319    2.4830 H   0  0  0  0  0  0  0  0  0  0  0  0
    9.9596    5.8956    0.3794 H   0  0  0  0  0  0  0  0  0  0  0  0
    9.0060    6.3015    1.8705 H   0  0  0  0  0  0  0  0  0  0  0  0
   10.6264    5.5682    2.0261 H   0  0  0  0  0  0  0  0  0  0  0  0
    7.1963    3.2582    0.8025 H   0  0  0  0  0  0  0  0  0  0  0  0
   -0.4980   -3.5763    3.2996 H   0  0  0  0  0  0  0  0  0  0  0  0
   -1.1374   -3.4929    0.3563 H   0  0  0  0  0  0  0  0  0  0  0  0
   -3.0061   -2.3137    2.5095 H   0  0  0  0  0  0  0  0  0  0  0  0
   -3.4382   -2.5772    0.7664 H   0  0  0  0  0  0  0  0  0  0  0  0
   -2.1570   -1.3882    1.2066 H   0  0  0  0  0  0  0  0  0  0  0  0
   -3.9168   -4.9482    0.4298 H   0  0  0  0  0  0  0  0  0  0  0  0
   -2.1215   -7.3370    0.8505 H   0  0  0  0  0  0  0  0  0  0  0  0
   -1.3352   -7.4346   -1.5114 H   0  0  0  0  0  0  0  0  0  0  0  0
   -2.2038   -5.8873   -1.8722 H   0  0  0  0  0  0  0  0  0  0  0  0
   -0.8059   -5.8928   -0.7270 H   0  0  0  0  0  0  0  0  0  0  0  0
   -5.3183   -6.7298    1.0126 H   0  0  0  0  0  0  0  0  0  0  0  0
   -6.3732   -8.3700   -1.1829 H   0  0  0  0  0  0  0  0  0  0  0  0
   -7.1073   -6.4629   -2.7011 H   0  0  0  0  0  0  0  0  0  0  0  0
   -6.0363   -5.3513   -1.7605 H   0  0  0  0  0  0  0  0  0  0  0  0
   -5.3239   -6.7288   -2.6797 H   0  0  0  0  0  0  0  0  0  0  0  0
   -7.1510   -5.0082    0.3860 H   0  0  0  0  0  0  0  0  0  0  0  0
   -9.2261   -5.2483    1.8952 H   0  0  0  0  0  0  0  0  0  0  0  0
  -10.3719   -6.1804   -0.8125 H   0  0  0  0  0  0  0  0  0  0  0  0
  -10.5073   -6.9907    0.8139 H   0  0  0  0  0  0  0  0  0  0  0  0
  -11.4017   -5.4887    0.4980 H   0  0  0  0  0  0  0  0  0  0  0  0
   -8.8103   -4.0054   -1.6517 H   0  0  0  0  0  0  0  0  0  0  0  0
  -11.2560   -2.5547   -1.2358 H   0  0  0  0  0  0  0  0  0  0  0  0
   -9.2472   -2.2749   -3.5346 H   0  0  0  0  0  0  0  0  0  0  0  0
  -10.9713   -1.7335   -3.5396 H   0  0  0  0  0  0  0  0  0  0  0  0
  -10.5816   -3.4903   -3.4127 H   0  0  0  0  0  0  0  0  0  0  0  0
  -10.3650    0.9991   -0.6582 H   0  0  0  0  0  0  0  0  0  0  0  0
  -11.8347   -1.3278    0.5775 H   0  0  0  0  0  0  0  0  0  0  0  0
  -13.9977   -0.6962   -0.4105 H   0  0  0  0  0  0  0  0  0  0  0  0
  -13.2273    0.6437   -1.3637 H   0  0  0  0  0  0  0  0  0  0  0  0
  -12.8528   -1.0706   -1.7356 H   0  0  0  0  0  0  0  0  0  0  0  0
  -14.1712    1.2186    0.8490 H   0  0  0  0  0  0  0  0  0  0  0  0
  -12.3200    3.0734    2.3516 H   0  0  0  0  0  0  0  0  0  0  0  0
  -14.5652    3.0436    3.2166 H   0  0  0  0  0  0  0  0  0  0  0  0
  -15.2853    3.2926    1.5814 H   0  0  0  0  0  0  0  0  0  0  0  0
  -14.3232    4.6113    2.3528 H   0  0  0  0  0  0  0  0  0  0  0  0
  -11.3143    4.5896   -0.9408 H   0  0  0  0  0  0  0  0  0  0  0  0
  -10.2773    3.1699    1.4750 H   0  0  0  0  0  0  0  0  0  0  0  0
  -11.4679    5.2272    2.4104 H   0  0  0  0  0  0  0  0  0  0  0  0
  -10.3883    6.2543    1.4034 H   0  0  0  0  0  0  0  0  0  0  0  0
   -9.7032    5.2013    2.7214 H   0  0  0  0  0  0  0  0  0  0  0  0
   -7.9150    5.5968    1.3142 H   0  0  0  0  0  0  0  0  0  0  0  0
   -8.1066    6.9786   -0.7993 H   0  0  0  0  0  0  0  0  0  0  0  0
   -8.4674    5.1033   -2.4148 H   0  0  0  0  0  0  0  0  0  0  0  0
   -7.0270    6.0571   -2.8547 H   0  0  0  0  0  0  0  0  0  0  0  0
   -6.8049    4.4682   -2.0433 H   0  0  0  0  0  0  0  0  0  0  0  0
   -5.5776    4.8026    0.8357 H   0  0  0  0  0  0  0  0  0  0  0  0
   -3.3676    6.5264   -0.2801 H   0  0  0  0  0  0  0  0  0  0  0  0
   -2.7851    8.6655    2.6191 H   0  0  0  0  0  0  0  0  0  0  0  0
   -2.3238    8.3201    0.9130 H   0  0  0  0  0  0  0  0  0  0  0  0
   -1.8817    5.0401    1.1389 H   0  0  0  0  0  0  0  0  0  0  0  0
   -3.3434    4.1702    1.7134 H   0  0  0  0  0  0  0  0  0  0  0  0
   -1.9365    4.5811   -2.6131 H   0  0  0  0  0  0  0  0  0  0  0  0
   -1.5288    5.6274   -1.2314 H   0  0  0  0  0  0  0  0  0  0  0  0
  1  2  1  0
  2  3  2  0
  2  4  1  0
  4  5  1  0
  5  6  1  0
  6  7  1  0
  7  8  1  0
  8  9  1  0
  9 10  1  0
 10 11  2  0
 11 12  1  0
 12 13  2  0
 13 14  1  0
 13 15  1  0
 15 16  1  0
 16 17  1  0
 17 18  1  0
 18 19  1  0
 19 20  1  0
 20 21  2  0
 20 22  1  0
 22 23  1  0
 22 24  1  0
 24 25  1  0
 25 26  2  0
 25 27  1  0
 27 28  1  0
 27 29  1  0
 29 30  1  0
 30 31  2  0
 30 32  1  0
 32 33  1  0
 32 34  1  0
 34 35  1  0
 35 36  2  0
 35 37  1  0
 37 38  1  0
 37 39  1  0
 39 40  1  0
 40 41  2  0
 40 42  1  0
 42 43  1  0
 42 44  1  0
 44 45  1  0
 45 46  2  0
 45 47  1  0
 47 48  1  0
 47 49  1  0
 49 50  1  0
 50 51  2  0
 50 52  1  0
 52 53  1  0
 52 54  1  0
 54 55  1  0
 55 56  2  0
 18 57  1  0
 57 58  2  0
 57 59  1  0
 59 60  1  0
 60 61  1  0
 60 62  1  0
 62 63  2  0
 62 64  1  0
 64 65  1  0
 65 66  1  0
 65 67  1  0
 67 68  2  0
 67 69  1  0
 69 70  1  0
 70 71  1  0
 70 72  1  0
 72 73  2  0
 72 74  1  0
 74 75  1  0
 75 76  1  0
 75 77  1  0
 77 78  2  0
 77 79  1  0
 79 80  1  0
 80 81  1  0
 80 82  1  0
 82 83  2  0
 82 84  1  0
 84 85  1  0
 85 86  1  0
 85 87  1  0
 87 88  2  0
 87 89  1  0
 89 90  1  0
 90 91  1  0
 90 92  1  0
 92 93  2  0
 92 94  1  0
 94 95  1  0
 95 96  1  0
 95 97  1  0
 97 98  2  0
 97 99  1  0
 99100  1  0
100101  1  0
100102  1  0
102103  2  0
102104  1  0
104105  1  0
105106  1  0
106107  1  0
106108  2  0
105109  1  0
109110  1  0
110111  1  0
 55  5  1  0
 14  9  2  0
111 11  1  0
  1112  1  0
  1113  1  0
  1114  1  0
  4115  1  0
  5116  1  6
  6117  1  0
  6118  1  0
  8119  1  0
  8120  1  0
 10121  1  0
 12122  1  0
 14123  1  0
 15124  1  0
 15125  1  0
 17126  1  0
 17127  1  0
 18128  1  1
 19129  1  0
 22130  1  6
 23131  1  0
 23132  1  0
 23133  1  0
 24134  1  0
 27135  1  1
 28136  1  0
 28137  1  0
 28138  1  0
 29139  1  0
 32140  1  1
 33141  1  0
 33142  1  0
 33143  1  0
 34144  1  0
 37145  1  1
 38146  1  0
 38147  1  0
 38148  1  0
 39149  1  0
 42150  1  1
 43151  1  0
 43152  1  0
 43153  1  0
 44154  1  0
 47155  1  1
 48156  1  0
 48157  1  0
 48158  1  0
 49159  1  0
 52160  1  1
 53161  1  0
 53162  1  0
 53163  1  0
 54164  1  0
 59165  1  0
 60166  1  6
 61167  1  0
 61168  1  0
 61169  1  0
 64170  1  0
 65171  1  1
 66172  1  0
 66173  1  0
 66174  1  0
 69175  1  0
 70176  1  6
 71177  1  0
 71178  1  0
 71179  1  0
 74180  1  0
 75181  1  1
 76182  1  0
 76183  1  0
 76184  1  0
 79185  1  0
 80186  1  1
 81187  1  0
 81188  1  0
 81189  1  0
 84190  1  0
 85191  1  1
 86192  1  0
 86193  1  0
 86194  1  0
 89195  1  0
 90196  1  1
 91197  1  0
 91198  1  0
 91199  1  0
 94200  1  0
 95201  1  1
 96202  1  0
 96203  1  0
 96204  1  0
 99205  1  0
100206  1  6
101207  1  0
101208  1  0
101209  1  0
104210  1  0
105211  1  6
107212  1  0
107213  1  0
109214  1  0
109215  1  0
111216  1  0
111217  1  0
M  END
