
     RDKit          3D

217219  0  0  0  0  0  0  0  0999 V2000
   -7.8471   -8.4659    1.2245 C   0  0  0  0  0  0  0  0  0  0  0  0
   -8.0900   -7.0845    1.7428 C   0  0  0  0  0  0  0  0  0  0  0  0
   -9.0033   -6.9044    2.5893 O   0  0  0  0  0  0  0  0  0  0  0  0
   -7.2917   -5.9642    1.3244 N   0  0  0  0  0  0  0  0  0  0  0  0
   -6.2275   -6.0274    0.3131 C   0  0  2  0  0  0  0  0  0  0  0  0
   -5.1263   -5.0208    0.6952 C   0  0  0  0  0  0  0  0  0  0  0  0
   -3.6195   -5.1930   -0.3379 S   0  0  0  0  0  0  0  0  0  0  0  0
   -2.4846   -4.3213    0.8027 C   0  0  0  0  0  0  0  0  0  0  0  0
   -1.6658   -3.3079    0.0519 C   0  0  0  0  0  0  0  0  0  0  0  0
   -0.2755   -3.4625   -0.0906 C   0  0  0  0  0  0  0  0  0  0  0  0
    0.4948   -2.4667   -0.7146 C   0  0  0  0  0  0  0  0  0  0  0  0
   -0.1264   -1.2856   -1.1330 C   0  0  0  0  0  0  0  0  0  0  0  0
   -1.5050   -1.1065   -0.9682 C   0  0  0  0  0  0  0  0  0  0  0  0
   -2.2781   -2.1343   -0.4066 C   0  0  0  0  0  0  0  0  0  0  0  0
   -2.1510    0.1999   -1.3410 C   0  0  0  0  0  0  0  0  0  0  0  0
   -3.1613    0.8564    0.0296 S   0  0  0  0  0  0  0  0  0  0  0  0
   -1.8199    1.2926    1.2208 C   0  0  0  0  0  0  0  0  0  0  0  0
   -1.3016    2.7630    1.1205 C   0  0  2  0  0  0  0  0  0  0  0  0
   -2.3925    3.6996    0.8058 N   0  0  0  0  0  0  0  0  0  0  0  0
   -2.2592    5.1254    0.8502 C   0  0  0  0  0  0  0  0  0  0  0  0
   -1.5770    5.6663    1.7613 O   0  0  0  0  0  0  0  0  0  0  0  0
   -2.9126    5.9905   -0.2024 C   0  0  1  0  0  0  0  0  0  0  0  0
   -3.1057    5.2360   -1.5275 C   0  0  0  0  0  0  0  0  0  0  0  0
   -4.1848    6.5429    0.2661 N   0  0  0  0  0  0  0  0  0  0  0  0
   -5.3159    5.7309    0.6119 C   0  0  0  0  0  0  0  0  0  0  0  0
   -5.2175    4.8853    1.5380 O   0  0  0  0  0  0  0  0  0  0  0  0
   -6.6338    5.8482   -0.1230 C   0  0  1  0  0  0  0  0  0  0  0  0
   -6.7076    7.0804   -1.0329 C   0  0  0  0  0  0  0  0  0  0  0  0
   -6.8382    4.6347   -0.9278 N   0  0  0  0  0  0  0  0  0  0  0  0
   -7.5786    3.4719   -0.5148 C   0  0  0  0  0  0  0  0  0  0  0  0
   -7.1677    2.3405   -0.8824 O   0  0  0  0  0  0  0  0  0  0  0  0
   -8.8516    3.5303    0.3111 C   0  0  1  0  0  0  0  0  0  0  0  0
   -8.5440    3.5429    1.8141 C   0  0  0  0  0  0  0  0  0  0  0  0
   -9.7033    4.6656   -0.0766 N   0  0  0  0  0  0  0  0  0  0  0  0
  -11.1085    4.7632    0.2115 C   0  0  0  0  0  0  0  0  0  0  0  0
  -11.6802    5.8733    0.0216 O   0  0  0  0  0  0  0  0  0  0  0  0
  -11.9475    3.5448    0.5472 C   0  0  1  0  0  0  0  0  0  0  0  0
  -13.2035    3.9426    1.3379 C   0  0  0  0  0  0  0  0  0  0  0  0
  -12.3427    2.8803   -0.6978 N   0  0  0  0  0  0  0  0  0  0  0  0
  -12.3648    1.4593   -0.8788 C   0  0  0  0  0  0  0  0  0  0  0  0
  -12.1316    1.0003   -2.0278 O   0  0  0  0  0  0  0  0  0  0  0  0
  -12.8309    0.5224    0.2205 C   0  0  1  0  0  0  0  0  0  0  0  0
  -14.3529    0.3590    0.1167 C   0  0  0  0  0  0  0  0  0  0  0  0
  -12.1791   -0.7909    0.1079 N   0  0  0  0  0  0  0  0  0  0  0  0
  -12.2850   -1.7916    1.1336 C   0  0  0  0  0  0  0  0  0  0  0  0
  -12.6381   -1.4690    2.3000 O   0  0  0  0  0  0  0  0  0  0  0  0
  -12.0051   -3.2355    0.8067 C   0  0  1  0  0  0  0  0  0  0  0  0
  -13.1016   -3.7352   -0.1554 C   0  0  0  0  0  0  0  0  0  0  0  0
  -10.6664   -3.3574    0.2179 N   0  0  0  0  0  0  0  0  0  0  0  0
  -10.1706   -4.5689   -0.3813 C   0  0  0  0  0  0  0  0  0  0  0  0
  -10.7168   -5.6694   -0.1053 O   0  0  0  0  0  0  0  0  0  0  0  0
   -9.0564   -4.5541   -1.4155 C   0  0  1  0  0  0  0  0  0  0  0  0
   -8.2226   -3.2530   -1.3909 C   0  0  0  0  0  0  0  0  0  0  0  0
   -8.2274   -5.7537   -1.2576 N   0  0  0  0  0  0  0  0  0  0  0  0
   -6.8066   -5.7502   -1.0551 C   0  0  0  0  0  0  0  0  0  0  0  0
   -6.0468   -5.6126   -2.0514 O   0  0  0  0  0  0  0  0  0  0  0  0
   -0.1115    2.9195    0.1750 C   0  0  0  0  0  0  0  0  0  0  0  0
    0.4342    1.9068   -0.3403 O   0  0  0  0  0  0  0  0  0  0  0  0
    0.5049    4.2024   -0.0203 N   0  0  0  0  0  0  0  0  0  0  0  0
    1.9408    4.4275    0.2205 C   0  0  2  0  0  0  0  0  0  0  0  0
    2.3432    3.9045    1.6131 C   0  0  0  0  0  0  0  0  0  0  0  0
    2.2879    5.9028    0.1496 C   0  0  0  0  0  0  0  0  0  0  0  0
    1.3731    6.7692    0.2402 O   0  0  0  0  0  0  0  0  0  0  0  0
    3.6469    6.3532    0.1199 N   0  0  0  0  0  0  0  0  0  0  0  0
    4.6371    5.8484   -0.8377 C   0  0  2  0  0  0  0  0  0  0  0  0
    5.4099    4.6550   -0.2572 C   0  0  0  0  0  0  0  0  0  0  0  0
    5.5151    6.9965   -1.3237 C   0  0  0  0  0  0  0  0  0  0  0  0
    4.9772    7.8746   -2.0488 O   0  0  0  0  0  0  0  0  0  0  0  0
    6.9318    7.0999   -1.0812 N   0  0  0  0  0  0  0  0  0  0  0  0
    7.5735    7.0570    0.2463 C   0  0  2  0  0  0  0  0  0  0  0  0
    6.9189    8.0521    1.2086 C   0  0  0  0  0  0  0  0  0  0  0  0
    9.0513    7.3852    0.1155 C   0  0  0  0  0  0  0  0  0  0  0  0
    9.3741    8.5363   -0.2918 O   0  0  0  0  0  0  0  0  0  0  0  0
   10.0963    6.4444    0.4158 N   0  0  0  0  0  0  0  0  0  0  0  0
    9.8996    5.1454    1.0728 C   0  0  2  0  0  0  0  0  0  0  0  0
    9.6154    5.3450    2.5637 C   0  0  0  0  0  0  0  0  0  0  0  0
   11.1203    4.2844    0.8860 C   0  0  0  0  0  0  0  0  0  0  0  0
   12.2170    4.6287    1.3965 O   0  0  0  0  0  0  0  0  0  0  0  0
   11.0204    3.0212    0.2160 N   0  0  0  0  0  0  0  0  0  0  0  0
   11.0941    2.8755   -1.2480 C   0  0  2  0  0  0  0  0  0  0  0  0
   10.6140    4.1293   -2.0037 C   0  0  0  0  0  0  0  0  0  0  0  0
   10.2863    1.6686   -1.6715 C   0  0  0  0  0  0  0  0  0  0  0  0
    9.0272    1.7524   -1.7351 O   0  0  0  0  0  0  0  0  0  0  0  0
   10.9163    0.4232   -1.9958 N   0  0  0  0  0  0  0  0  0  0  0  0
   11.9434   -0.1664   -1.1328 C   0  0  2  0  0  0  0  0  0  0  0  0
   12.9406   -0.9803   -1.9661 C   0  0  0  0  0  0  0  0  0  0  0  0
   11.2828   -0.9917   -0.0578 C   0  0  0  0  0  0  0  0  0  0  0  0
   11.2425   -0.5357    1.1137 O   0  0  0  0  0  0  0  0  0  0  0  0
   10.6328   -2.2373   -0.3703 N   0  0  0  0  0  0  0  0  0  0  0  0
    9.8306   -2.9705    0.6197 C   0  0  2  0  0  0  0  0  0  0  0  0
   10.7129   -3.5265    1.7442 C   0  0  0  0  0  0  0  0  0  0  0  0
    9.0913   -4.1128   -0.0303 C   0  0  0  0  0  0  0  0  0  0  0  0
    7.8294   -4.1205   -0.0451 O   0  0  0  0  0  0  0  0  0  0  0  0
    9.8220   -5.2176   -0.5803 N   0  0  0  0  0  0  0  0  0  0  0  0
    9.3749   -6.5977   -0.3723 C   0  0  2  0  0  0  0  0  0  0  0  0
   10.5816   -7.4974   -0.0839 C   0  0  0  0  0  0  0  0  0  0  0  0
    8.6487   -7.0931   -1.6038 C   0  0  0  0  0  0  0  0  0  0  0  0
    9.2455   -7.0335   -2.7159 O   0  0  0  0  0  0  0  0  0  0  0  0
    7.3160   -7.6354   -1.5634 N   0  0  0  0  0  0  0  0  0  0  0  0
    6.4894   -7.7479   -0.3564 C   0  0  2  0  0  0  0  0  0  0  0  0
    6.9143   -8.9632    0.4741 C   0  0  0  0  0  0  0  0  0  0  0  0
    5.0311   -7.8708   -0.7327 C   0  0  0  0  0  0  0  0  0  0  0  0
    4.6734   -8.8374   -1.4584 O   0  0  0  0  0  0  0  0  0  0  0  0
    4.0288   -6.9427   -0.2731 N   0  0  0  0  0  0  0  0  0  0  0  0
    4.3208   -5.6839    0.4306 C   0  0  2  0  0  0  0  0  0  0  0  0
    4.7936   -5.9636    1.8379 C   0  0  0  0  0  0  0  0  0  0  0  0
    4.0273   -6.7813    2.7216 N   0  0  0  0  0  0  0  0  0  0  0  0
    5.8713   -5.4508    2.2398 O   0  0  0  0  0  0  0  0  0  0  0  0
    3.0874   -4.7725    0.4829 C   0  0  0  0  0  0  0  0  0  0  0  0
    2.6153   -4.2127   -1.2070 S   0  0  0  0  0  0  0  0  0  0  0  0
    2.0013   -2.5444   -0.7498 C   0  0  0  0  0  0  0  0  0  0  0  0
   -7.9537   -8.4841    0.1199 H   0  0  0  0  0  0  0  0  0  0  0  0
   -6.8238   -8.7969    1.5075 H   0  0  0  0  0  0  0  0  0  0  0  0
   -8.5737   -9.1858    1.6622 H   0  0  0  0  0  0  0  0  0  0  0  0
   -7.5706   -5.0241    1.6867 H   0  0  0  0  0  0  0  0  0  0  0  0
   -5.7652   -7.0406    0.3034 H   0  0  0  0  0  0  0  0  0  0  0  0
   -5.5062   -3.9830    0.6013 H   0  0  0  0  0  0  0  0  0  0  0  0
   -4.8546   -5.2077    1.7546 H   0  0  0  0  0  0  0  0  0  0  0  0
   -1.8376   -5.0706    1.2974 H   0  0  0  0  0  0  0  0  0  0  0  0
   -3.0270   -3.7825    1.6021 H   0  0  0  0  0  0  0  0  0  0  0  0
    0.2010   -4.3298    0.3290 H   0  0  0  0  0  0  0  0  0  0  0  0
    0.4711   -0.4851   -1.5599 H   0  0  0  0  0  0  0  0  0  0  0  0
   -3.3454   -1.9960   -0.2567 H   0  0  0  0  0  0  0  0  0  0  0  0
   -1.4151    0.9601   -1.6614 H   0  0  0  0  0  0  0  0  0  0  0  0
   -2.8253    0.0190   -2.2064 H   0  0  0  0  0  0  0  0  0  0  0  0
   -2.2657    1.1670    2.2283 H   0  0  0  0  0  0  0  0  0  0  0  0
   -0.9973    0.5556    1.1717 H   0  0  0  0  0  0  0  0  0  0  0  0
   -0.9108    3.0251    2.1274 H   0  0  0  0  0  0  0  0  0  0  0  0
   -3.3686    3.3477    0.6646 H   0  0  0  0  0  0  0  0  0  0  0  0
   -2.2196    6.8392   -0.4226 H   0  0  0  0  0  0  0  0  0  0  0  0
   -2.1370    4.8412   -1.8911 H   0  0  0  0  0  0  0  0  0  0  0  0
   -3.5179    5.9225   -2.2975 H   0  0  0  0  0  0  0  0  0  0  0  0
   -3.8102    4.3859   -1.4083 H   0  0  0  0  0  0  0  0  0  0  0  0
   -4.3141    7.5808    0.2049 H   0  0  0  0  0  0  0  0  0  0  0  0
   -7.4343    5.9602    0.6293 H   0  0  0  0  0  0  0  0  0  0  0  0
   -7.7056    7.1276   -1.5237 H   0  0  0  0  0  0  0  0  0  0  0  0
   -6.5795    8.0108   -0.4380 H   0  0  0  0  0  0  0  0  0  0  0  0
   -5.9279    7.0407   -1.8253 H   0  0  0  0  0  0  0  0  0  0  0  0
   -6.2050    4.5078   -1.7510 H   0  0  0  0  0  0  0  0  0  0  0  0
   -9.4092    2.5921    0.0901 H   0  0  0  0  0  0  0  0  0  0  0  0
   -7.9381    4.4178    2.1048 H   0  0  0  0  0  0  0  0  0  0  0  0
   -9.4873    3.5694    2.4018 H   0  0  0  0  0  0  0  0  0  0  0  0
   -7.9891    2.6233    2.0895 H   0  0  0  0  0  0  0  0  0  0  0  0
   -9.2903    5.4601   -0.6144 H   0  0  0  0  0  0  0  0  0  0  0  0
  -11.3584    2.8618    1.1906 H   0  0  0  0  0  0  0  0  0  0  0  0
  -12.9217    4.5500    2.2255 H   0  0  0  0  0  0  0  0  0  0  0  0
  -13.8996    4.5336    0.7039 H   0  0  0  0  0  0  0  0  0  0  0  0
  -13.7390    3.0346    1.6942 H   0  0  0  0  0  0  0  0  0  0  0  0
  -12.5016    3.4690   -1.5472 H   0  0  0  0  0  0  0  0  0  0  0  0
  -12.5817    0.9530    1.2067 H   0  0  0  0  0  0  0  0  0  0  0  0
  -14.8462    1.3485    0.2074 H   0  0  0  0  0  0  0  0  0  0  0  0
  -14.7261   -0.2923    0.9376 H   0  0  0  0  0  0  0  0  0  0  0  0
  -14.6283   -0.0905   -0.8556 H   0  0  0  0  0  0  0  0  0  0  0  0
  -11.7712   -1.0851   -0.8085 H   0  0  0  0  0  0  0  0  0  0  0  0
  -12.0452   -3.8420    1.7329 H   0  0  0  0  0  0  0  0  0  0  0  0
  -13.0806   -4.8395   -0.2397 H   0  0  0  0  0  0  0  0  0  0  0  0
  -12.9634   -3.2910   -1.1653 H   0  0  0  0  0  0  0  0  0  0  0  0
  -14.1065   -3.4485    0.2253 H   0  0  0  0  0  0  0  0  0  0  0  0
   -9.9896   -2.5790    0.3873 H   0  0  0  0  0  0  0  0  0  0  0  0
   -9.5348   -4.6058   -2.4154 H   0  0  0  0  0  0  0  0  0  0  0  0
   -7.4297   -3.2901   -2.1671 H   0  0  0  0  0  0  0  0  0  0  0  0
   -8.8704   -2.3810   -1.6298 H   0  0  0  0  0  0  0  0  0  0  0  0
   -7.7459   -3.1097   -0.3997 H   0  0  0  0  0  0  0  0  0  0  0  0
   -8.6769   -6.6856   -1.4061 H   0  0  0  0  0  0  0  0  0  0  0  0
   -0.0709    4.9565   -0.4387 H   0  0  0  0  0  0  0  0  0  0  0  0
    2.5094    3.8806   -0.5586 H   0  0  0  0  0  0  0  0  0  0  0  0
    2.1853    2.8118    1.6716 H   0  0  0  0  0  0  0  0  0  0  0  0
    3.4126    4.1068    1.8146 H   0  0  0  0  0  0  0  0  0  0  0  0
    1.7259    4.4042    2.3948 H   0  0  0  0  0  0  0  0  0  0  0  0
    3.8256    7.2881    0.5541 H   0  0  0  0  0  0  0  0  0  0  0  0
    4.1042    5.4794   -1.7426 H   0  0  0  0  0  0  0  0  0  0  0  0
    5.6377    4.8138    0.8152 H   0  0  0  0  0  0  0  0  0  0  0  0
    6.3460    4.4685   -0.8312 H   0  0  0  0  0  0  0  0  0  0  0  0
    4.7987    3.7356   -0.3335 H   0  0  0  0  0  0  0  0  0  0  0  0
    7.4975    7.4793   -1.8809 H   0  0  0  0  0  0  0  0  0  0  0  0
    7.4503    6.0551    0.6718 H   0  0  0  0  0  0  0  0  0  0  0  0
    6.9029    9.0732    0.7681 H   0  0  0  0  0  0  0  0  0  0  0  0
    5.8804    7.7426    1.4335 H   0  0  0  0  0  0  0  0  0  0  0  0
    7.4770    8.0822    2.1682 H   0  0  0  0  0  0  0  0  0  0  0  0
   11.0701    6.7395    0.1839 H   0  0  0  0  0  0  0  0  0  0  0  0
    9.0474    4.6057    0.6106 H   0  0  0  0  0  0  0  0  0  0  0  0
    9.6376    4.3690    3.0999 H   0  0  0  0  0  0  0  0  0  0  0  0
    8.6129    5.7987    2.7206 H   0  0  0  0  0  0  0  0  0  0  0  0
   10.3773    6.0211    3.0169 H   0  0  0  0  0  0  0  0  0  0  0  0
   11.3207    2.1938    0.7797 H   0  0  0  0  0  0  0  0  0  0  0  0
   12.1549    2.7188   -1.5321 H   0  0  0  0  0  0  0  0  0  0  0  0
   10.6697    3.9544   -3.0991 H   0  0  0  0  0  0  0  0  0  0  0  0
    9.5679    4.3781   -1.7334 H   0  0  0  0  0  0  0  0  0  0  0  0
   11.2749    4.9919   -1.7635 H   0  0  0  0  0  0  0  0  0  0  0  0
   10.3900   -0.2264   -2.6255 H   0  0  0  0  0  0  0  0  0  0  0  0
   12.5367    0.6337   -0.6402 H   0  0  0  0  0  0  0  0  0  0  0  0
   13.4377   -0.3112   -2.7029 H   0  0  0  0  0  0  0  0  0  0  0  0
   12.4338   -1.7894   -2.5297 H   0  0  0  0  0  0  0  0  0  0  0  0
   13.7190   -1.4242   -1.3083 H   0  0  0  0  0  0  0  0  0  0  0  0
   10.6590   -2.5836   -1.3577 H   0  0  0  0  0  0  0  0  0  0  0  0
    9.0916   -2.2712    1.0618 H   0  0  0  0  0  0  0  0  0  0  0  0
   11.1556   -2.7091    2.3379 H   0  0  0  0  0  0  0  0  0  0  0  0
   10.0988   -4.1524    2.4305 H   0  0  0  0  0  0  0  0  0  0  0  0
   11.5309   -4.1497    1.3214 H   0  0  0  0  0  0  0  0  0  0  0  0
   10.7430   -5.0352   -1.0571 H   0  0  0  0  0  0  0  0  0  0  0  0
    8.7479   -6.6354    0.5363 H   0  0  0  0  0  0  0  0  0  0  0  0
   11.2690   -7.5412   -0.9507 H   0  0  0  0  0  0  0  0  0  0  0  0
   11.1400   -7.0975    0.7937 H   0  0  0  0  0  0  0  0  0  0  0  0
   10.2404   -8.5244    0.1608 H   0  0  0  0  0  0  0  0  0  0  0  0
    6.9282   -7.9999   -2.4651 H   0  0  0  0  0  0  0  0  0  0  0  0
    6.6290   -6.8337    0.2469 H   0  0  0  0  0  0  0  0  0  0  0  0
    7.8164   -8.7333    1.0751 H   0  0  0  0  0  0  0  0  0  0  0  0
    7.1377   -9.8188   -0.2001 H   0  0  0  0  0  0  0  0  0  0  0  0
    6.1099   -9.2698    1.1763 H   0  0  0  0  0  0  0  0  0  0  0  0
    3.0404   -7.1569   -0.5435 H   0  0  0  0  0  0  0  0  0  0  0  0
    5.1110   -5.1376   -0.1278 H   0  0  0  0  0  0  0  0  0  0  0  0
    3.1004   -7.1653    2.4305 H   0  0  0  0  0  0  0  0  0  0  0  0
    4.3999   -7.0240    3.6651 H   0  0  0  0  0  0  0  0  0  0  0  0
    2.2277   -5.3041    0.9404 H   0  0  0  0  0  0  0  0  0  0  0  0
    3.3394   -3.9043    1.1180 H   0  0  0  0  0  0  0  0  0  0  0  0
    2.3940   -2.1914    0.2200 H   0  0  0  0  0  0  0  0  0  0  0  0
    2.3968   -1.8536   -1.5244 H   0  0  0  0  0  0  0  0  0  0  0  0
  1  2  1  0
  2  3  2  0
  2  4  1  0
  4  5  1  0
  5  6  1  0
  6  7  1  0
  7  8  1  0
  8  9  1  0
  9 10  1  0
 10 11  2  0
 11 12  1  0
 12 13  2  0
 13 14  1  0
 13 15  1  0
 15 16  1  0
 16 17  1  0
 17 18  1  0
 18 19  1  0
 19 20  1  0
 20 21  2  0
 20 22  1  0
 22 23  1  0
 22 24  1  0
 24 25  1  0
 25 26  2  0
 25 27  1  0
 27 28  1  0
 27 29  1  0
 29 30  1  0
 30 31  2  0
 30 32  1  0
 32 33  1  0
 32 34  1  0
 34 35  1  0
 35 36  2  0
 35 37  1  0
 37 38  1  0
 37 39  1  0
 39 40  1  0
 40 41  2  0
 40 42  1  0
 42 43  1  0
 42 44  1  0
 44 45  1  0
 45 46  2  0
 45 47  1  0
 47 48  1  0
 47 49  1  0
 49 50  1  0
 50 51  2  0
 50 52  1  0
 52 53  1  0
 52 54  1  0
 54 55  1  0
 55 56  2  0
 18 57  1  0
 57 58  2  0
 57 59  1  0
 59 60  1  0
 60 61  1  0
 60 62  1  0
 62 63  2  0
 62 64  1  0
 64 65  1  0
 65 66  1  0
 65 67  1  0
 67 68  2  0
 67 69  1  0
 69 70  1  0
 70 71  1  0
 70 72  1  0
 72 73  2  0
 72 74  1  0
 74 75  1  0
 75 76  1  0
 75 77  1  0
 77 78  2  0
 77 79  1  0
 79 80  1  0
 80 81  1  0
 80 82  1  0
 82 83  2  0
 82 84  1  0
 84 85  1  0
 85 86  1  0
 85 87  1  0
 87 88  2  0
 87 89  1  0
 89 90  1  0
 90 91  1  0
 90 92  1  0
 92 93  2  0
 92 94  1  0
 94 95  1  0
 95 96  1  0
 95 97  1  0
 97 98  2  0
 97 99  1  0
 99100  1  0
100101  1  0
100102  1  0
102103  2  0
102104  1  0
104105  1  0
105106  1  0
106107  1  0
106108  2  0
105109  1  0
109110  1  0
110111  1  0
 55  5  1  0
 14  9  2  0
111 11  1  0
  1112  1  0
  1113  1  0
  1114  1  0
  4115  1  0
  5116  1  6
  6117  1  0
  6118  1  0
  8119  1  0
  8120  1  0
 10121  1  0
 12122  1  0
 14123  1  0
 15124  1  0
 15125  1  0
 17126  1  0
 17127  1  0
 18128  1  1
 19129  1  0
 22130  1  6
 23131  1  0
 23132  1  0
 23133  1  0
 24134  1  0
 27135  1  1
 28136  1  0
 28137  1  0
 28138  1  0
 29139  1  0
 32140  1  1
 33141  1  0
 33142  1  0
 33143  1  0
 34144  1  0
 37145  1  1
 38146  1  0
 38147  1  0
 38148  1  0
 39149  1  0
 42150  1  1
 43151  1  0
 43152  1  0
 43153  1  0
 44154  1  0
 47155  1  1
 48156  1  0
 48157  1  0
 48158  1  0
 49159  1  0
 52160  1  6
 53161  1  0
 53162  1  0
 53163  1  0
 54164  1  0
 59165  1  0
 60166  1  6
 61167  1  0
 61168  1  0
 61169  1  0
 64170  1  0
 65171  1  6
 66172  1  0
 66173  1  0
 66174  1  0
 69175  1  0
 70176  1  1
 71177  1  0
 71178  1  0
 71179  1  0
 74180  1  0
 75181  1  6
 76182  1  0
 76183  1  0
 76184  1  0
 79185  1  0
 80186  1  1
 81187  1  0
 81188  1  0
 81189  1  0
 84190  1  0
 85191  1  1
 86192  1  0
 86193  1  0
 86194  1  0
 89195  1  0
 90196  1  1
 91197  1  0
 91198  1  0
 91199  1  0
 94200  1  0
 95201  1  1
 96202  1  0
 96203  1  0
 96204  1  0
 99205  1  0
100206  1  1
101207  1  0
101208  1  0
101209  1  0
104210  1  0
105211  1  6
107212  1  0
107213  1  0
109214  1  0
109215  1  0
111216  1  0
111217  1  0
M  END
