
     RDKit          3D

217219  0  0  0  0  0  0  0  0999 V2000
   -7.2102   -3.8454    2.5250 C   0  0  0  0  0  0  0  0  0  0  0  0
   -6.7818   -5.2575    2.2672 C   0  0  0  0  0  0  0  0  0  0  0  0
   -6.8797   -6.0946    3.2024 O   0  0  0  0  0  0  0  0  0  0  0  0
   -6.2830   -5.6919    0.9914 N   0  0  0  0  0  0  0  0  0  0  0  0
   -5.7544   -4.8073   -0.0538 C   0  0  1  0  0  0  0  0  0  0  0  0
   -4.2178   -4.7683    0.0471 C   0  0  0  0  0  0  0  0  0  0  0  0
   -3.6759   -3.9614    1.5968 S   0  0  0  0  0  0  0  0  0  0  0  0
   -1.9731   -4.6329    1.5928 C   0  0  0  0  0  0  0  0  0  0  0  0
   -1.1913   -4.1724    0.3923 C   0  0  0  0  0  0  0  0  0  0  0  0
   -0.6316   -5.1073   -0.4925 C   0  0  0  0  0  0  0  0  0  0  0  0
    0.1559   -4.6797   -1.5746 C   0  0  0  0  0  0  0  0  0  0  0  0
    0.3316   -3.3078   -1.7997 C   0  0  0  0  0  0  0  0  0  0  0  0
   -0.2532   -2.3606   -0.9443 C   0  0  0  0  0  0  0  0  0  0  0  0
   -0.9653   -2.8039    0.1820 C   0  0  0  0  0  0  0  0  0  0  0  0
    0.0163   -0.8952   -1.1530 C   0  0  0  0  0  0  0  0  0  0  0  0
   -1.5167    0.0956   -0.9474 S   0  0  0  0  0  0  0  0  0  0  0  0
   -0.7435    1.3945    0.0790 C   0  0  0  0  0  0  0  0  0  0  0  0
   -1.7758    2.4369    0.5274 C   0  0  2  0  0  0  0  0  0  0  0  0
   -2.3509    3.1329   -0.6286 N   0  0  0  0  0  0  0  0  0  0  0  0
   -3.7541    3.0960   -0.9303 C   0  0  0  0  0  0  0  0  0  0  0  0
   -4.1398    2.4990   -1.9705 O   0  0  0  0  0  0  0  0  0  0  0  0
   -4.7779    3.8057   -0.0711 C   0  0  1  0  0  0  0  0  0  0  0  0
   -5.1291    3.0045    1.1838 C   0  0  0  0  0  0  0  0  0  0  0  0
   -4.2880    5.1364    0.3050 N   0  0  0  0  0  0  0  0  0  0  0  0
   -5.0288    6.3490    0.1175 C   0  0  0  0  0  0  0  0  0  0  0  0
   -4.3910    7.4273   -0.0350 O   0  0  0  0  0  0  0  0  0  0  0  0
   -6.5456    6.3744    0.1045 C   0  0  1  0  0  0  0  0  0  0  0  0
   -7.0479    7.5355    0.9728 C   0  0  0  0  0  0  0  0  0  0  0  0
   -7.0324    6.5093   -1.2775 N   0  0  0  0  0  0  0  0  0  0  0  0
   -8.4014    6.3830   -1.7117 C   0  0  0  0  0  0  0  0  0  0  0  0
   -8.6844    6.7101   -2.8966 O   0  0  0  0  0  0  0  0  0  0  0  0
   -9.5191    5.8744   -0.8161 C   0  0  1  0  0  0  0  0  0  0  0  0
  -10.5291    7.0003   -0.5615 C   0  0  0  0  0  0  0  0  0  0  0  0
  -10.2023    4.7339   -1.4456 N   0  0  0  0  0  0  0  0  0  0  0  0
  -11.2289    3.9629   -0.7975 C   0  0  0  0  0  0  0  0  0  0  0  0
  -12.1792    3.5210   -1.4968 O   0  0  0  0  0  0  0  0  0  0  0  0
  -11.1360    3.5638    0.6645 C   0  0  1  0  0  0  0  0  0  0  0  0
  -12.5031    3.5902    1.3597 C   0  0  0  0  0  0  0  0  0  0  0  0
  -10.4961    2.2450    0.7868 N   0  0  0  0  0  0  0  0  0  0  0  0
  -10.9674    1.0629    0.1107 C   0  0  0  0  0  0  0  0  0  0  0  0
  -12.1796    0.9763   -0.2227 O   0  0  0  0  0  0  0  0  0  0  0  0
  -10.0597   -0.1100   -0.1934 C   0  0  1  0  0  0  0  0  0  0  0  0
   -8.5866    0.2871   -0.3307 C   0  0  0  0  0  0  0  0  0  0  0  0
  -10.2052   -1.1327    0.8445 N   0  0  0  0  0  0  0  0  0  0  0  0
  -10.7747   -2.4481    0.6876 C   0  0  0  0  0  0  0  0  0  0  0  0
  -10.8480   -3.1830    1.7105 O   0  0  0  0  0  0  0  0  0  0  0  0
  -11.3435   -2.9982   -0.6072 C   0  0  1  0  0  0  0  0  0  0  0  0
  -12.6351   -2.2843   -1.0330 C   0  0  0  0  0  0  0  0  0  0  0  0
  -10.3505   -3.0077   -1.6907 N   0  0  0  0  0  0  0  0  0  0  0  0
   -9.6265   -4.1977   -2.0344 C   0  0  0  0  0  0  0  0  0  0  0  0
   -9.7449   -4.6604   -3.1991 O   0  0  0  0  0  0  0  0  0  0  0  0
   -8.7256   -4.8912   -1.0389 C   0  0  1  0  0  0  0  0  0  0  0  0
   -9.4830   -5.9793   -0.2768 C   0  0  0  0  0  0  0  0  0  0  0  0
   -7.5907   -5.5058   -1.7434 N   0  0  0  0  0  0  0  0  0  0  0  0
   -6.2034   -5.3227   -1.4108 C   0  0  0  0  0  0  0  0  0  0  0  0
   -5.3402   -5.6579   -2.2684 O   0  0  0  0  0  0  0  0  0  0  0  0
   -1.1366    3.4208    1.4708 C   0  0  0  0  0  0  0  0  0  0  0  0
   -1.6490    3.6226    2.6021 O   0  0  0  0  0  0  0  0  0  0  0  0
    0.1098    4.0517    1.1458 N   0  0  0  0  0  0  0  0  0  0  0  0
    0.1925    5.1782    0.2207 C   0  0  2  0  0  0  0  0  0  0  0  0
    1.0629    4.8116   -0.9810 C   0  0  0  0  0  0  0  0  0  0  0  0
    0.7167    6.3945    0.9401 C   0  0  0  0  0  0  0  0  0  0  0  0
    0.0402    7.4596    0.9089 O   0  0  0  0  0  0  0  0  0  0  0  0
    1.8983    6.3444    1.7571 N   0  0  0  0  0  0  0  0  0  0  0  0
    3.2638    6.6057    1.2651 C   0  0  2  0  0  0  0  0  0  0  0  0
    3.2483    7.6383    0.1223 C   0  0  0  0  0  0  0  0  0  0  0  0
    3.9566    5.3024    0.9188 C   0  0  0  0  0  0  0  0  0  0  0  0
    3.6928    4.2755    1.6048 O   0  0  0  0  0  0  0  0  0  0  0  0
    4.8940    5.1784   -0.1647 N   0  0  0  0  0  0  0  0  0  0  0  0
    6.0969    6.0087   -0.2745 C   0  0  2  0  0  0  0  0  0  0  0  0
    6.1861    6.5962   -1.6874 C   0  0  0  0  0  0  0  0  0  0  0  0
    7.3250    5.2073    0.1082 C   0  0  0  0  0  0  0  0  0  0  0  0
    7.4471    4.8077    1.2969 O   0  0  0  0  0  0  0  0  0  0  0  0
    8.3728    4.9330   -0.8361 N   0  0  0  0  0  0  0  0  0  0  0  0
    9.7936    5.0563   -0.4766 C   0  0  2  0  0  0  0  0  0  0  0  0
   10.0894    6.4886   -0.0115 C   0  0  0  0  0  0  0  0  0  0  0  0
   10.6669    4.7352   -1.6767 C   0  0  0  0  0  0  0  0  0  0  0  0
   10.4823    5.3896   -2.7425 O   0  0  0  0  0  0  0  0  0  0  0  0
   11.6774    3.7113   -1.6735 N   0  0  0  0  0  0  0  0  0  0  0  0
   12.0899    2.9118   -0.5124 C   0  0  2  0  0  0  0  0  0  0  0  0
   12.9149    3.7652    0.4556 C   0  0  0  0  0  0  0  0  0  0  0  0
   12.9228    1.7234   -0.9674 C   0  0  0  0  0  0  0  0  0  0  0  0
   13.9982    1.9482   -1.5886 O   0  0  0  0  0  0  0  0  0  0  0  0
   12.5447    0.3554   -0.7288 N   0  0  0  0  0  0  0  0  0  0  0  0
   11.3395   -0.0714   -0.0008 C   0  0  2  0  0  0  0  0  0  0  0  0
   11.5345    0.0985    1.5104 C   0  0  0  0  0  0  0  0  0  0  0  0
   11.0009   -1.5073   -0.3232 C   0  0  0  0  0  0  0  0  0  0  0  0
    9.9361   -1.7583   -0.9417 O   0  0  0  0  0  0  0  0  0  0  0  0
   11.8374   -2.5793    0.1367 N   0  0  0  0  0  0  0  0  0  0  0  0
   11.2737   -3.8506    0.6069 C   0  0  2  0  0  0  0  0  0  0  0  0
   12.2890   -4.5893    1.4834 C   0  0  0  0  0  0  0  0  0  0  0  0
   10.8746   -4.7275   -0.5550 C   0  0  0  0  0  0  0  0  0  0  0  0
   11.7280   -4.9988   -1.4459 O   0  0  0  0  0  0  0  0  0  0  0  0
    9.5967   -5.3790   -0.5931 N   0  0  0  0  0  0  0  0  0  0  0  0
    8.3581   -4.6463   -0.8844 C   0  0  2  0  0  0  0  0  0  0  0  0
    7.7952   -3.9577    0.3660 C   0  0  0  0  0  0  0  0  0  0  0  0
    7.3345   -5.5543   -1.5453 C   0  0  0  0  0  0  0  0  0  0  0  0
    6.9600   -5.2653   -2.7150 O   0  0  0  0  0  0  0  0  0  0  0  0
    6.8357   -6.7711   -0.9544 N   0  0  0  0  0  0  0  0  0  0  0  0
    6.8648   -7.0858    0.4751 C   0  0  2  0  0  0  0  0  0  0  0  0
    6.8185   -8.6013    0.7048 C   0  0  0  0  0  0  0  0  0  0  0  0
    5.7401   -6.3790    1.1991 C   0  0  0  0  0  0  0  0  0  0  0  0
    5.9811   -5.8519    2.3179 O   0  0  0  0  0  0  0  0  0  0  0  0
    4.4230   -6.2415    0.6395 N   0  0  0  0  0  0  0  0  0  0  0  0
    3.6448   -7.3837    0.1452 C   0  0  1  0  0  0  0  0  0  0  0  0
    3.3470   -8.3411    1.2781 C   0  0  0  0  0  0  0  0  0  0  0  0
    2.9030   -9.6661    1.0005 N   0  0  0  0  0  0  0  0  0  0  0  0
    3.4963   -7.9756    2.4711 O   0  0  0  0  0  0  0  0  0  0  0  0
    2.3224   -6.9196   -0.4879 C   0  0  0  0  0  0  0  0  0  0  0  0
    2.6287   -5.8133   -1.9125 S   0  0  0  0  0  0  0  0  0  0  0  0
    0.8776   -5.6801   -2.4312 C   0  0  0  0  0  0  0  0  0  0  0  0
   -8.0653   -3.5831    1.8728 H   0  0  0  0  0  0  0  0  0  0  0  0
   -6.3755   -3.1372    2.3445 H   0  0  0  0  0  0  0  0  0  0  0  0
   -7.5413   -3.7291    3.5822 H   0  0  0  0  0  0  0  0  0  0  0  0
   -6.1181   -6.7181    0.8792 H   0  0  0  0  0  0  0  0  0  0  0  0
   -6.1435   -3.7734    0.0609 H   0  0  0  0  0  0  0  0  0  0  0  0
   -3.8050   -4.1841   -0.8021 H   0  0  0  0  0  0  0  0  0  0  0  0
   -3.8238   -5.8064   -0.0077 H   0  0  0  0  0  0  0  0  0  0  0  0
   -1.4612   -4.2773    2.5127 H   0  0  0  0  0  0  0  0  0  0  0  0
   -2.0228   -5.7435    1.6487 H   0  0  0  0  0  0  0  0  0  0  0  0
   -0.7858   -6.1648   -0.3243 H   0  0  0  0  0  0  0  0  0  0  0  0
    0.9448   -2.9809   -2.6312 H   0  0  0  0  0  0  0  0  0  0  0  0
   -1.3606   -2.0845    0.8928 H   0  0  0  0  0  0  0  0  0  0  0  0
    0.8129   -0.5878   -0.4416 H   0  0  0  0  0  0  0  0  0  0  0  0
    0.3964   -0.7057   -2.1817 H   0  0  0  0  0  0  0  0  0  0  0  0
    0.0730    1.8754   -0.5021 H   0  0  0  0  0  0  0  0  0  0  0  0
   -0.3063    0.9154    0.9825 H   0  0  0  0  0  0  0  0  0  0  0  0
   -2.5767    1.8900    1.0711 H   0  0  0  0  0  0  0  0  0  0  0  0
   -1.7136    3.4227   -1.4012 H   0  0  0  0  0  0  0  0  0  0  0  0
   -5.7067    3.8983   -0.6763 H   0  0  0  0  0  0  0  0  0  0  0  0
   -5.3281    1.9402    0.9277 H   0  0  0  0  0  0  0  0  0  0  0  0
   -6.0436    3.4283    1.6548 H   0  0  0  0  0  0  0  0  0  0  0  0
   -4.3139    3.0607    1.9356 H   0  0  0  0  0  0  0  0  0  0  0  0
   -3.3208    5.2212    0.6934 H   0  0  0  0  0  0  0  0  0  0  0  0
   -6.9168    5.4269    0.5421 H   0  0  0  0  0  0  0  0  0  0  0  0
   -6.5408    7.5237    1.9656 H   0  0  0  0  0  0  0  0  0  0  0  0
   -6.8442    8.5116    0.4781 H   0  0  0  0  0  0  0  0  0  0  0  0
   -8.1371    7.4455    1.1598 H   0  0  0  0  0  0  0  0  0  0  0  0
   -6.3435    6.7845   -2.0146 H   0  0  0  0  0  0  0  0  0  0  0  0
   -9.0957    5.5524    0.1479 H   0  0  0  0  0  0  0  0  0  0  0  0
  -11.0452    7.2763   -1.5080 H   0  0  0  0  0  0  0  0  0  0  0  0
  -10.0252    7.9035   -0.1566 H   0  0  0  0  0  0  0  0  0  0  0  0
  -11.2920    6.6705    0.1755 H   0  0  0  0  0  0  0  0  0  0  0  0
  -10.1516    4.6424   -2.4838 H   0  0  0  0  0  0  0  0  0  0  0  0
  -10.5104    4.2981    1.2126 H   0  0  0  0  0  0  0  0  0  0  0  0
  -12.3992    3.2421    2.4117 H   0  0  0  0  0  0  0  0  0  0  0  0
  -13.2446    2.9466    0.8466 H   0  0  0  0  0  0  0  0  0  0  0  0
  -12.8968    4.6268    1.3796 H   0  0  0  0  0  0  0  0  0  0  0  0
   -9.5847    2.2074    1.2938 H   0  0  0  0  0  0  0  0  0  0  0  0
  -10.3547   -0.5014   -1.1807 H   0  0  0  0  0  0  0  0  0  0  0  0
   -8.4809    1.1375   -1.0408 H   0  0  0  0  0  0  0  0  0  0  0  0
   -8.1473    0.5702    0.6500 H   0  0  0  0  0  0  0  0  0  0  0  0
   -8.0059   -0.5747   -0.7238 H   0  0  0  0  0  0  0  0  0  0  0  0
   -9.8943   -0.8682    1.8083 H   0  0  0  0  0  0  0  0  0  0  0  0
  -11.6646   -4.0464   -0.4190 H   0  0  0  0  0  0  0  0  0  0  0  0
  -13.3415   -2.2213   -0.1759 H   0  0  0  0  0  0  0  0  0  0  0  0
  -13.1297   -2.8624   -1.8412 H   0  0  0  0  0  0  0  0  0  0  0  0
  -12.4479   -1.2668   -1.4210 H   0  0  0  0  0  0  0  0  0  0  0  0
  -10.4818   -2.3287   -2.4736 H   0  0  0  0  0  0  0  0  0  0  0  0
   -8.3661   -4.1315   -0.3182 H   0  0  0  0  0  0  0  0  0  0  0  0
   -8.7727   -6.6119    0.2961 H   0  0  0  0  0  0  0  0  0  0  0  0
  -10.0482   -6.6308   -0.9786 H   0  0  0  0  0  0  0  0  0  0  0  0
  -10.1845   -5.5289    0.4529 H   0  0  0  0  0  0  0  0  0  0  0  0
   -7.8007   -6.1463   -2.5435 H   0  0  0  0  0  0  0  0  0  0  0  0
    0.9538    3.7668    1.6889 H   0  0  0  0  0  0  0  0  0  0  0  0
   -0.8212    5.4194   -0.1711 H   0  0  0  0  0  0  0  0  0  0  0  0
    2.0491    4.4264   -0.6599 H   0  0  0  0  0  0  0  0  0  0  0  0
    0.5709    4.0173   -1.5773 H   0  0  0  0  0  0  0  0  0  0  0  0
    1.2045    5.6960   -1.6387 H   0  0  0  0  0  0  0  0  0  0  0  0
    1.7450    6.4613    2.7848 H   0  0  0  0  0  0  0  0  0  0  0  0
    3.8436    7.0526    2.1015 H   0  0  0  0  0  0  0  0  0  0  0  0
    4.2346    8.1305    0.0216 H   0  0  0  0  0  0  0  0  0  0  0  0
    2.9673    7.1620   -0.8395 H   0  0  0  0  0  0  0  0  0  0  0  0
    2.5274    8.4506    0.3465 H   0  0  0  0  0  0  0  0  0  0  0  0
    4.8698    4.2892   -0.7182 H   0  0  0  0  0  0  0  0  0  0  0  0
    6.0421    6.8569    0.4408 H   0  0  0  0  0  0  0  0  0  0  0  0
    7.1215    7.1836   -1.8019 H   0  0  0  0  0  0  0  0  0  0  0  0
    6.1569    5.7921   -2.4525 H   0  0  0  0  0  0  0  0  0  0  0  0
    5.3303    7.2724   -1.8795 H   0  0  0  0  0  0  0  0  0  0  0  0
    8.1131    4.7319   -1.8281 H   0  0  0  0  0  0  0  0  0  0  0  0
    9.9994    4.3721    0.3716 H   0  0  0  0  0  0  0  0  0  0  0  0
   11.1746    6.6161    0.1931 H   0  0  0  0  0  0  0  0  0  0  0  0
    9.7828    7.2196   -0.7912 H   0  0  0  0  0  0  0  0  0  0  0  0
    9.5342    6.7139    0.9231 H   0  0  0  0  0  0  0  0  0  0  0  0
   12.1586    3.5398   -2.5883 H   0  0  0  0  0  0  0  0  0  0  0  0
   11.1859    2.5642    0.0122 H   0  0  0  0  0  0  0  0  0  0  0  0
   13.7985    4.1885   -0.0647 H   0  0  0  0  0  0  0  0  0  0  0  0
   12.3086    4.5967    0.8630 H   0  0  0  0  0  0  0  0  0  0  0  0
   13.2637    3.1447    1.3089 H   0  0  0  0  0  0  0  0  0  0  0  0
   13.1787   -0.3783   -1.1162 H   0  0  0  0  0  0  0  0  0  0  0  0
   10.4767    0.5463   -0.3299 H   0  0  0  0  0  0  0  0  0  0  0  0
   10.6356   -0.2703    2.0499 H   0  0  0  0  0  0  0  0  0  0  0  0
   11.6801    1.1651    1.7743 H   0  0  0  0  0  0  0  0  0  0  0  0
   12.4238   -0.4695    1.8556 H   0  0  0  0  0  0  0  0  0  0  0  0
   12.8506   -2.3773    0.3154 H   0  0  0  0  0  0  0  0  0  0  0  0
   10.3929   -3.6384    1.2462 H   0  0  0  0  0  0  0  0  0  0  0  0
   13.2023   -4.8437    0.9028 H   0  0  0  0  0  0  0  0  0  0  0  0
   11.8458   -5.5268    1.8849 H   0  0  0  0  0  0  0  0  0  0  0  0
   12.5813   -3.9492    2.3438 H   0  0  0  0  0  0  0  0  0  0  0  0
    9.6174   -6.4079   -0.7813 H   0  0  0  0  0  0  0  0  0  0  0  0
    8.5968   -3.8445   -1.6202 H   0  0  0  0  0  0  0  0  0  0  0  0
    8.0031   -4.5458    1.2807 H   0  0  0  0  0  0  0  0  0  0  0  0
    6.7042   -3.7855    0.2665 H   0  0  0  0  0  0  0  0  0  0  0  0
    8.2649   -2.9663    0.5094 H   0  0  0  0  0  0  0  0  0  0  0  0
    6.2981   -7.4076   -1.5862 H   0  0  0  0  0  0  0  0  0  0  0  0
    7.8336   -6.7607    0.9067 H   0  0  0  0  0  0  0  0  0  0  0  0
    6.8124   -8.8233    1.7948 H   0  0  0  0  0  0  0  0  0  0  0  0
    7.7193   -9.0739    0.2561 H   0  0  0  0  0  0  0  0  0  0  0  0
    5.9242   -9.0691    0.2454 H   0  0  0  0  0  0  0  0  0  0  0  0
    3.9011   -5.3730    0.9120 H   0  0  0  0  0  0  0  0  0  0  0  0
    4.2209   -7.9122   -0.6404 H   0  0  0  0  0  0  0  0  0  0  0  0
    2.7894  -10.3493    1.7794 H   0  0  0  0  0  0  0  0  0  0  0  0
    2.6970   -9.9720    0.0247 H   0  0  0  0  0  0  0  0  0  0  0  0
    1.7691   -7.8090   -0.8511 H   0  0  0  0  0  0  0  0  0  0  0  0
    1.7086   -6.3897    0.2685 H   0  0  0  0  0  0  0  0  0  0  0  0
    0.3796   -6.6748   -2.3923 H   0  0  0  0  0  0  0  0  0  0  0  0
    0.8509   -5.3486   -3.4916 H   0  0  0  0  0  0  0  0  0  0  0  0
  1  2  1  0
  2  3  2  0
  2  4  1  0
  4  5  1  0
  5  6  1  0
  6  7  1  0
  7  8  1  0
  8  9  1  0
  9 10  1  0
 10 11  2  0
 11 12  1  0
 12 13  2  0
 13 14  1  0
 13 15  1  0
 15 16  1  0
 16 17  1  0
 17 18  1  0
 18 19  1  0
 19 20  1  0
 20 21  2  0
 20 22  1  0
 22 23  1  0
 22 24  1  0
 24 25  1  0
 25 26  2  0
 25 27  1  0
 27 28  1  0
 27 29  1  0
 29 30  1  0
 30 31  2  0
 30 32  1  0
 32 33  1  0
 32 34  1  0
 34 35  1  0
 35 36  2  0
 35 37  1  0
 37 38  1  0
 37 39  1  0
 39 40  1  0
 40 41  2  0
 40 42  1  0
 42 43  1  0
 42 44  1  0
 44 45  1  0
 45 46  2  0
 45 47  1  0
 47 48  1  0
 47 49  1  0
 49 50  1  0
 50 51  2  0
 50 52  1  0
 52 53  1  0
 52 54  1  0
 54 55  1  0
 55 56  2  0
 18 57  1  0
 57 58  2  0
 57 59  1  0
 59 60  1  0
 60 61  1  0
 60 62  1  0
 62 63  2  0
 62 64  1  0
 64 65  1  0
 65 66  1  0
 65 67  1  0
 67 68  2  0
 67 69  1  0
 69 70  1  0
 70 71  1  0
 70 72  1  0
 72 73  2  0
 72 74  1  0
 74 75  1  0
 75 76  1  0
 75 77  1  0
 77 78  2  0
 77 79  1  0
 79 80  1  0
 80 81  1  0
 80 82  1  0
 82 83  2  0
 82 84  1  0
 84 85  1  0
 85 86  1  0
 85 87  1  0
 87 88  2  0
 87 89  1  0
 89 90  1  0
 90 91  1  0
 90 92  1  0
 92 93  2  0
 92 94  1  0
 94 95  1  0
 95 96  1  0
 95 97  1  0
 97 98  2  0
 97 99  1  0
 99100  1  0
100101  1  0
100102  1  0
102103  2  0
102104  1  0
104105  1  0
105106  1  0
106107  1  0
106108  2  0
105109  1  0
109110  1  0
110111  1  0
 55  5  1  0
 14  9  2  0
111 11  1  0
  1112  1  0
  1113  1  0
  1114  1  0
  4115  1  0
  5116  1  1
  6117  1  0
  6118  1  0
  8119  1  0
  8120  1  0
 10121  1  0
 12122  1  0
 14123  1  0
 15124  1  0
 15125  1  0
 17126  1  0
 17127  1  0
 18128  1  1
 19129  1  0
 22130  1  6
 23131  1  0
 23132  1  0
 23133  1  0
 24134  1  0
 27135  1  1
 28136  1  0
 28137  1  0
 28138  1  0
 29139  1  0
 32140  1  1
 33141  1  0
 33142  1  0
 33143  1  0
 34144  1  0
 37145  1  1
 38146  1  0
 38147  1  0
 38148  1  0
 39149  1  0
 42150  1  6
 43151  1  0
 43152  1  0
 43153  1  0
 44154  1  0
 47155  1  1
 48156  1  0
 48157  1  0
 48158  1  0
 49159  1  0
 52160  1  1
 53161  1  0
 53162  1  0
 53163  1  0
 54164  1  0
 59165  1  0
 60166  1  6
 61167  1  0
 61168  1  0
 61169  1  0
 64170  1  0
 65171  1  1
 66172  1  0
 66173  1  0
 66174  1  0
 69175  1  0
 70176  1  1
 71177  1  0
 71178  1  0
 71179  1  0
 74180  1  0
 75181  1  1
 76182  1  0
 76183  1  0
 76184  1  0
 79185  1  0
 80186  1  1
 81187  1  0
 81188  1  0
 81189  1  0
 84190  1  0
 85191  1  6
 86192  1  0
 86193  1  0
 86194  1  0
 89195  1  0
 90196  1  1
 91197  1  0
 91198  1  0
 91199  1  0
 94200  1  0
 95201  1  6
 96202  1  0
 96203  1  0
 96204  1  0
 99205  1  0
100206  1  1
101207  1  0
101208  1  0
101209  1  0
104210  1  0
105211  1  6
107212  1  0
107213  1  0
109214  1  0
109215  1  0
111216  1  0
111217  1  0
M  END
