
     RDKit          3D

227229  0  0  0  0  0  0  0  0999 V2000
    8.1636   -6.0343    3.9236 C   0  0  0  0  0  0  0  0  0  0  0  0
    8.3271   -4.6138    3.4861 C   0  0  0  0  0  0  0  0  0  0  0  0
    8.7107   -3.7551    4.3294 O   0  0  0  0  0  0  0  0  0  0  0  0
    8.0725   -4.2027    2.1314 N   0  0  0  0  0  0  0  0  0  0  0  0
    7.2656   -4.9925    1.1924 C   0  0  1  0  0  0  0  0  0  0  0  0
    6.7581   -4.1389    0.0140 C   0  0  0  0  0  0  0  0  0  0  0  0
    5.3626   -3.0810    0.5679 S   0  0  0  0  0  0  0  0  0  0  0  0
    4.8230   -2.5477   -1.0950 C   0  0  0  0  0  0  0  0  0  0  0  0
    3.3761   -2.1159   -1.0302 C   0  0  0  0  0  0  0  0  0  0  0  0
    2.3512   -3.0499   -1.2718 C   0  0  0  0  0  0  0  0  0  0  0  0
    0.9957   -2.6693   -1.1837 C   0  0  0  0  0  0  0  0  0  0  0  0
    0.6794   -1.3540   -0.8068 C   0  0  0  0  0  0  0  0  0  0  0  0
    1.6881   -0.4131   -0.5504 C   0  0  0  0  0  0  0  0  0  0  0  0
    3.0377   -0.7938   -0.6801 C   0  0  0  0  0  0  0  0  0  0  0  0
    1.3302    0.9531   -0.0164 C   0  0  0  0  0  0  0  0  0  0  0  0
    0.1926    1.8352   -1.1414 S   0  0  0  0  0  0  0  0  0  0  0  0
    1.4192    2.3544   -2.4075 C   0  0  0  0  0  0  0  0  0  0  0  0
    2.2055    3.6622   -2.0916 C   0  0  2  0  0  0  0  0  0  0  0  0
    1.8484    4.2723   -0.8032 N   0  0  0  0  0  0  0  0  0  0  0  0
    2.7078    4.5000    0.3395 C   0  0  0  0  0  0  0  0  0  0  0  0
    2.1532    4.8138    1.4266 O   0  0  0  0  0  0  0  0  0  0  0  0
    4.2254    4.4298    0.3188 C   0  0  1  0  0  0  0  0  0  0  0  0
    4.7624    2.9923    0.3051 C   0  0  0  0  0  0  0  0  0  0  0  0
    4.8054    5.2421   -0.7555 N   0  0  0  0  0  0  0  0  0  0  0  0
    5.4115    6.5264   -0.5485 C   0  0  0  0  0  0  0  0  0  0  0  0
    5.0300    7.5006   -1.2576 O   0  0  0  0  0  0  0  0  0  0  0  0
    6.5436    6.7469    0.4289 C   0  0  1  0  0  0  0  0  0  0  0  0
    6.0469    7.3431    1.7454 C   0  0  0  0  0  0  0  0  0  0  0  0
    7.2910    5.5099    0.6648 N   0  0  0  0  0  0  0  0  0  0  0  0
    8.2177    5.0219   -0.3098 C   0  0  0  0  0  0  0  0  0  0  0  0
    7.7788    4.4022   -1.3198 O   0  0  0  0  0  0  0  0  0  0  0  0
    9.6947    5.3254   -0.1916 C   0  0  1  0  0  0  0  0  0  0  0  0
   10.1406    5.5346    1.2564 C   0  0  0  0  0  0  0  0  0  0  0  0
   10.5115    4.3036   -0.8605 N   0  0  0  0  0  0  0  0  0  0  0  0
   10.3133    2.8859   -0.7160 C   0  0  0  0  0  0  0  0  0  0  0  0
   10.0535    2.2033   -1.7455 O   0  0  0  0  0  0  0  0  0  0  0  0
   10.4153    2.1963    0.6202 C   0  0  1  0  0  0  0  0  0  0  0  0
    9.0092    1.8696    1.1400 C   0  0  0  0  0  0  0  0  0  0  0  0
   11.2002    0.9615    0.4928 N   0  0  0  0  0  0  0  0  0  0  0  0
   11.4581    0.0932    1.6077 C   0  0  0  0  0  0  0  0  0  0  0  0
   11.6110    0.5872    2.7579 O   0  0  0  0  0  0  0  0  0  0  0  0
   11.5554   -1.3973    1.3942 C   0  0  1  0  0  0  0  0  0  0  0  0
   11.1365   -2.1820    2.6395 C   0  0  0  0  0  0  0  0  0  0  0  0
   10.7086   -1.7886    0.2676 N   0  0  0  0  0  0  0  0  0  0  0  0
   11.2224   -2.1184   -1.0290 C   0  0  0  0  0  0  0  0  0  0  0  0
   10.6890   -1.5949   -2.0528 O   0  0  0  0  0  0  0  0  0  0  0  0
   12.3502   -3.1031   -1.2262 C   0  0  1  0  0  0  0  0  0  0  0  0
   13.6809   -2.3667   -1.4315 C   0  0  0  0  0  0  0  0  0  0  0  0
   12.4260   -4.0533   -0.1108 N   0  0  0  0  0  0  0  0  0  0  0  0
   11.5499   -5.1828    0.0615 C   0  0  0  0  0  0  0  0  0  0  0  0
   12.0174   -6.2214    0.6077 O   0  0  0  0  0  0  0  0  0  0  0  0
   10.0776   -5.1570   -0.3455 C   0  0  1  0  0  0  0  0  0  0  0  0
    9.8991   -5.2715   -1.8714 C   0  0  0  0  0  0  0  0  0  0  0  0
    9.3552   -6.2722    0.2831 N   0  0  0  0  0  0  0  0  0  0  0  0
    7.9896   -6.2460    0.7348 C   0  0  0  0  0  0  0  0  0  0  0  0
    7.3815   -7.3371    0.8416 O   0  0  0  0  0  0  0  0  0  0  0  0
    2.1114    4.6825   -3.2139 C   0  0  0  0  0  0  0  0  0  0  0  0
    3.1408    4.8955   -3.9068 O   0  0  0  0  0  0  0  0  0  0  0  0
    0.9359    5.4739   -3.4905 N   0  0  0  0  0  0  0  0  0  0  0  0
   -0.4411    5.1333   -3.1141 C   0  0  2  0  0  0  0  0  0  0  0  0
   -1.2409    4.7574   -4.3606 C   0  0  0  0  0  0  0  0  0  0  0  0
   -1.0737    6.2988   -2.3995 C   0  0  0  0  0  0  0  0  0  0  0  0
   -1.2565    7.3834   -3.0141 O   0  0  0  0  0  0  0  0  0  0  0  0
   -1.3573    6.2355   -1.0008 N   0  0  0  0  0  0  0  0  0  0  0  0
   -2.5559    5.6160   -0.4223 C   0  0  2  0  0  0  0  0  0  0  0  0
   -2.4884    4.0940   -0.4962 C   0  0  0  0  0  0  0  0  0  0  0  0
   -3.8169    6.1469   -1.0623 C   0  0  0  0  0  0  0  0  0  0  0  0
   -4.0698    5.8932   -2.2699 O   0  0  0  0  0  0  0  0  0  0  0  0
   -4.7137    6.9822   -0.3217 N   0  0  0  0  0  0  0  0  0  0  0  0
   -5.7321    6.4736    0.6036 C   0  0  2  0  0  0  0  0  0  0  0  0
   -5.0982    5.8444    1.8499 C   0  0  0  0  0  0  0  0  0  0  0  0
   -6.6673    5.5206   -0.0798 C   0  0  0  0  0  0  0  0  0  0  0  0
   -6.3029    4.3421   -0.3369 O   0  0  0  0  0  0  0  0  0  0  0  0
   -7.9620    5.9681   -0.4983 N   0  0  0  0  0  0  0  0  0  0  0  0
   -9.2008    5.5843    0.1819 C   0  0  2  0  0  0  0  0  0  0  0  0
   -9.2442    6.1559    1.6002 C   0  0  0  0  0  0  0  0  0  0  0  0
   -9.4352    4.0883    0.1207 C   0  0  0  0  0  0  0  0  0  0  0  0
  -10.3329    3.6496   -0.6416 O   0  0  0  0  0  0  0  0  0  0  0  0
   -8.6222    3.1505    0.8380 N   0  0  0  0  0  0  0  0  0  0  0  0
   -8.8069    2.8692    2.2624 C   0  0  2  0  0  0  0  0  0  0  0  0
   -7.7231    1.9156    2.7677 C   0  0  0  0  0  0  0  0  0  0  0  0
  -10.1763    2.2860    2.5143 C   0  0  0  0  0  0  0  0  0  0  0  0
  -10.8533    2.7034    3.4896 O   0  0  0  0  0  0  0  0  0  0  0  0
  -10.7054    1.2636    1.6535 N   0  0  0  0  0  0  0  0  0  0  0  0
  -12.0778    1.2215    1.1157 C   0  0  2  0  0  0  0  0  0  0  0  0
  -13.0012    2.3281    1.6512 C   0  0  0  0  0  0  0  0  0  0  0  0
  -12.6905   -0.1241    1.3810 C   0  0  0  0  0  0  0  0  0  0  0  0
  -12.8732   -0.5005    2.5713 O   0  0  0  0  0  0  0  0  0  0  0  0
  -13.1579   -0.9381    0.3067 N   0  0  0  0  0  0  0  0  0  0  0  0
  -12.3073   -1.2973   -0.8308 C   0  0  2  0  0  0  0  0  0  0  0  0
  -12.9187   -0.7726   -2.1303 C   0  0  0  0  0  0  0  0  0  0  0  0
  -12.1104   -2.7973   -0.8842 C   0  0  0  0  0  0  0  0  0  0  0  0
  -11.2417   -3.2779   -1.6631 O   0  0  0  0  0  0  0  0  0  0  0  0
  -12.8868   -3.6730   -0.0586 N   0  0  0  0  0  0  0  0  0  0  0  0
  -12.3074   -4.7632    0.7403 C   0  0  2  0  0  0  0  0  0  0  0  0
  -13.2384   -5.0852    1.9159 C   0  0  0  0  0  0  0  0  0  0  0  0
  -10.9363   -4.3805    1.2702 C   0  0  0  0  0  0  0  0  0  0  0  0
  -10.8491   -3.4300    2.0913 O   0  0  0  0  0  0  0  0  0  0  0  0
   -9.7319   -5.0688    0.8849 N   0  0  0  0  0  0  0  0  0  0  0  0
   -9.5595   -5.8794   -0.3288 C   0  0  2  0  0  0  0  0  0  0  0  0
   -9.4201   -7.3550    0.0566 C   0  0  0  0  0  0  0  0  0  0  0  0
   -8.3718   -5.3814   -1.1204 C   0  0  0  0  0  0  0  0  0  0  0  0
   -8.5167   -5.1412   -2.3522 O   0  0  0  0  0  0  0  0  0  0  0  0
   -7.1164   -5.0730   -0.5000 N   0  0  0  0  0  0  0  0  0  0  0  0
   -6.1794   -6.1087   -0.0666 C   0  0  2  0  0  0  0  0  0  0  0  0
   -5.9113   -5.9558    1.4354 C   0  0  0  0  0  0  0  0  0  0  0  0
   -4.9380   -6.0552   -0.9342 C   0  0  0  0  0  0  0  0  0  0  0  0
   -5.0794   -6.1639   -2.1849 O   0  0  0  0  0  0  0  0  0  0  0  0
   -3.6100   -5.9325   -0.3829 N   0  0  0  0  0  0  0  0  0  0  0  0
   -2.4016   -6.1426   -1.1934 C   0  0  2  0  0  0  0  0  0  0  0  0
   -2.4143   -7.5266   -1.7974 C   0  0  0  0  0  0  0  0  0  0  0  0
   -2.2470   -7.6948   -3.2085 N   0  0  0  0  0  0  0  0  0  0  0  0
   -2.5306   -8.5413   -1.0589 O   0  0  0  0  0  0  0  0  0  0  0  0
   -1.1235   -5.9769   -0.3511 C   0  0  0  0  0  0  0  0  0  0  0  0
   -0.8157   -4.2406    0.1442 S   0  0  0  0  0  0  0  0  0  0  0  0
   -0.1025   -3.6588   -1.4449 C   0  0  0  0  0  0  0  0  0  0  0  0
    7.1191   -6.3757    3.7602 H   0  0  0  0  0  0  0  0  0  0  0  0
    8.8585   -6.6846    3.3522 H   0  0  0  0  0  0  0  0  0  0  0  0
    8.3967   -6.1411    5.0053 H   0  0  0  0  0  0  0  0  0  0  0  0
    8.3085   -3.2179    1.8849 H   0  0  0  0  0  0  0  0  0  0  0  0
    6.3556   -5.3308    1.7365 H   0  0  0  0  0  0  0  0  0  0  0  0
    6.4000   -4.8083   -0.7966 H   0  0  0  0  0  0  0  0  0  0  0  0
    7.5569   -3.4941   -0.3937 H   0  0  0  0  0  0  0  0  0  0  0  0
    5.4570   -1.7035   -1.4369 H   0  0  0  0  0  0  0  0  0  0  0  0
    4.9212   -3.3727   -1.8316 H   0  0  0  0  0  0  0  0  0  0  0  0
    2.6021   -4.0627   -1.5526 H   0  0  0  0  0  0  0  0  0  0  0  0
   -0.3638   -1.0791   -0.6731 H   0  0  0  0  0  0  0  0  0  0  0  0
    3.8285   -0.0783   -0.4641 H   0  0  0  0  0  0  0  0  0  0  0  0
    2.2284    1.5712    0.1858 H   0  0  0  0  0  0  0  0  0  0  0  0
    0.8020    0.8167    0.9519 H   0  0  0  0  0  0  0  0  0  0  0  0
    0.8639    2.4523   -3.3658 H   0  0  0  0  0  0  0  0  0  0  0  0
    2.1244    1.5109   -2.5672 H   0  0  0  0  0  0  0  0  0  0  0  0
    3.2535    3.3386   -2.0600 H   0  0  0  0  0  0  0  0  0  0  0  0
    0.8556    4.5835   -0.6773 H   0  0  0  0  0  0  0  0  0  0  0  0
    4.5640    4.8405    1.2901 H   0  0  0  0  0  0  0  0  0  0  0  0
    4.4654    2.4242   -0.5904 H   0  0  0  0  0  0  0  0  0  0  0  0
    4.3956    2.4496    1.2043 H   0  0  0  0  0  0  0  0  0  0  0  0
    5.8700    3.0015    0.3441 H   0  0  0  0  0  0  0  0  0  0  0  0
    4.6330    4.9743   -1.7441 H   0  0  0  0  0  0  0  0  0  0  0  0
    7.2462    7.4884   -0.0202 H   0  0  0  0  0  0  0  0  0  0  0  0
    5.3696    6.6477    2.2823 H   0  0  0  0  0  0  0  0  0  0  0  0
    5.4985    8.2903    1.5494 H   0  0  0  0  0  0  0  0  0  0  0  0
    6.9141    7.5734    2.4013 H   0  0  0  0  0  0  0  0  0  0  0  0
    7.0118    4.8687    1.4424 H   0  0  0  0  0  0  0  0  0  0  0  0
    9.8570    6.2911   -0.7240 H   0  0  0  0  0  0  0  0  0  0  0  0
    9.7207    6.4864    1.6490 H   0  0  0  0  0  0  0  0  0  0  0  0
    9.8008    4.7133    1.9192 H   0  0  0  0  0  0  0  0  0  0  0  0
   11.2487    5.6022    1.3078 H   0  0  0  0  0  0  0  0  0  0  0  0
   11.0256    4.6070   -1.7192 H   0  0  0  0  0  0  0  0  0  0  0  0
   10.9370    2.8533    1.3437 H   0  0  0  0  0  0  0  0  0  0  0  0
    9.0558    1.4017    2.1468 H   0  0  0  0  0  0  0  0  0  0  0  0
    8.4063    2.7943    1.2362 H   0  0  0  0  0  0  0  0  0  0  0  0
    8.4902    1.1735    0.4457 H   0  0  0  0  0  0  0  0  0  0  0  0
   11.4851    0.6226   -0.4538 H   0  0  0  0  0  0  0  0  0  0  0  0
   12.6150   -1.6427    1.1932 H   0  0  0  0  0  0  0  0  0  0  0  0
   11.8526   -1.9984    3.4632 H   0  0  0  0  0  0  0  0  0  0  0  0
   10.1240   -1.8733    2.9645 H   0  0  0  0  0  0  0  0  0  0  0  0
   11.1263   -3.2701    2.4153 H   0  0  0  0  0  0  0  0  0  0  0  0
    9.6895   -1.5556    0.3267 H   0  0  0  0  0  0  0  0  0  0  0  0
   12.1860   -3.6678   -2.1675 H   0  0  0  0  0  0  0  0  0  0  0  0
   13.6198   -1.7076   -2.3237 H   0  0  0  0  0  0  0  0  0  0  0  0
   13.9622   -1.7459   -0.5605 H   0  0  0  0  0  0  0  0  0  0  0  0
   14.4985   -3.1019   -1.6029 H   0  0  0  0  0  0  0  0  0  0  0  0
   13.2855   -4.0362    0.4915 H   0  0  0  0  0  0  0  0  0  0  0  0
    9.6531   -4.2025   -0.0048 H   0  0  0  0  0  0  0  0  0  0  0  0
   10.0604   -4.2886   -2.3596 H   0  0  0  0  0  0  0  0  0  0  0  0
    8.8567   -5.5709   -2.1123 H   0  0  0  0  0  0  0  0  0  0  0  0
   10.5954   -6.0255   -2.2984 H   0  0  0  0  0  0  0  0  0  0  0  0
    9.7643   -7.2253    0.1494 H   0  0  0  0  0  0  0  0  0  0  0  0
    1.0611    6.2911   -4.1306 H   0  0  0  0  0  0  0  0  0  0  0  0
   -0.4532    4.2605   -2.4507 H   0  0  0  0  0  0  0  0  0  0  0  0
   -2.2794    4.4663   -4.0844 H   0  0  0  0  0  0  0  0  0  0  0  0
   -1.2793    5.6089   -5.0762 H   0  0  0  0  0  0  0  0  0  0  0  0
   -0.7599    3.8965   -4.8778 H   0  0  0  0  0  0  0  0  0  0  0  0
   -0.7589    6.8155   -0.3682 H   0  0  0  0  0  0  0  0  0  0  0  0
   -2.5811    5.8868    0.6565 H   0  0  0  0  0  0  0  0  0  0  0  0
   -2.4977    3.7405   -1.5484 H   0  0  0  0  0  0  0  0  0  0  0  0
   -1.5586    3.7521    0.0063 H   0  0  0  0  0  0  0  0  0  0  0  0
   -3.3522    3.6363    0.0286 H   0  0  0  0  0  0  0  0  0  0  0  0
   -4.7408    7.9949   -0.5717 H   0  0  0  0  0  0  0  0  0  0  0  0
   -6.3322    7.3403    0.9595 H   0  0  0  0  0  0  0  0  0  0  0  0
   -4.3781    6.5490    2.3092 H   0  0  0  0  0  0  0  0  0  0  0  0
   -4.5701    4.9030    1.5946 H   0  0  0  0  0  0  0  0  0  0  0  0
   -5.8867    5.6029    2.5943 H   0  0  0  0  0  0  0  0  0  0  0  0
   -7.9942    6.7984   -1.1357 H   0  0  0  0  0  0  0  0  0  0  0  0
  -10.0441    6.0663   -0.3667 H   0  0  0  0  0  0  0  0  0  0  0  0
  -10.1443    5.7854    2.1397 H   0  0  0  0  0  0  0  0  0  0  0  0
   -8.3305    5.8904    2.1675 H   0  0  0  0  0  0  0  0  0  0  0  0
   -9.3013    7.2670    1.5514 H   0  0  0  0  0  0  0  0  0  0  0  0
   -8.1735    2.4065    0.2512 H   0  0  0  0  0  0  0  0  0  0  0  0
   -8.7088    3.8046    2.8462 H   0  0  0  0  0  0  0  0  0  0  0  0
   -7.7737    0.9404    2.2367 H   0  0  0  0  0  0  0  0  0  0  0  0
   -6.7241    2.3709    2.5836 H   0  0  0  0  0  0  0  0  0  0  0  0
   -7.8362    1.7430    3.8602 H   0  0  0  0  0  0  0  0  0  0  0  0
  -10.0112    0.6754    1.1396 H   0  0  0  0  0  0  0  0  0  0  0  0
  -12.0122    1.3812    0.0148 H   0  0  0  0  0  0  0  0  0  0  0  0
  -12.5662    3.3300    1.4534 H   0  0  0  0  0  0  0  0  0  0  0  0
  -13.9902    2.2684    1.1458 H   0  0  0  0  0  0  0  0  0  0  0  0
  -13.1802    2.2062    2.7395 H   0  0  0  0  0  0  0  0  0  0  0  0
  -14.1161   -1.3500    0.3858 H   0  0  0  0  0  0  0  0  0  0  0  0
  -11.3017   -0.8345   -0.7014 H   0  0  0  0  0  0  0  0  0  0  0  0
  -13.9095   -1.2425   -2.3149 H   0  0  0  0  0  0  0  0  0  0  0  0
  -13.0498    0.3282   -2.0644 H   0  0  0  0  0  0  0  0  0  0  0  0
  -12.2406   -0.9833   -2.9867 H   0  0  0  0  0  0  0  0  0  0  0  0
  -13.9281   -3.5761   -0.0954 H   0  0  0  0  0  0  0  0  0  0  0  0
  -12.2642   -5.6745    0.1134 H   0  0  0  0  0  0  0  0  0  0  0  0
  -12.8133   -5.9052    2.5300 H   0  0  0  0  0  0  0  0  0  0  0  0
  -13.3851   -4.1877    2.5570 H   0  0  0  0  0  0  0  0  0  0  0  0
  -14.2310   -5.4132    1.5360 H   0  0  0  0  0  0  0  0  0  0  0  0
   -8.9047   -4.9443    1.5096 H   0  0  0  0  0  0  0  0  0  0  0  0
  -10.4437   -5.7998   -0.9936 H   0  0  0  0  0  0  0  0  0  0  0  0
  -10.3835   -7.7281    0.4665 H   0  0  0  0  0  0  0  0  0  0  0  0
   -9.1582   -7.9660   -0.8366 H   0  0  0  0  0  0  0  0  0  0  0  0
   -8.6380   -7.4925    0.8350 H   0  0  0  0  0  0  0  0  0  0  0  0
   -6.7736   -4.0874   -0.5778 H   0  0  0  0  0  0  0  0  0  0  0  0
   -6.6242   -7.1169   -0.2220 H   0  0  0  0  0  0  0  0  0  0  0  0
   -5.5297   -4.9383    1.6613 H   0  0  0  0  0  0  0  0  0  0  0  0
   -5.1801   -6.7178    1.7827 H   0  0  0  0  0  0  0  0  0  0  0  0
   -6.8549   -6.1159    2.0009 H   0  0  0  0  0  0  0  0  0  0  0  0
   -3.4929   -5.5654    0.5944 H   0  0  0  0  0  0  0  0  0  0  0  0
   -2.3775   -5.3835   -2.0123 H   0  0  0  0  0  0  0  0  0  0  0  0
   -2.1015   -8.6530   -3.5988 H   0  0  0  0  0  0  0  0  0  0  0  0
   -2.1789   -6.8699   -3.8357 H   0  0  0  0  0  0  0  0  0  0  0  0
   -0.2337   -6.3671   -0.8867 H   0  0  0  0  0  0  0  0  0  0  0  0
   -1.2199   -6.5828    0.5770 H   0  0  0  0  0  0  0  0  0  0  0  0
    0.2753   -4.4952   -2.0637 H   0  0  0  0  0  0  0  0  0  0  0  0
   -0.9085   -3.1652   -2.0250 H   0  0  0  0  0  0  0  0  0  0  0  0
  1  2  1  0
  2  3  2  0
  2  4  1  0
  4  5  1  0
  5  6  1  0
  6  7  1  0
  7  8  1  0
  8  9  1  0
  9 10  1  0
 10 11  2  0
 11 12  1  0
 12 13  2  0
 13 14  1  0
 13 15  1  0
 15 16  1  0
 16 17  1  0
 17 18  1  0
 18 19  1  0
 19 20  1  0
 20 21  2  0
 20 22  1  0
 22 23  1  0
 22 24  1  0
 24 25  1  0
 25 26  2  0
 25 27  1  0
 27 28  1  0
 27 29  1  0
 29 30  1  0
 30 31  2  0
 30 32  1  0
 32 33  1  0
 32 34  1  0
 34 35  1  0
 35 36  2  0
 35 37  1  0
 37 38  1  0
 37 39  1  0
 39 40  1  0
 40 41  2  0
 40 42  1  0
 42 43  1  0
 42 44  1  0
 44 45  1  0
 45 46  2  0
 45 47  1  0
 47 48  1  0
 47 49  1  0
 49 50  1  0
 50 51  2  0
 50 52  1  0
 52 53  1  0
 52 54  1  0
 54 55  1  0
 55 56  2  0
 18 57  1  0
 57 58  2  0
 57 59  1  0
 59 60  1  0
 60 61  1  0
 60 62  1  0
 62 63  2  0
 62 64  1  0
 64 65  1  0
 65 66  1  0
 65 67  1  0
 67 68  2  0
 67 69  1  0
 69 70  1  0
 70 71  1  0
 70 72  1  0
 72 73  2  0
 72 74  1  0
 74 75  1  0
 75 76  1  0
 75 77  1  0
 77 78  2  0
 77 79  1  0
 79 80  1  0
 80 81  1  0
 80 82  1  0
 82 83  2  0
 82 84  1  0
 84 85  1  0
 85 86  1  0
 85 87  1  0
 87 88  2  0
 87 89  1  0
 89 90  1  0
 90 91  1  0
 90 92  1  0
 92 93  2  0
 92 94  1  0
 94 95  1  0
 95 96  1  0
 95 97  1  0
 97 98  2  0
 97 99  1  0
 99100  1  0
100101  1  0
100102  1  0
102103  2  0
102104  1  0
104105  1  0
105106  1  0
105107  1  0
107108  2  0
107109  1  0
109110  1  0
110111  1  0
111112  1  0
111113  2  0
110114  1  0
114115  1  0
115116  1  0
 55  5  1  0
 14  9  2  0
116 11  1  0
  1117  1  0
  1118  1  0
  1119  1  0
  4120  1  0
  5121  1  1
  6122  1  0
  6123  1  0
  8124  1  0
  8125  1  0
 10126  1  0
 12127  1  0
 14128  1  0
 15129  1  0
 15130  1  0
 17131  1  0
 17132  1  0
 18133  1  1
 19134  1  0
 22135  1  1
 23136  1  0
 23137  1  0
 23138  1  0
 24139  1  0
 27140  1  6
 28141  1  0
 28142  1  0
 28143  1  0
 29144  1  0
 32145  1  6
 33146  1  0
 33147  1  0
 33148  1  0
 34149  1  0
 37150  1  1
 38151  1  0
 38152  1  0
 38153  1  0
 39154  1  0
 42155  1  6
 43156  1  0
 43157  1  0
 43158  1  0
 44159  1  0
 47160  1  6
 48161  1  0
 48162  1  0
 48163  1  0
 49164  1  0
 52165  1  1
 53166  1  0
 53167  1  0
 53168  1  0
 54169  1  0
 59170  1  0
 60171  1  1
 61172  1  0
 61173  1  0
 61174  1  0
 64175  1  0
 65176  1  1
 66177  1  0
 66178  1  0
 66179  1  0
 69180  1  0
 70181  1  1
 71182  1  0
 71183  1  0
 71184  1  0
 74185  1  0
 75186  1  6
 76187  1  0
 76188  1  0
 76189  1  0
 79190  1  0
 80191  1  1
 81192  1  0
 81193  1  0
 81194  1  0
 84195  1  0
 85196  1  6
 86197  1  0
 86198  1  0
 86199  1  0
 89200  1  0
 90201  1  1
 91202  1  0
 91203  1  0
 91204  1  0
 94205  1  0
 95206  1  6
 96207  1  0
 96208  1  0
 96209  1  0
 99210  1  0
100211  1  6
101212  1  0
101213  1  0
101214  1  0
104215  1  0
105216  1  1
106217  1  0
106218  1  0
106219  1  0
109220  1  0
110221  1  6
112222  1  0
112223  1  0
114224  1  0
114225  1  0
116226  1  0
116227  1  0
M  END
