
     RDKit          3D

227229  0  0  0  0  0  0  0  0999 V2000
   -7.5535    5.6628    3.3398 C   0  0  0  0  0  0  0  0  0  0  0  0
   -6.6767    6.5518    2.5095 C   0  0  0  0  0  0  0  0  0  0  0  0
   -5.9029    7.3539    3.0928 O   0  0  0  0  0  0  0  0  0  0  0  0
   -6.6939    6.5155    1.0708 N   0  0  0  0  0  0  0  0  0  0  0  0
   -7.4165    5.5149    0.2712 C   0  0  2  0  0  0  0  0  0  0  0  0
   -6.4190    4.6155   -0.4670 C   0  0  0  0  0  0  0  0  0  0  0  0
   -5.2805    3.8453    0.7365 S   0  0  0  0  0  0  0  0  0  0  0  0
   -3.9408    3.4950   -0.4461 C   0  0  0  0  0  0  0  0  0  0  0  0
   -2.7031    3.1654    0.3307 C   0  0  0  0  0  0  0  0  0  0  0  0
   -1.9567    4.1958    0.9232 C   0  0  0  0  0  0  0  0  0  0  0  0
   -0.8463    3.8989    1.7304 C   0  0  0  0  0  0  0  0  0  0  0  0
   -0.4900    2.5571    1.9452 C   0  0  0  0  0  0  0  0  0  0  0  0
   -1.2234    1.5133    1.3499 C   0  0  0  0  0  0  0  0  0  0  0  0
   -2.3413    1.8305    0.5544 C   0  0  0  0  0  0  0  0  0  0  0  0
   -0.9200    0.0865    1.7250 C   0  0  0  0  0  0  0  0  0  0  0  0
   -1.2918   -1.0894    0.3686 S   0  0  0  0  0  0  0  0  0  0  0  0
   -1.3477   -2.5733    1.4323 C   0  0  0  0  0  0  0  0  0  0  0  0
   -1.9966   -3.7403    0.6754 C   0  0  2  0  0  0  0  0  0  0  0  0
   -3.4537   -3.5508    0.6614 N   0  0  0  0  0  0  0  0  0  0  0  0
   -4.2306   -3.2923   -0.5231 C   0  0  0  0  0  0  0  0  0  0  0  0
   -5.1265   -2.4115   -0.4742 O   0  0  0  0  0  0  0  0  0  0  0  0
   -4.0716   -4.0949   -1.7940 C   0  0  1  0  0  0  0  0  0  0  0  0
   -3.2005   -3.3485   -2.8089 C   0  0  0  0  0  0  0  0  0  0  0  0
   -3.5394   -5.4366   -1.5202 N   0  0  0  0  0  0  0  0  0  0  0  0
   -4.3354   -6.5438   -1.0516 C   0  0  0  0  0  0  0  0  0  0  0  0
   -3.7341   -7.5692   -0.6219 O   0  0  0  0  0  0  0  0  0  0  0  0
   -5.8519   -6.5069   -1.0603 C   0  0  1  0  0  0  0  0  0  0  0  0
   -6.4664   -7.8893   -0.7711 C   0  0  0  0  0  0  0  0  0  0  0  0
   -6.3512   -5.5257   -0.0814 N   0  0  0  0  0  0  0  0  0  0  0  0
   -7.7477   -5.2601    0.1344 C   0  0  0  0  0  0  0  0  0  0  0  0
   -8.2449   -5.5912    1.2423 O   0  0  0  0  0  0  0  0  0  0  0  0
   -8.5842   -4.4196   -0.8210 C   0  0  1  0  0  0  0  0  0  0  0  0
   -8.4102   -4.8277   -2.2843 C   0  0  0  0  0  0  0  0  0  0  0  0
  -10.0054   -4.5344   -0.4715 N   0  0  0  0  0  0  0  0  0  0  0  0
  -10.9472   -3.4485   -0.4726 C   0  0  0  0  0  0  0  0  0  0  0  0
  -12.0579   -3.6171    0.1013 O   0  0  0  0  0  0  0  0  0  0  0  0
  -10.6577   -2.1226   -1.1506 C   0  0  1  0  0  0  0  0  0  0  0  0
  -11.9147   -1.5425   -1.8148 C   0  0  0  0  0  0  0  0  0  0  0  0
  -10.0839   -1.1434   -0.2210 N   0  0  0  0  0  0  0  0  0  0  0  0
  -10.7379   -0.7825    1.0062 C   0  0  0  0  0  0  0  0  0  0  0  0
  -10.9316   -1.6654    1.8859 O   0  0  0  0  0  0  0  0  0  0  0  0
  -11.2567    0.6262    1.2404 C   0  0  1  0  0  0  0  0  0  0  0  0
  -11.2355    0.9954    2.7258 C   0  0  0  0  0  0  0  0  0  0  0  0
  -10.4726    1.6049    0.4859 N   0  0  0  0  0  0  0  0  0  0  0  0
  -10.9109    2.1449   -0.7668 C   0  0  0  0  0  0  0  0  0  0  0  0
  -10.3100    1.8044   -1.8187 O   0  0  0  0  0  0  0  0  0  0  0  0
  -12.0262    3.1582   -0.8648 C   0  0  1  0  0  0  0  0  0  0  0  0
  -13.3916    2.4927   -1.0548 C   0  0  0  0  0  0  0  0  0  0  0  0
  -12.0423    4.0244    0.3209 N   0  0  0  0  0  0  0  0  0  0  0  0
  -11.3517    5.2828    0.4285 C   0  0  0  0  0  0  0  0  0  0  0  0
  -11.0806    5.7202    1.5837 O   0  0  0  0  0  0  0  0  0  0  0  0
  -10.8580    6.0484   -0.7787 C   0  0  1  0  0  0  0  0  0  0  0  0
  -10.8954    7.5699   -0.5417 C   0  0  0  0  0  0  0  0  0  0  0  0
   -9.5226    5.5644   -1.1434 N   0  0  0  0  0  0  0  0  0  0  0  0
   -8.3117    6.2020   -0.7183 C   0  0  0  0  0  0  0  0  0  0  0  0
   -7.9890    7.3226   -1.2049 O   0  0  0  0  0  0  0  0  0  0  0  0
   -1.6488   -5.0599    1.3296 C   0  0  0  0  0  0  0  0  0  0  0  0
   -2.4290   -5.5335    2.1988 O   0  0  0  0  0  0  0  0  0  0  0  0
   -0.4707   -5.8074    0.9798 N   0  0  0  0  0  0  0  0  0  0  0  0
    0.7336   -5.2564    0.3473 C   0  0  2  0  0  0  0  0  0  0  0  0
    1.2228   -6.1725   -0.7818 C   0  0  0  0  0  0  0  0  0  0  0  0
    1.8185   -4.9441    1.3606 C   0  0  0  0  0  0  0  0  0  0  0  0
    1.9898   -3.7371    1.6903 O   0  0  0  0  0  0  0  0  0  0  0  0
    2.7520   -5.9123    1.8769 N   0  0  0  0  0  0  0  0  0  0  0  0
    2.4797   -7.3206    2.1635 C   0  0  2  0  0  0  0  0  0  0  0  0
    2.6308   -7.5817    3.6670 C   0  0  0  0  0  0  0  0  0  0  0  0
    3.4065   -8.1897    1.3681 C   0  0  0  0  0  0  0  0  0  0  0  0
    2.9501   -9.1571    0.7023 O   0  0  0  0  0  0  0  0  0  0  0  0
    4.8171   -7.9252    1.3584 N   0  0  0  0  0  0  0  0  0  0  0  0
    5.4989   -7.4537    0.1440 C   0  0  2  0  0  0  0  0  0  0  0  0
    5.4384   -8.5044   -0.9720 C   0  0  0  0  0  0  0  0  0  0  0  0
    6.9313   -7.1157    0.4678 C   0  0  0  0  0  0  0  0  0  0  0  0
    7.7155   -8.0286    0.8638 O   0  0  0  0  0  0  0  0  0  0  0  0
    7.4033   -5.7686    0.3375 N   0  0  0  0  0  0  0  0  0  0  0  0
    8.5599   -5.2790    1.0925 C   0  0  2  0  0  0  0  0  0  0  0  0
    8.1989   -5.1405    2.5760 C   0  0  0  0  0  0  0  0  0  0  0  0
    9.0346   -3.9460    0.5533 C   0  0  0  0  0  0  0  0  0  0  0  0
    8.2102   -3.0213    0.3139 O   0  0  0  0  0  0  0  0  0  0  0  0
   10.4384   -3.7302    0.3383 N   0  0  0  0  0  0  0  0  0  0  0  0
   10.9342   -2.8404   -0.7117 C   0  0  2  0  0  0  0  0  0  0  0  0
   10.9169   -3.5882   -2.0485 C   0  0  0  0  0  0  0  0  0  0  0  0
   12.3513   -2.3879   -0.3969 C   0  0  0  0  0  0  0  0  0  0  0  0
   13.1869   -3.2566   -0.0356 O   0  0  0  0  0  0  0  0  0  0  0  0
   12.7918   -1.0212   -0.5094 N   0  0  0  0  0  0  0  0  0  0  0  0
   11.9897    0.1184   -0.9855 C   0  0  2  0  0  0  0  0  0  0  0  0
   11.8059    0.0341   -2.5090 C   0  0  0  0  0  0  0  0  0  0  0  0
   12.6829    1.4121   -0.6085 C   0  0  0  0  0  0  0  0  0  0  0  0
   13.5047    1.9231   -1.4123 O   0  0  0  0  0  0  0  0  0  0  0  0
   12.5161    2.0470    0.6747 N   0  0  0  0  0  0  0  0  0  0  0  0
   11.3897    1.9111    1.6101 C   0  0  2  0  0  0  0  0  0  0  0  0
   11.4567    0.5665    2.3511 C   0  0  0  0  0  0  0  0  0  0  0  0
   10.0465    2.1686    0.9447 C   0  0  0  0  0  0  0  0  0  0  0  0
    9.2347    1.2199    0.8096 O   0  0  0  0  0  0  0  0  0  0  0  0
    9.6493    3.4820    0.5041 N   0  0  0  0  0  0  0  0  0  0  0  0
   10.5131    4.6703    0.4734 C   0  0  2  0  0  0  0  0  0  0  0  0
   10.3143    5.4753    1.7552 C   0  0  0  0  0  0  0  0  0  0  0  0
   10.2425    5.5450   -0.7343 C   0  0  0  0  0  0  0  0  0  0  0  0
   10.9958    6.5389   -0.9413 O   0  0  0  0  0  0  0  0  0  0  0  0
    9.1544    5.2900   -1.6416 N   0  0  0  0  0  0  0  0  0  0  0  0
    8.5875    6.3309   -2.5060 C   0  0  2  0  0  0  0  0  0  0  0  0
    8.0321    7.4872   -1.6568 C   0  0  0  0  0  0  0  0  0  0  0  0
    7.5281    5.7334   -3.4065 C   0  0  0  0  0  0  0  0  0  0  0  0
    7.8793    4.9102   -4.2995 O   0  0  0  0  0  0  0  0  0  0  0  0
    6.1435    6.0819   -3.3001 N   0  0  0  0  0  0  0  0  0  0  0  0
    5.2255    5.4075   -2.3666 C   0  0  2  0  0  0  0  0  0  0  0  0
    5.5442    3.9074   -2.2319 C   0  0  0  0  0  0  0  0  0  0  0  0
    3.7960    5.5690   -2.8356 C   0  0  0  0  0  0  0  0  0  0  0  0
    3.5597    5.6629   -4.0697 O   0  0  0  0  0  0  0  0  0  0  0  0
    2.6892    5.5313   -1.9218 N   0  0  0  0  0  0  0  0  0  0  0  0
    2.8076    5.6452   -0.4611 C   0  0  1  0  0  0  0  0  0  0  0  0
    3.1695    7.0609   -0.0902 C   0  0  0  0  0  0  0  0  0  0  0  0
    4.2122    7.3264    0.8500 N   0  0  0  0  0  0  0  0  0  0  0  0
    2.5477    8.0260   -0.6185 O   0  0  0  0  0  0  0  0  0  0  0  0
    1.4845    5.2422    0.2025 C   0  0  0  0  0  0  0  0  0  0  0  0
    1.6967    5.0106    2.0114 S   0  0  0  0  0  0  0  0  0  0  0  0
   -0.0930    5.0168    2.4119 C   0  0  0  0  0  0  0  0  0  0  0  0
   -7.2914    4.5999    3.1623 H   0  0  0  0  0  0  0  0  0  0  0  0
   -8.6193    5.8348    3.0802 H   0  0  0  0  0  0  0  0  0  0  0  0
   -7.4134    5.8814    4.4184 H   0  0  0  0  0  0  0  0  0  0  0  0
   -6.0566    7.1722    0.5689 H   0  0  0  0  0  0  0  0  0  0  0  0
   -8.0511    4.8658    0.9127 H   0  0  0  0  0  0  0  0  0  0  0  0
   -5.8624    5.2164   -1.2170 H   0  0  0  0  0  0  0  0  0  0  0  0
   -6.9648    3.8032   -0.9917 H   0  0  0  0  0  0  0  0  0  0  0  0
   -3.7359    4.3758   -1.0920 H   0  0  0  0  0  0  0  0  0  0  0  0
   -4.2476    2.6512   -1.1004 H   0  0  0  0  0  0  0  0  0  0  0  0
   -2.2689    5.2259    0.7829 H   0  0  0  0  0  0  0  0  0  0  0  0
    0.3438    2.3257    2.5981 H   0  0  0  0  0  0  0  0  0  0  0  0
   -2.9556    1.0427    0.1307 H   0  0  0  0  0  0  0  0  0  0  0  0
    0.1546   -0.0223    1.9919 H   0  0  0  0  0  0  0  0  0  0  0  0
   -1.5275   -0.1544    2.6182 H   0  0  0  0  0  0  0  0  0  0  0  0
   -1.9218   -2.3684    2.3617 H   0  0  0  0  0  0  0  0  0  0  0  0
   -0.3082   -2.8139    1.7184 H   0  0  0  0  0  0  0  0  0  0  0  0
   -1.6158   -3.7535   -0.3623 H   0  0  0  0  0  0  0  0  0  0  0  0
   -3.9311   -3.3883    1.5784 H   0  0  0  0  0  0  0  0  0  0  0  0
   -5.0713   -4.1923   -2.2668 H   0  0  0  0  0  0  0  0  0  0  0  0
   -2.1730   -3.1758   -2.4297 H   0  0  0  0  0  0  0  0  0  0  0  0
   -3.1362   -3.9377   -3.7490 H   0  0  0  0  0  0  0  0  0  0  0  0
   -3.6587   -2.3635   -3.0474 H   0  0  0  0  0  0  0  0  0  0  0  0
   -2.5024   -5.5784   -1.5573 H   0  0  0  0  0  0  0  0  0  0  0  0
   -6.1597   -6.2291   -2.0796 H   0  0  0  0  0  0  0  0  0  0  0  0
   -6.2111   -8.2255    0.2606 H   0  0  0  0  0  0  0  0  0  0  0  0
   -6.0804   -8.6404   -1.4951 H   0  0  0  0  0  0  0  0  0  0  0  0
   -7.5701   -7.8524   -0.8753 H   0  0  0  0  0  0  0  0  0  0  0  0
   -5.7374   -5.3496    0.7464 H   0  0  0  0  0  0  0  0  0  0  0  0
   -8.2518   -3.3610   -0.7109 H   0  0  0  0  0  0  0  0  0  0  0  0
   -9.1894   -4.3528   -2.9165 H   0  0  0  0  0  0  0  0  0  0  0  0
   -7.4316   -4.4776   -2.6694 H   0  0  0  0  0  0  0  0  0  0  0  0
   -8.5027   -5.9305   -2.4003 H   0  0  0  0  0  0  0  0  0  0  0  0
  -10.3855   -5.4873   -0.2557 H   0  0  0  0  0  0  0  0  0  0  0  0
   -9.9297   -2.2946   -1.9706 H   0  0  0  0  0  0  0  0  0  0  0  0
  -11.6584   -0.6068   -2.3508 H   0  0  0  0  0  0  0  0  0  0  0  0
  -12.3321   -2.2699   -2.5459 H   0  0  0  0  0  0  0  0  0  0  0  0
  -12.6923   -1.3124   -1.0532 H   0  0  0  0  0  0  0  0  0  0  0  0
   -9.4538   -0.4336   -0.6510 H   0  0  0  0  0  0  0  0  0  0  0  0
  -12.3105    0.6417    0.9022 H   0  0  0  0  0  0  0  0  0  0  0  0
  -11.9012    0.3201    3.3065 H   0  0  0  0  0  0  0  0  0  0  0  0
  -10.2034    0.9181    3.1319 H   0  0  0  0  0  0  0  0  0  0  0  0
  -11.5927    2.0348    2.8701 H   0  0  0  0  0  0  0  0  0  0  0  0
   -9.4545    1.6815    0.7034 H   0  0  0  0  0  0  0  0  0  0  0  0
  -11.8492    3.7531   -1.7816 H   0  0  0  0  0  0  0  0  0  0  0  0
  -13.7507    2.0211   -0.1182 H   0  0  0  0  0  0  0  0  0  0  0  0
  -13.3474    1.7302   -1.8607 H   0  0  0  0  0  0  0  0  0  0  0  0
  -14.1360    3.2646   -1.3505 H   0  0  0  0  0  0  0  0  0  0  0  0
  -12.4212    3.6219    1.2060 H   0  0  0  0  0  0  0  0  0  0  0  0
  -11.5441    5.8786   -1.6367 H   0  0  0  0  0  0  0  0  0  0  0  0
  -10.2524    7.8610    0.3167 H   0  0  0  0  0  0  0  0  0  0  0  0
  -10.5437    8.1061   -1.4516 H   0  0  0  0  0  0  0  0  0  0  0  0
  -11.9374    7.8939   -0.3363 H   0  0  0  0  0  0  0  0  0  0  0  0
   -9.4462    4.5672   -1.4466 H   0  0  0  0  0  0  0  0  0  0  0  0
   -0.4546   -6.7950    1.3095 H   0  0  0  0  0  0  0  0  0  0  0  0
    0.4884   -4.2958   -0.1550 H   0  0  0  0  0  0  0  0  0  0  0  0
    2.1359   -5.7340   -1.2531 H   0  0  0  0  0  0  0  0  0  0  0  0
    0.4314   -6.2601   -1.5576 H   0  0  0  0  0  0  0  0  0  0  0  0
    1.4578   -7.1886   -0.4181 H   0  0  0  0  0  0  0  0  0  0  0  0
    3.6706   -5.5337    2.1958 H   0  0  0  0  0  0  0  0  0  0  0  0
    1.4426   -7.5905    1.8979 H   0  0  0  0  0  0  0  0  0  0  0  0
    2.4970   -8.6655    3.8825 H   0  0  0  0  0  0  0  0  0  0  0  0
    1.8590   -7.0130    4.2242 H   0  0  0  0  0  0  0  0  0  0  0  0
    3.6330   -7.2596    4.0246 H   0  0  0  0  0  0  0  0  0  0  0  0
    5.2738   -7.7511    2.2837 H   0  0  0  0  0  0  0  0  0  0  0  0
    4.9818   -6.5342   -0.2150 H   0  0  0  0  0  0  0  0  0  0  0  0
    5.8050   -9.4820   -0.5992 H   0  0  0  0  0  0  0  0  0  0  0  0
    4.3927   -8.6053   -1.3354 H   0  0  0  0  0  0  0  0  0  0  0  0
    6.0663   -8.1972   -1.8368 H   0  0  0  0  0  0  0  0  0  0  0  0
    6.9329   -5.1464   -0.3664 H   0  0  0  0  0  0  0  0  0  0  0  0
    9.3913   -6.0140    0.9990 H   0  0  0  0  0  0  0  0  0  0  0  0
    9.0920   -4.8281    3.1591 H   0  0  0  0  0  0  0  0  0  0  0  0
    7.3940   -4.3863    2.7132 H   0  0  0  0  0  0  0  0  0  0  0  0
    7.8461   -6.1113    2.9745 H   0  0  0  0  0  0  0  0  0  0  0  0
   11.1035   -4.4223    0.7603 H   0  0  0  0  0  0  0  0  0  0  0  0
   10.2666   -1.9613   -0.7931 H   0  0  0  0  0  0  0  0  0  0  0  0
    9.8662   -3.7436   -2.3773 H   0  0  0  0  0  0  0  0  0  0  0  0
   11.4491   -3.0197   -2.8383 H   0  0  0  0  0  0  0  0  0  0  0  0
   11.4055   -4.5824   -1.9490 H   0  0  0  0  0  0  0  0  0  0  0  0
   13.7606   -0.8233   -0.1552 H   0  0  0  0  0  0  0  0  0  0  0  0
   10.9833    0.1010   -0.5296 H   0  0  0  0  0  0  0  0  0  0  0  0
   12.7842   -0.1723   -2.9998 H   0  0  0  0  0  0  0  0  0  0  0  0
   11.0904   -0.7650   -2.7749 H   0  0  0  0  0  0  0  0  0  0  0  0
   11.3994    0.9904   -2.9001 H   0  0  0  0  0  0  0  0  0  0  0  0
   13.2353    2.7635    0.9278 H   0  0  0  0  0  0  0  0  0  0  0  0
   11.5047    2.6820    2.3981 H   0  0  0  0  0  0  0  0  0  0  0  0
   10.6644    0.5251    3.1273 H   0  0  0  0  0  0  0  0  0  0  0  0
   12.4373    0.4701    2.8593 H   0  0  0  0  0  0  0  0  0  0  0  0
   11.3211   -0.2971    1.6748 H   0  0  0  0  0  0  0  0  0  0  0  0
    8.6224    3.6246    0.3629 H   0  0  0  0  0  0  0  0  0  0  0  0
   11.5750    4.3651    0.4108 H   0  0  0  0  0  0  0  0  0  0  0  0
   10.5352    4.8496    2.6449 H   0  0  0  0  0  0  0  0  0  0  0  0
   10.9960    6.3531    1.7771 H   0  0  0  0  0  0  0  0  0  0  0  0
    9.2655    5.8326    1.8314 H   0  0  0  0  0  0  0  0  0  0  0  0
    8.8221    4.3083   -1.7524 H   0  0  0  0  0  0  0  0  0  0  0  0
    9.3913    6.7432   -3.1547 H   0  0  0  0  0  0  0  0  0  0  0  0
    7.5643    8.2570   -2.3040 H   0  0  0  0  0  0  0  0  0  0  0  0
    8.8507    7.9825   -1.0953 H   0  0  0  0  0  0  0  0  0  0  0  0
    7.2848    7.1188   -0.9287 H   0  0  0  0  0  0  0  0  0  0  0  0
    5.8854    7.0483   -3.6015 H   0  0  0  0  0  0  0  0  0  0  0  0
    5.3488    5.8792   -1.3780 H   0  0  0  0  0  0  0  0  0  0  0  0
    5.5106    3.4113   -3.2208 H   0  0  0  0  0  0  0  0  0  0  0  0
    4.8029    3.4150   -1.5665 H   0  0  0  0  0  0  0  0  0  0  0  0
    6.5454    3.7698   -1.7772 H   0  0  0  0  0  0  0  0  0  0  0  0
    1.7317    5.4747   -2.3380 H   0  0  0  0  0  0  0  0  0  0  0  0
    3.5879    4.9387   -0.1026 H   0  0  0  0  0  0  0  0  0  0  0  0
    4.7340    6.5418    1.3036 H   0  0  0  0  0  0  0  0  0  0  0  0
    4.4663    8.3122    1.0911 H   0  0  0  0  0  0  0  0  0  0  0  0
    1.1424    4.2738   -0.2214 H   0  0  0  0  0  0  0  0  0  0  0  0
    0.7093    6.0124    0.0037 H   0  0  0  0  0  0  0  0  0  0  0  0
   -0.5178    6.0090    2.1484 H   0  0  0  0  0  0  0  0  0  0  0  0
   -0.2011    4.9005    3.5126 H   0  0  0  0  0  0  0  0  0  0  0  0
  1  2  1  0
  2  3  2  0
  2  4  1  0
  4  5  1  0
  5  6  1  0
  6  7  1  0
  7  8  1  0
  8  9  1  0
  9 10  1  0
 10 11  2  0
 11 12  1  0
 12 13  2  0
 13 14  1  0
 13 15  1  0
 15 16  1  0
 16 17  1  0
 17 18  1  0
 18 19  1  0
 19 20  1  0
 20 21  2  0
 20 22  1  0
 22 23  1  0
 22 24  1  0
 24 25  1  0
 25 26  2  0
 25 27  1  0
 27 28  1  0
 27 29  1  0
 29 30  1  0
 30 31  2  0
 30 32  1  0
 32 33  1  0
 32 34  1  0
 34 35  1  0
 35 36  2  0
 35 37  1  0
 37 38  1  0
 37 39  1  0
 39 40  1  0
 40 41  2  0
 40 42  1  0
 42 43  1  0
 42 44  1  0
 44 45  1  0
 45 46  2  0
 45 47  1  0
 47 48  1  0
 47 49  1  0
 49 50  1  0
 50 51  2  0
 50 52  1  0
 52 53  1  0
 52 54  1  0
 54 55  1  0
 55 56  2  0
 18 57  1  0
 57 58  2  0
 57 59  1  0
 59 60  1  0
 60 61  1  0
 60 62  1  0
 62 63  2  0
 62 64  1  0
 64 65  1  0
 65 66  1  0
 65 67  1  0
 67 68  2  0
 67 69  1  0
 69 70  1  0
 70 71  1  0
 70 72  1  0
 72 73  2  0
 72 74  1  0
 74 75  1  0
 75 76  1  0
 75 77  1  0
 77 78  2  0
 77 79  1  0
 79 80  1  0
 80 81  1  0
 80 82  1  0
 82 83  2  0
 82 84  1  0
 84 85  1  0
 85 86  1  0
 85 87  1  0
 87 88  2  0
 87 89  1  0
 89 90  1  0
 90 91  1  0
 90 92  1  0
 92 93  2  0
 92 94  1  0
 94 95  1  0
 95 96  1  0
 95 97  1  0
 97 98  2  0
 97 99  1  0
 99100  1  0
100101  1  0
100102  1  0
102103  2  0
102104  1  0
104105  1  0
105106  1  0
105107  1  0
107108  2  0
107109  1  0
109110  1  0
110111  1  0
111112  1  0
111113  2  0
110114  1  0
114115  1  0
115116  1  0
 55  5  1  0
 14  9  2  0
116 11  1  0
  1117  1  0
  1118  1  0
  1119  1  0
  4120  1  0
  5121  1  1
  6122  1  0
  6123  1  0
  8124  1  0
  8125  1  0
 10126  1  0
 12127  1  0
 14128  1  0
 15129  1  0
 15130  1  0
 17131  1  0
 17132  1  0
 18133  1  6
 19134  1  0
 22135  1  6
 23136  1  0
 23137  1  0
 23138  1  0
 24139  1  0
 27140  1  6
 28141  1  0
 28142  1  0
 28143  1  0
 29144  1  0
 32145  1  6
 33146  1  0
 33147  1  0
 33148  1  0
 34149  1  0
 37150  1  6
 38151  1  0
 38152  1  0
 38153  1  0
 39154  1  0
 42155  1  6
 43156  1  0
 43157  1  0
 43158  1  0
 44159  1  0
 47160  1  6
 48161  1  0
 48162  1  0
 48163  1  0
 49164  1  0
 52165  1  6
 53166  1  0
 53167  1  0
 53168  1  0
 54169  1  0
 59170  1  0
 60171  1  6
 61172  1  0
 61173  1  0
 61174  1  0
 64175  1  0
 65176  1  6
 66177  1  0
 66178  1  0
 66179  1  0
 69180  1  0
 70181  1  6
 71182  1  0
 71183  1  0
 71184  1  0
 74185  1  0
 75186  1  1
 76187  1  0
 76188  1  0
 76189  1  0
 79190  1  0
 80191  1  6
 81192  1  0
 81193  1  0
 81194  1  0
 84195  1  0
 85196  1  1
 86197  1  0
 86198  1  0
 86199  1  0
 89200  1  0
 90201  1  1
 91202  1  0
 91203  1  0
 91204  1  0
 94205  1  0
 95206  1  6
 96207  1  0
 96208  1  0
 96209  1  0
 99210  1  0
100211  1  6
101212  1  0
101213  1  0
101214  1  0
104215  1  0
105216  1  1
106217  1  0
106218  1  0
106219  1  0
109220  1  0
110221  1  1
112222  1  0
112223  1  0
114224  1  0
114225  1  0
116226  1  0
116227  1  0
M  END
