
     RDKit          3D

187189  0  0  0  0  0  0  0  0999 V2000
   -1.3472   -8.5113    1.5451 C   0  0  0  0  0  0  0  0  0  0  0  0
   -1.0619   -8.7179    0.0837 C   0  0  0  0  0  0  0  0  0  0  0  0
   -0.1615   -9.5371   -0.2502 O   0  0  0  0  0  0  0  0  0  0  0  0
   -1.8048   -8.0389   -0.9434 N   0  0  0  0  0  0  0  0  0  0  0  0
   -2.7185   -6.9104   -0.7120 C   0  0  1  0  0  0  0  0  0  0  0  0
   -2.0704   -5.6185   -1.2277 C   0  0  0  0  0  0  0  0  0  0  0  0
   -0.8685   -4.9570   -0.0179 S   0  0  0  0  0  0  0  0  0  0  0  0
    0.4967   -4.6478   -1.2009 C   0  0  0  0  0  0  0  0  0  0  0  0
    1.4346   -3.5882   -0.6904 C   0  0  0  0  0  0  0  0  0  0  0  0
    1.6742   -2.4380   -1.4583 C   0  0  0  0  0  0  0  0  0  0  0  0
    2.5847   -1.4650   -1.0178 C   0  0  0  0  0  0  0  0  0  0  0  0
    3.2701   -1.6553    0.1895 C   0  0  0  0  0  0  0  0  0  0  0  0
    3.0389   -2.7982    0.9692 C   0  0  0  0  0  0  0  0  0  0  0  0
    2.1229   -3.7645    0.5242 C   0  0  0  0  0  0  0  0  0  0  0  0
    3.8220   -3.0073    2.2378 C   0  0  0  0  0  0  0  0  0  0  0  0
    4.9058   -4.4719    2.1152 S   0  0  0  0  0  0  0  0  0  0  0  0
    5.9839   -3.8370    0.7785 C   0  0  0  0  0  0  0  0  0  0  0  0
    7.1198   -4.8177    0.4629 C   0  0  1  0  0  0  0  0  0  0  0  0
    6.6129   -6.2052    0.1535 C   0  0  0  0  0  0  0  0  0  0  0  0
    5.6452   -6.4307   -0.8715 N   0  0  0  0  0  0  0  0  0  0  0  0
    7.0534   -7.1832    0.8157 O   0  0  0  0  0  0  0  0  0  0  0  0
    7.8978   -4.3255   -0.6751 N   0  0  0  0  0  0  0  0  0  0  0  0
    9.2729   -3.9199   -0.5989 C   0  0  0  0  0  0  0  0  0  0  0  0
   10.0114   -4.0828   -1.6094 O   0  0  0  0  0  0  0  0  0  0  0  0
    9.8591   -3.3083    0.6461 C   0  0  1  0  0  0  0  0  0  0  0  0
   10.6855   -4.3376    1.4179 C   0  0  0  0  0  0  0  0  0  0  0  0
   10.7111   -2.1714    0.2846 N   0  0  0  0  0  0  0  0  0  0  0  0
   10.6221   -0.9181    0.9618 C   0  0  0  0  0  0  0  0  0  0  0  0
   11.3089   -0.7334    2.0110 O   0  0  0  0  0  0  0  0  0  0  0  0
    9.8635    0.2221    0.3293 C   0  0  1  0  0  0  0  0  0  0  0  0
    8.3783   -0.1133    0.2063 C   0  0  0  0  0  0  0  0  0  0  0  0
   10.0245    1.4527    1.1053 N   0  0  0  0  0  0  0  0  0  0  0  0
   11.0342    2.4061    0.7761 C   0  0  0  0  0  0  0  0  0  0  0  0
   12.1743    2.3097    1.3040 O   0  0  0  0  0  0  0  0  0  0  0  0
   10.7516    3.5430   -0.1721 C   0  0  1  0  0  0  0  0  0  0  0  0
   10.9223    3.1166   -1.6276 C   0  0  0  0  0  0  0  0  0  0  0  0
    9.3834    4.0391    0.0459 N   0  0  0  0  0  0  0  0  0  0  0  0
    9.1075    5.3769    0.5029 C   0  0  0  0  0  0  0  0  0  0  0  0
   10.0375    6.0909    0.9720 O   0  0  0  0  0  0  0  0  0  0  0  0
    7.7010    5.9102    0.5116 C   0  0  1  0  0  0  0  0  0  0  0  0
    7.0548    5.7666   -0.8807 C   0  0  0  0  0  0  0  0  0  0  0  0
    6.9178    5.2197    1.5475 N   0  0  0  0  0  0  0  0  0  0  0  0
    5.4881    5.2046    1.5574 C   0  0  0  0  0  0  0  0  0  0  0  0
    4.8501    6.2893    1.6395 O   0  0  0  0  0  0  0  0  0  0  0  0
    4.7519    3.9135    1.3136 C   0  0  1  0  0  0  0  0  0  0  0  0
    5.5081    2.7038    1.8907 C   0  0  0  0  0  0  0  0  0  0  0  0
    3.3983    3.9610    1.8790 N   0  0  0  0  0  0  0  0  0  0  0  0
    2.3287    3.1115    1.4316 C   0  0  0  0  0  0  0  0  0  0  0  0
    1.3842    2.8536    2.2260 O   0  0  0  0  0  0  0  0  0  0  0  0
    2.3172    2.5408    0.0273 C   0  0  1  0  0  0  0  0  0  0  0  0
    1.3208    1.3803   -0.1872 C   0  0  0  0  0  0  0  0  0  0  0  0
    1.3305    0.8044   -1.9242 S   0  0  0  0  0  0  0  0  0  0  0  0
    2.8256   -0.2400   -1.8466 C   0  0  0  0  0  0  0  0  0  0  0  0
    2.1512    3.6063   -0.9729 N   0  0  0  0  0  0  0  0  0  0  0  0
    0.9405    4.3185   -1.2925 C   0  0  0  0  0  0  0  0  0  0  0  0
    0.8615    4.8906   -2.4160 O   0  0  0  0  0  0  0  0  0  0  0  0
   -0.1741    4.5385   -0.2975 C   0  0  1  0  0  0  0  0  0  0  0  0
   -0.0329    5.9114    0.3621 C   0  0  0  0  0  0  0  0  0  0  0  0
   -1.4801    4.3676   -0.9513 N   0  0  0  0  0  0  0  0  0  0  0  0
   -2.1582    5.4057   -1.6662 C   0  0  0  0  0  0  0  0  0  0  0  0
   -1.9422    5.5540   -2.8992 O   0  0  0  0  0  0  0  0  0  0  0  0
   -3.2108    6.2335   -0.9722 C   0  0  1  0  0  0  0  0  0  0  0  0
   -2.9712    7.7280   -1.1790 C   0  0  0  0  0  0  0  0  0  0  0  0
   -4.5324    5.8659   -1.4817 N   0  0  0  0  0  0  0  0  0  0  0  0
   -5.2830    4.8001   -0.8946 C   0  0  0  0  0  0  0  0  0  0  0  0
   -5.1010    3.6231   -1.2972 O   0  0  0  0  0  0  0  0  0  0  0  0
   -6.3150    5.0764    0.1666 C   0  0  1  0  0  0  0  0  0  0  0  0
   -5.6687    5.6793    1.4162 C   0  0  0  0  0  0  0  0  0  0  0  0
   -7.3481    5.9778   -0.3501 N   0  0  0  0  0  0  0  0  0  0  0  0
   -8.6346    6.0621    0.2746 C   0  0  0  0  0  0  0  0  0  0  0  0
   -8.8896    7.0441    1.0246 O   0  0  0  0  0  0  0  0  0  0  0  0
   -9.7452    5.1119   -0.0961 C   0  0  1  0  0  0  0  0  0  0  0  0
  -10.1774    5.3600   -1.5411 C   0  0  0  0  0  0  0  0  0  0  0  0
   -9.3390    3.7129    0.0945 N   0  0  0  0  0  0  0  0  0  0  0  0
   -9.3584    3.1250    1.3995 C   0  0  0  0  0  0  0  0  0  0  0  0
   -8.7261    3.6802    2.3407 O   0  0  0  0  0  0  0  0  0  0  0  0
  -10.1774    1.8925    1.6806 C   0  0  1  0  0  0  0  0  0  0  0  0
  -11.6667    2.2031    1.5362 C   0  0  0  0  0  0  0  0  0  0  0  0
   -9.8138    0.7903    0.7910 N   0  0  0  0  0  0  0  0  0  0  0  0
   -9.3837   -0.4740    1.3068 C   0  0  0  0  0  0  0  0  0  0  0  0
   -8.6613   -0.5234    2.3397 O   0  0  0  0  0  0  0  0  0  0  0  0
   -9.8076   -1.7624    0.6416 C   0  0  1  0  0  0  0  0  0  0  0  0
  -11.3020   -1.7574    0.3199 C   0  0  0  0  0  0  0  0  0  0  0  0
   -9.0331   -1.9885   -0.5845 N   0  0  0  0  0  0  0  0  0  0  0  0
   -8.8170   -3.2797   -1.1864 C   0  0  0  0  0  0  0  0  0  0  0  0
   -8.3894   -3.3214   -2.3760 O   0  0  0  0  0  0  0  0  0  0  0  0
   -9.0214   -4.5816   -0.4221 C   0  0  1  0  0  0  0  0  0  0  0  0
   -9.2972   -5.7654   -1.3700 C   0  0  0  0  0  0  0  0  0  0  0  0
   -7.8732   -4.9126    0.4452 N   0  0  0  0  0  0  0  0  0  0  0  0
   -6.4959   -4.7644    0.0346 C   0  0  0  0  0  0  0  0  0  0  0  0
   -6.1374   -3.7281   -0.5843 O   0  0  0  0  0  0  0  0  0  0  0  0
   -5.4473   -5.8328    0.2748 C   0  0  1  0  0  0  0  0  0  0  0  0
   -5.7600   -6.7682    1.4516 C   0  0  0  0  0  0  0  0  0  0  0  0
   -5.2829   -6.6217   -0.9533 N   0  0  0  0  0  0  0  0  0  0  0  0
   -4.0308   -7.1387   -1.4369 C   0  0  0  0  0  0  0  0  0  0  0  0
   -4.0238   -7.7569   -2.5400 O   0  0  0  0  0  0  0  0  0  0  0  0
   -0.6696   -9.1379    2.1620 H   0  0  0  0  0  0  0  0  0  0  0  0
   -1.1929   -7.4477    1.8168 H   0  0  0  0  0  0  0  0  0  0  0  0
   -2.3984   -8.8020    1.7603 H   0  0  0  0  0  0  0  0  0  0  0  0
   -1.5917   -8.3064   -1.9287 H   0  0  0  0  0  0  0  0  0  0  0  0
   -2.9269   -6.8199    0.3684 H   0  0  0  0  0  0  0  0  0  0  0  0
   -2.8415   -4.8334   -1.3819 H   0  0  0  0  0  0  0  0  0  0  0  0
   -1.6057   -5.8158   -2.2139 H   0  0  0  0  0  0  0  0  0  0  0  0
    1.0423   -5.6005   -1.3582 H   0  0  0  0  0  0  0  0  0  0  0  0
    0.0737   -4.3306   -2.1812 H   0  0  0  0  0  0  0  0  0  0  0  0
    1.1663   -2.3018   -2.4013 H   0  0  0  0  0  0  0  0  0  0  0  0
    3.9835   -0.9094    0.5223 H   0  0  0  0  0  0  0  0  0  0  0  0
    1.9401   -4.6435    1.1243 H   0  0  0  0  0  0  0  0  0  0  0  0
    3.1109   -3.1589    3.0811 H   0  0  0  0  0  0  0  0  0  0  0  0
    4.4463   -2.1170    2.4835 H   0  0  0  0  0  0  0  0  0  0  0  0
    5.3738   -3.6552   -0.1295 H   0  0  0  0  0  0  0  0  0  0  0  0
    6.4169   -2.8631    1.1009 H   0  0  0  0  0  0  0  0  0  0  0  0
    7.7662   -4.8854    1.3622 H   0  0  0  0  0  0  0  0  0  0  0  0
    5.2901   -7.3949   -1.0483 H   0  0  0  0  0  0  0  0  0  0  0  0
    5.2455   -5.6426   -1.4269 H   0  0  0  0  0  0  0  0  0  0  0  0
    7.4663   -4.3637   -1.6253 H   0  0  0  0  0  0  0  0  0  0  0  0
    9.0335   -2.9499    1.3032 H   0  0  0  0  0  0  0  0  0  0  0  0
   11.5737   -4.6572    0.8239 H   0  0  0  0  0  0  0  0  0  0  0  0
   10.0737   -5.2342    1.6595 H   0  0  0  0  0  0  0  0  0  0  0  0
   11.0395   -3.8913    2.3717 H   0  0  0  0  0  0  0  0  0  0  0  0
   11.5202   -2.3167   -0.3620 H   0  0  0  0  0  0  0  0  0  0  0  0
   10.2667    0.3668   -0.6966 H   0  0  0  0  0  0  0  0  0  0  0  0
    7.9496   -0.3372    1.2089 H   0  0  0  0  0  0  0  0  0  0  0  0
    8.2207   -0.9834   -0.4634 H   0  0  0  0  0  0  0  0  0  0  0  0
    7.8334    0.7590   -0.2261 H   0  0  0  0  0  0  0  0  0  0  0  0
    9.6653    1.4597    2.0890 H   0  0  0  0  0  0  0  0  0  0  0  0
   11.4859    4.3526    0.0262 H   0  0  0  0  0  0  0  0  0  0  0  0
   10.1803    2.3386   -1.9082 H   0  0  0  0  0  0  0  0  0  0  0  0
   11.9502    2.7215   -1.7959 H   0  0  0  0  0  0  0  0  0  0  0  0
   10.7711    3.9941   -2.2937 H   0  0  0  0  0  0  0  0  0  0  0  0
    8.5827    3.4376   -0.2397 H   0  0  0  0  0  0  0  0  0  0  0  0
    7.7220    6.9949    0.7539 H   0  0  0  0  0  0  0  0  0  0  0  0
    6.1165    6.3635   -0.9312 H   0  0  0  0  0  0  0  0  0  0  0  0
    6.8028    4.7059   -1.0995 H   0  0  0  0  0  0  0  0  0  0  0  0
    7.7487    6.1447   -1.6673 H   0  0  0  0  0  0  0  0  0  0  0  0
    7.3914    5.0003    2.4588 H   0  0  0  0  0  0  0  0  0  0  0  0
    4.7033    3.7993    0.2132 H   0  0  0  0  0  0  0  0  0  0  0  0
    5.6131    2.8087    2.9906 H   0  0  0  0  0  0  0  0  0  0  0  0
    6.5161    2.6132    1.4323 H   0  0  0  0  0  0  0  0  0  0  0  0
    4.9512    1.7716    1.6754 H   0  0  0  0  0  0  0  0  0  0  0  0
    3.2637    4.4666    2.7907 H   0  0  0  0  0  0  0  0  0  0  0  0
    3.3191    2.0867   -0.1194 H   0  0  0  0  0  0  0  0  0  0  0  0
    0.2861    1.6926    0.0584 H   0  0  0  0  0  0  0  0  0  0  0  0
    1.5786    0.5460    0.4994 H   0  0  0  0  0  0  0  0  0  0  0  0
    3.6815    0.3540   -1.4747 H   0  0  0  0  0  0  0  0  0  0  0  0
    3.1003   -0.5498   -2.8758 H   0  0  0  0  0  0  0  0  0  0  0  0
    2.9719    3.7918   -1.5925 H   0  0  0  0  0  0  0  0  0  0  0  0
   -0.1257    3.8021    0.5178 H   0  0  0  0  0  0  0  0  0  0  0  0
   -0.8819    6.0932    1.0617 H   0  0  0  0  0  0  0  0  0  0  0  0
    0.9141    5.9484    0.9477 H   0  0  0  0  0  0  0  0  0  0  0  0
   -0.0071    6.7262   -0.3953 H   0  0  0  0  0  0  0  0  0  0  0  0
   -1.7694    3.3906   -1.1799 H   0  0  0  0  0  0  0  0  0  0  0  0
   -3.1629    6.0275    0.1149 H   0  0  0  0  0  0  0  0  0  0  0  0
   -2.8785    7.9654   -2.2594 H   0  0  0  0  0  0  0  0  0  0  0  0
   -2.0501    8.0476   -0.6517 H   0  0  0  0  0  0  0  0  0  0  0  0
   -3.8211    8.3051   -0.7728 H   0  0  0  0  0  0  0  0  0  0  0  0
   -4.7623    6.1152   -2.4706 H   0  0  0  0  0  0  0  0  0  0  0  0
   -6.7763    4.1077    0.4597 H   0  0  0  0  0  0  0  0  0  0  0  0
   -6.4164    5.7569    2.2367 H   0  0  0  0  0  0  0  0  0  0  0  0
   -5.2739    6.6941    1.2036 H   0  0  0  0  0  0  0  0  0  0  0  0
   -4.8329    5.0318    1.7696 H   0  0  0  0  0  0  0  0  0  0  0  0
   -7.0184    6.8447   -0.8364 H   0  0  0  0  0  0  0  0  0  0  0  0
  -10.6273    5.3111    0.5542 H   0  0  0  0  0  0  0  0  0  0  0  0
  -10.9961    4.6540   -1.8149 H   0  0  0  0  0  0  0  0  0  0  0  0
  -10.5523    6.3979   -1.6543 H   0  0  0  0  0  0  0  0  0  0  0  0
   -9.3231    5.2116   -2.2405 H   0  0  0  0  0  0  0  0  0  0  0  0
   -9.1689    3.1030   -0.7434 H   0  0  0  0  0  0  0  0  0  0  0  0
  -10.0077    1.5905    2.7399 H   0  0  0  0  0  0  0  0  0  0  0  0
  -11.8919    2.5606    0.5056 H   0  0  0  0  0  0  0  0  0  0  0  0
  -11.9626    2.9856    2.2603 H   0  0  0  0  0  0  0  0  0  0  0  0
  -12.2641    1.2879    1.7372 H   0  0  0  0  0  0  0  0  0  0  0  0
  -10.0163    0.8814   -0.2381 H   0  0  0  0  0  0  0  0  0  0  0  0
   -9.6093   -2.5887    1.3664 H   0  0  0  0  0  0  0  0  0  0  0  0
  -11.8957   -1.5195    1.2251 H   0  0  0  0  0  0  0  0  0  0  0  0
  -11.5321   -1.0089   -0.4740 H   0  0  0  0  0  0  0  0  0  0  0  0
  -11.6190   -2.7570   -0.0525 H   0  0  0  0  0  0  0  0  0  0  0  0
   -8.8304   -1.1543   -1.1874 H   0  0  0  0  0  0  0  0  0  0  0  0
   -9.9241   -4.4889    0.2197 H   0  0  0  0  0  0  0  0  0  0  0  0
  -10.2190   -5.5679   -1.9620 H   0  0  0  0  0  0  0  0  0  0  0  0
   -9.4495   -6.6913   -0.7812 H   0  0  0  0  0  0  0  0  0  0  0  0
   -8.4496   -5.9229   -2.0647 H   0  0  0  0  0  0  0  0  0  0  0  0
   -8.0799   -5.6296    1.1703 H   0  0  0  0  0  0  0  0  0  0  0  0
   -4.5041   -5.2919    0.5172 H   0  0  0  0  0  0  0  0  0  0  0  0
   -6.6101   -7.4423    1.2039 H   0  0  0  0  0  0  0  0  0  0  0  0
   -6.0003   -6.1822    2.3686 H   0  0  0  0  0  0  0  0  0  0  0  0
   -4.8689   -7.4038    1.6709 H   0  0  0  0  0  0  0  0  0  0  0  0
   -6.1418   -6.8584   -1.5014 H   0  0  0  0  0  0  0  0  0  0  0  0
  1  2  1  0
  2  3  2  0
  2  4  1  0
  4  5  1  0
  5  6  1  0
  6  7  1  0
  7  8  1  0
  8  9  1  0
  9 10  2  0
 10 11  1  0
 11 12  2  0
 12 13  1  0
 13 14  2  0
 13 15  1  0
 15 16  1  0
 16 17  1  0
 17 18  1  0
 18 19  1  0
 19 20  1  0
 19 21  2  0
 18 22  1  0
 22 23  1  0
 23 24  2  0
 23 25  1  0
 25 26  1  0
 25 27  1  0
 27 28  1  0
 28 29  2  0
 28 30  1  0
 30 31  1  0
 30 32  1  0
 32 33  1  0
 33 34  2  0
 33 35  1  0
 35 36  1  0
 35 37  1  0
 37 38  1  0
 38 39  2  0
 38 40  1  0
 40 41  1  0
 40 42  1  0
 42 43  1  0
 43 44  2  0
 43 45  1  0
 45 46  1  0
 45 47  1  0
 47 48  1  0
 48 49  2  0
 48 50  1  0
 50 51  1  0
 51 52  1  0
 52 53  1  0
 50 54  1  0
 54 55  1  0
 55 56  2  0
 55 57  1  0
 57 58  1  0
 57 59  1  0
 59 60  1  0
 60 61  2  0
 60 62  1  0
 62 63  1  0
 62 64  1  0
 64 65  1  0
 65 66  2  0
 65 67  1  0
 67 68  1  0
 67 69  1  0
 69 70  1  0
 70 71  2  0
 70 72  1  0
 72 73  1  0
 72 74  1  0
 74 75  1  0
 75 76  2  0
 75 77  1  0
 77 78  1  0
 77 79  1  0
 79 80  1  0
 80 81  2  0
 80 82  1  0
 82 83  1  0
 82 84  1  0
 84 85  1  0
 85 86  2  0
 85 87  1  0
 87 88  1  0
 87 89  1  0
 89 90  1  0
 90 91  2  0
 90 92  1  0
 92 93  1  0
 92 94  1  0
 94 95  1  0
 95 96  2  0
 95  5  1  0
 14  9  1  0
 53 11  1  0
  1 97  1  0
  1 98  1  0
  1 99  1  0
  4100  1  0
  5101  1  1
  6102  1  0
  6103  1  0
  8104  1  0
  8105  1  0
 10106  1  0
 12107  1  0
 14108  1  0
 15109  1  0
 15110  1  0
 17111  1  0
 17112  1  0
 18113  1  1
 20114  1  0
 20115  1  0
 22116  1  0
 25117  1  1
 26118  1  0
 26119  1  0
 26120  1  0
 27121  1  0
 30122  1  6
 31123  1  0
 31124  1  0
 31125  1  0
 32126  1  0
 35127  1  1
 36128  1  0
 36129  1  0
 36130  1  0
 37131  1  0
 40132  1  1
 41133  1  0
 41134  1  0
 41135  1  0
 42136  1  0
 45137  1  6
 46138  1  0
 46139  1  0
 46140  1  0
 47141  1  0
 50142  1  6
 51143  1  0
 51144  1  0
 53145  1  0
 53146  1  0
 54147  1  0
 57148  1  1
 58149  1  0
 58150  1  0
 58151  1  0
 59152  1  0
 62153  1  1
 63154  1  0
 63155  1  0
 63156  1  0
 64157  1  0
 67158  1  1
 68159  1  0
 68160  1  0
 68161  1  0
 69162  1  0
 72163  1  1
 73164  1  0
 73165  1  0
 73166  1  0
 74167  1  0
 77168  1  1
 78169  1  0
 78170  1  0
 78171  1  0
 79172  1  0
 82173  1  1
 83174  1  0
 83175  1  0
 83176  1  0
 84177  1  0
 87178  1  1
 88179  1  0
 88180  1  0
 88181  1  0
 89182  1  0
 92183  1  1
 93184  1  0
 93185  1  0
 93186  1  0
 94187  1  0
M  END
