
     RDKit          3D

127129  0  0  0  0  0  0  0  0999 V2000
    9.6596    1.1485    2.2151 C   0  0  0  0  0  0  0  0  0  0  0  0
    9.6958    2.1220    1.0762 C   0  0  0  0  0  0  0  0  0  0  0  0
   10.6038    2.9975    1.0439 O   0  0  0  0  0  0  0  0  0  0  0  0
    8.7285    2.0854    0.0129 N   0  0  0  0  0  0  0  0  0  0  0  0
    7.4689    1.3284    0.0585 C   0  0  1  0  0  0  0  0  0  0  0  0
    6.2828    2.2996    0.1531 C   0  0  0  0  0  0  0  0  0  0  0  0
    6.1016    2.9142    1.8750 S   0  0  0  0  0  0  0  0  0  0  0  0
    4.6874    4.0786    1.6334 C   0  0  0  0  0  0  0  0  0  0  0  0
    3.5554    3.4924    0.8249 C   0  0  0  0  0  0  0  0  0  0  0  0
    2.9982    4.2197   -0.2386 C   0  0  0  0  0  0  0  0  0  0  0  0
    2.1098    3.6044   -1.1339 C   0  0  0  0  0  0  0  0  0  0  0  0
    1.8587    2.2291   -1.0145 C   0  0  0  0  0  0  0  0  0  0  0  0
    2.4202    1.4958    0.0431 C   0  0  0  0  0  0  0  0  0  0  0  0
    3.1551    2.1667    1.0302 C   0  0  0  0  0  0  0  0  0  0  0  0
    2.6269    0.0171   -0.1092 C   0  0  0  0  0  0  0  0  0  0  0  0
    1.0813   -0.9221   -0.3207 S   0  0  0  0  0  0  0  0  0  0  0  0
    1.7755   -2.1544   -1.5021 C   0  0  0  0  0  0  0  0  0  0  0  0
    3.0578   -2.8754   -0.9911 C   0  0  2  0  0  0  0  0  0  0  0  0
    4.1829   -2.5673   -1.8892 N   0  0  0  0  0  0  0  0  0  0  0  0
    5.5515   -2.6317   -1.4658 C   0  0  0  0  0  0  0  0  0  0  0  0
    6.3123   -3.4873   -1.9920 O   0  0  0  0  0  0  0  0  0  0  0  0
    6.1197   -1.6436   -0.4713 C   0  0  1  0  0  0  0  0  0  0  0  0
    6.5471   -2.3674    0.8088 C   0  0  0  0  0  0  0  0  0  0  0  0
    7.2755   -0.9633   -1.0674 N   0  0  0  0  0  0  0  0  0  0  0  0
    7.3629    0.4677   -1.1775 C   0  0  0  0  0  0  0  0  0  0  0  0
    7.3191    1.0021   -2.3146 O   0  0  0  0  0  0  0  0  0  0  0  0
    2.8731   -4.3773   -0.9025 C   0  0  0  0  0  0  0  0  0  0  0  0
    3.3265   -5.1061   -1.8239 O   0  0  0  0  0  0  0  0  0  0  0  0
    2.2692   -5.0154    0.2385 N   0  0  0  0  0  0  0  0  0  0  0  0
    1.1372   -4.4669    0.9985 C   0  0  2  0  0  0  0  0  0  0  0  0
    1.6390   -3.6995    2.2283 C   0  0  0  0  0  0  0  0  0  0  0  0
    0.2200   -5.5875    1.4304 C   0  0  0  0  0  0  0  0  0  0  0  0
    0.6333   -6.4244    2.2777 O   0  0  0  0  0  0  0  0  0  0  0  0
   -1.1355   -5.6964    0.9600 N   0  0  0  0  0  0  0  0  0  0  0  0
   -1.5811   -5.6597   -0.4425 C   0  0  2  0  0  0  0  0  0  0  0  0
   -0.4721   -5.9820   -1.4531 C   0  0  0  0  0  0  0  0  0  0  0  0
   -2.2684   -4.3588   -0.7515 C   0  0  0  0  0  0  0  0  0  0  0  0
   -1.7222   -3.2551   -0.4759 O   0  0  0  0  0  0  0  0  0  0  0  0
   -3.5557   -4.3783   -1.3735 N   0  0  0  0  0  0  0  0  0  0  0  0
   -4.7330   -3.8295   -0.6858 C   0  0  2  0  0  0  0  0  0  0  0  0
   -5.0017   -4.6581    0.5764 C   0  0  0  0  0  0  0  0  0  0  0  0
   -5.9635   -3.8240   -1.5813 C   0  0  0  0  0  0  0  0  0  0  0  0
   -5.9513   -4.4753   -2.6618 O   0  0  0  0  0  0  0  0  0  0  0  0
   -7.1739   -3.1296   -1.2221 N   0  0  0  0  0  0  0  0  0  0  0  0
   -7.3055   -2.1616   -0.1317 C   0  0  2  0  0  0  0  0  0  0  0  0
   -8.5194   -2.5108    0.7307 C   0  0  0  0  0  0  0  0  0  0  0  0
   -7.4265   -0.7752   -0.6988 C   0  0  0  0  0  0  0  0  0  0  0  0
   -8.4932   -0.4112   -1.2630 O   0  0  0  0  0  0  0  0  0  0  0  0
   -6.3097    0.1190   -0.6208 N   0  0  0  0  0  0  0  0  0  0  0  0
   -6.3164    1.3504    0.1759 C   0  0  2  0  0  0  0  0  0  0  0  0
   -6.7998    1.0756    1.6065 C   0  0  0  0  0  0  0  0  0  0  0  0
   -7.1420    2.4378   -0.4764 C   0  0  0  0  0  0  0  0  0  0  0  0
   -8.3562    2.2260   -0.7501 O   0  0  0  0  0  0  0  0  0  0  0  0
   -6.5898    3.7291   -0.7668 N   0  0  0  0  0  0  0  0  0  0  0  0
   -5.7183    4.4547    0.1621 C   0  0  2  0  0  0  0  0  0  0  0  0
   -6.5285    5.5072    0.9227 C   0  0  0  0  0  0  0  0  0  0  0  0
   -4.5899    5.0957   -0.5999 C   0  0  0  0  0  0  0  0  0  0  0  0
   -4.8360    6.0218   -1.4171 O   0  0  0  0  0  0  0  0  0  0  0  0
   -3.2370    4.6588   -0.3915 N   0  0  0  0  0  0  0  0  0  0  0  0
   -2.0915    5.5219   -0.6985 C   0  0  1  0  0  0  0  0  0  0  0  0
   -1.7250    6.3110    0.5306 C   0  0  0  0  0  0  0  0  0  0  0  0
   -1.6478    7.7370    0.4774 N   0  0  0  0  0  0  0  0  0  0  0  0
   -1.5051    5.7189    1.6226 O   0  0  0  0  0  0  0  0  0  0  0  0
   -0.9112    4.6683   -1.1812 C   0  0  0  0  0  0  0  0  0  0  0  0
    0.4775    5.7399   -1.7157 S   0  0  0  0  0  0  0  0  0  0  0  0
    1.5528    4.3808   -2.2928 C   0  0  0  0  0  0  0  0  0  0  0  0
    9.6441    0.1143    1.8143 H   0  0  0  0  0  0  0  0  0  0  0  0
    8.7520    1.3222    2.8282 H   0  0  0  0  0  0  0  0  0  0  0  0
   10.5561    1.2662    2.8592 H   0  0  0  0  0  0  0  0  0  0  0  0
    8.8603    2.7582   -0.7757 H   0  0  0  0  0  0  0  0  0  0  0  0
    7.4446    0.6585    0.9389 H   0  0  0  0  0  0  0  0  0  0  0  0
    5.3699    1.7536   -0.1521 H   0  0  0  0  0  0  0  0  0  0  0  0
    6.4169    3.1610   -0.5405 H   0  0  0  0  0  0  0  0  0  0  0  0
    4.2996    4.3529    2.6355 H   0  0  0  0  0  0  0  0  0  0  0  0
    5.0784    5.0022    1.1543 H   0  0  0  0  0  0  0  0  0  0  0  0
    3.2836    5.2560   -0.3931 H   0  0  0  0  0  0  0  0  0  0  0  0
    1.2981    1.7138   -1.7844 H   0  0  0  0  0  0  0  0  0  0  0  0
    3.6065    1.5971    1.8369 H   0  0  0  0  0  0  0  0  0  0  0  0
    3.2906   -0.1209   -0.9867 H   0  0  0  0  0  0  0  0  0  0  0  0
    3.1410   -0.3929    0.7834 H   0  0  0  0  0  0  0  0  0  0  0  0
    0.9764   -2.8835   -1.7454 H   0  0  0  0  0  0  0  0  0  0  0  0
    1.9789   -1.6139   -2.4507 H   0  0  0  0  0  0  0  0  0  0  0  0
    3.3309   -2.5340    0.0214 H   0  0  0  0  0  0  0  0  0  0  0  0
    4.0215   -2.7288   -2.9099 H   0  0  0  0  0  0  0  0  0  0  0  0
    5.3462   -0.8957   -0.2006 H   0  0  0  0  0  0  0  0  0  0  0  0
    5.6542   -2.8092    1.3031 H   0  0  0  0  0  0  0  0  0  0  0  0
    7.2706   -3.1763    0.5839 H   0  0  0  0  0  0  0  0  0  0  0  0
    7.0122   -1.6509    1.5143 H   0  0  0  0  0  0  0  0  0  0  0  0
    8.0100   -1.5305   -1.5486 H   0  0  0  0  0  0  0  0  0  0  0  0
    2.5173   -6.0217    0.3864 H   0  0  0  0  0  0  0  0  0  0  0  0
    0.5635   -3.7667    0.3672 H   0  0  0  0  0  0  0  0  0  0  0  0
    2.2942   -4.3458    2.8497 H   0  0  0  0  0  0  0  0  0  0  0  0
    0.7776   -3.3609    2.8448 H   0  0  0  0  0  0  0  0  0  0  0  0
    2.2104   -2.7995    1.9320 H   0  0  0  0  0  0  0  0  0  0  0  0
   -1.8318   -6.0658    1.6482 H   0  0  0  0  0  0  0  0  0  0  0  0
   -2.3381   -6.4689   -0.5631 H   0  0  0  0  0  0  0  0  0  0  0  0
    0.2453   -5.1452   -1.5522 H   0  0  0  0  0  0  0  0  0  0  0  0
   -0.9214   -6.1555   -2.4522 H   0  0  0  0  0  0  0  0  0  0  0  0
    0.0715   -6.9013   -1.1500 H   0  0  0  0  0  0  0  0  0  0  0  0
   -3.6562   -4.9648   -2.2359 H   0  0  0  0  0  0  0  0  0  0  0  0
   -4.5006   -2.7807   -0.4069 H   0  0  0  0  0  0  0  0  0  0  0  0
   -5.9485   -4.3593    1.0715 H   0  0  0  0  0  0  0  0  0  0  0  0
   -4.1753   -4.5138    1.3005 H   0  0  0  0  0  0  0  0  0  0  0  0
   -5.0675   -5.7361    0.3177 H   0  0  0  0  0  0  0  0  0  0  0  0
   -7.9928   -3.2519   -1.8607 H   0  0  0  0  0  0  0  0  0  0  0  0
   -6.4215   -2.1791    0.5331 H   0  0  0  0  0  0  0  0  0  0  0  0
   -9.4473   -2.5271    0.1204 H   0  0  0  0  0  0  0  0  0  0  0  0
   -8.6401   -1.7648    1.5482 H   0  0  0  0  0  0  0  0  0  0  0  0
   -8.3783   -3.5135    1.1912 H   0  0  0  0  0  0  0  0  0  0  0  0
   -5.3741   -0.2883   -0.8454 H   0  0  0  0  0  0  0  0  0  0  0  0
   -5.2627    1.6895    0.2504 H   0  0  0  0  0  0  0  0  0  0  0  0
   -6.1907    0.2667    2.0610 H   0  0  0  0  0  0  0  0  0  0  0  0
   -7.8685    0.7642    1.6139 H   0  0  0  0  0  0  0  0  0  0  0  0
   -6.6930    1.9894    2.2288 H   0  0  0  0  0  0  0  0  0  0  0  0
   -7.0500    4.2826   -1.5226 H   0  0  0  0  0  0  0  0  0  0  0  0
   -5.2939    3.7678    0.9234 H   0  0  0  0  0  0  0  0  0  0  0  0
   -6.9852    6.2374    0.2230 H   0  0  0  0  0  0  0  0  0  0  0  0
   -7.3378    5.0121    1.4997 H   0  0  0  0  0  0  0  0  0  0  0  0
   -5.8718    6.0507    1.6361 H   0  0  0  0  0  0  0  0  0  0  0  0
   -3.0766    3.8593    0.2629 H   0  0  0  0  0  0  0  0  0  0  0  0
   -2.3577    6.2177   -1.5231 H   0  0  0  0  0  0  0  0  0  0  0  0
   -1.5327    8.2924    1.3592 H   0  0  0  0  0  0  0  0  0  0  0  0
   -1.7288    8.2472   -0.4274 H   0  0  0  0  0  0  0  0  0  0  0  0
   -1.2411    4.0531   -2.0463 H   0  0  0  0  0  0  0  0  0  0  0  0
   -0.5735    3.9858   -0.3733 H   0  0  0  0  0  0  0  0  0  0  0  0
    0.9839    3.7279   -2.9931 H   0  0  0  0  0  0  0  0  0  0  0  0
    2.3917    4.8195   -2.8705 H   0  0  0  0  0  0  0  0  0  0  0  0
  1  2  1  0
  2  3  2  0
  2  4  1  0
  4  5  1  0
  5  6  1  0
  6  7  1  0
  7  8  1  0
  8  9  1  0
  9 10  1  0
 10 11  2  0
 11 12  1  0
 12 13  2  0
 13 14  1  0
 13 15  1  0
 15 16  1  0
 16 17  1  0
 17 18  1  0
 18 19  1  0
 19 20  1  0
 20 21  2  0
 20 22  1  0
 22 23  1  0
 22 24  1  0
 24 25  1  0
 25 26  2  0
 18 27  1  0
 27 28  2  0
 27 29  1  0
 29 30  1  0
 30 31  1  0
 30 32  1  0
 32 33  2  0
 32 34  1  0
 34 35  1  0
 35 36  1  0
 35 37  1  0
 37 38  2  0
 37 39  1  0
 39 40  1  0
 40 41  1  0
 40 42  1  0
 42 43  2  0
 42 44  1  0
 44 45  1  0
 45 46  1  0
 45 47  1  0
 47 48  2  0
 47 49  1  0
 49 50  1  0
 50 51  1  0
 50 52  1  0
 52 53  2  0
 52 54  1  0
 54 55  1  0
 55 56  1  0
 55 57  1  0
 57 58  2  0
 57 59  1  0
 59 60  1  0
 60 61  1  0
 61 62  1  0
 61 63  2  0
 60 64  1  0
 64 65  1  0
 65 66  1  0
 25  5  1  0
 14  9  2  0
 66 11  1  0
  1 67  1  0
  1 68  1  0
  1 69  1  0
  4 70  1  0
  5 71  1  1
  6 72  1  0
  6 73  1  0
  8 74  1  0
  8 75  1  0
 10 76  1  0
 12 77  1  0
 14 78  1  0
 15 79  1  0
 15 80  1  0
 17 81  1  0
 17 82  1  0
 18 83  1  1
 19 84  1  0
 22 85  1  1
 23 86  1  0
 23 87  1  0
 23 88  1  0
 24 89  1  0
 29 90  1  0
 30 91  1  6
 31 92  1  0
 31 93  1  0
 31 94  1  0
 34 95  1  0
 35 96  1  1
 36 97  1  0
 36 98  1  0
 36 99  1  0
 39100  1  0
 40101  1  1
 41102  1  0
 41103  1  0
 41104  1  0
 44105  1  0
 45106  1  1
 46107  1  0
 46108  1  0
 46109  1  0
 49110  1  0
 50111  1  1
 51112  1  0
 51113  1  0
 51114  1  0
 54115  1  0
 55116  1  1
 56117  1  0
 56118  1  0
 56119  1  0
 59120  1  0
 60121  1  6
 62122  1  0
 62123  1  0
 64124  1  0
 64125  1  0
 66126  1  0
 66127  1  0
M  END
