
     RDKit          3D

187189  0  0  0  0  0  0  0  0999 V2000
    3.3890   -9.0066   -0.4722 C   0  0  0  0  0  0  0  0  0  0  0  0
    3.0960   -8.6706    0.9606 C   0  0  0  0  0  0  0  0  0  0  0  0
    2.9304   -9.6127    1.7797 O   0  0  0  0  0  0  0  0  0  0  0  0
    3.0065   -7.3121    1.4214 N   0  0  0  0  0  0  0  0  0  0  0  0
    3.1221   -6.1419    0.5493 C   0  0  1  0  0  0  0  0  0  0  0  0
    1.7316   -5.7719   -0.0089 C   0  0  0  0  0  0  0  0  0  0  0  0
    1.8831   -4.4843   -1.3092 S   0  0  0  0  0  0  0  0  0  0  0  0
    0.2576   -4.7652   -2.1033 C   0  0  0  0  0  0  0  0  0  0  0  0
   -0.7846   -3.8406   -1.5389 C   0  0  0  0  0  0  0  0  0  0  0  0
   -1.8165   -4.3379   -0.7372 C   0  0  0  0  0  0  0  0  0  0  0  0
   -2.8579   -3.4974   -0.3068 C   0  0  0  0  0  0  0  0  0  0  0  0
   -2.8251   -2.1361   -0.6432 C   0  0  0  0  0  0  0  0  0  0  0  0
   -1.7768   -1.6148   -1.4093 C   0  0  0  0  0  0  0  0  0  0  0  0
   -0.7545   -2.4676   -1.8488 C   0  0  0  0  0  0  0  0  0  0  0  0
   -1.6764   -0.1335   -1.6435 C   0  0  0  0  0  0  0  0  0  0  0  0
   -0.6819    0.5950   -0.2972 S   0  0  0  0  0  0  0  0  0  0  0  0
   -1.9353    1.7149    0.4200 C   0  0  0  0  0  0  0  0  0  0  0  0
   -1.8535    3.1807   -0.0612 C   0  0  1  0  0  0  0  0  0  0  0  0
   -0.4607    3.6530   -0.1387 N   0  0  0  0  0  0  0  0  0  0  0  0
   -0.0795    5.0255    0.0530 C   0  0  0  0  0  0  0  0  0  0  0  0
   -0.9529    5.9235    0.1461 O   0  0  0  0  0  0  0  0  0  0  0  0
    1.3729    5.3996    0.2099 C   0  0  1  0  0  0  0  0  0  0  0  0
    1.9460    4.7037    1.4503 C   0  0  0  0  0  0  0  0  0  0  0  0
    2.1370    5.0492   -0.9906 N   0  0  0  0  0  0  0  0  0  0  0  0
    3.5347    5.3493   -1.1521 C   0  0  0  0  0  0  0  0  0  0  0  0
    4.3246    4.4130   -1.4662 O   0  0  0  0  0  0  0  0  0  0  0  0
    4.0730    6.7560   -1.0692 C   0  0  1  0  0  0  0  0  0  0  0  0
    3.1905    7.7475   -1.8281 C   0  0  0  0  0  0  0  0  0  0  0  0
    4.2343    7.1699    0.3294 N   0  0  0  0  0  0  0  0  0  0  0  0
    5.4222    6.9236    1.1011 C   0  0  0  0  0  0  0  0  0  0  0  0
    5.3037    6.6356    2.3194 O   0  0  0  0  0  0  0  0  0  0  0  0
    6.8039    6.9923    0.4809 C   0  0  1  0  0  0  0  0  0  0  0  0
    7.0426    8.3828   -0.1244 C   0  0  0  0  0  0  0  0  0  0  0  0
    7.8402    6.7358    1.4910 N   0  0  0  0  0  0  0  0  0  0  0  0
    9.1233    6.1616    1.1918 C   0  0  0  0  0  0  0  0  0  0  0  0
   10.1317    6.5585    1.8320 O   0  0  0  0  0  0  0  0  0  0  0  0
    9.3039    5.1349    0.0959 C   0  0  1  0  0  0  0  0  0  0  0  0
    9.6500    5.8077   -1.2366 C   0  0  0  0  0  0  0  0  0  0  0  0
   10.3864    4.2039    0.4511 N   0  0  0  0  0  0  0  0  0  0  0  0
   10.3215    2.7663    0.3887 C   0  0  0  0  0  0  0  0  0  0  0  0
   11.3961    2.1160    0.4761 O   0  0  0  0  0  0  0  0  0  0  0  0
    9.0137    2.0207    0.2108 C   0  0  1  0  0  0  0  0  0  0  0  0
    8.5804    1.9878   -1.2641 C   0  0  0  0  0  0  0  0  0  0  0  0
    9.0976    0.6609    0.7657 N   0  0  0  0  0  0  0  0  0  0  0  0
    9.5904   -0.4768    0.0320 C   0  0  0  0  0  0  0  0  0  0  0  0
   10.6686   -0.3761   -0.6178 O   0  0  0  0  0  0  0  0  0  0  0  0
    8.8052   -1.7654   -0.0589 C   0  0  1  0  0  0  0  0  0  0  0  0
    7.5403   -1.7605    0.7996 C   0  0  0  0  0  0  0  0  0  0  0  0
    8.4510   -2.0171   -1.4601 N   0  0  0  0  0  0  0  0  0  0  0  0
    8.0614   -3.2969   -1.9960 C   0  0  0  0  0  0  0  0  0  0  0  0
    7.1634   -3.3148   -2.8818 O   0  0  0  0  0  0  0  0  0  0  0  0
    8.6343   -4.6132   -1.5287 C   0  0  1  0  0  0  0  0  0  0  0  0
   10.1676   -4.6404   -1.5145 C   0  0  0  0  0  0  0  0  0  0  0  0
    8.0647   -4.9941   -0.2335 N   0  0  0  0  0  0  0  0  0  0  0  0
    6.7707   -5.6219   -0.1453 C   0  0  0  0  0  0  0  0  0  0  0  0
    6.1095   -5.8137   -1.2032 O   0  0  0  0  0  0  0  0  0  0  0  0
    6.1405   -6.0358    1.1621 C   0  0  1  0  0  0  0  0  0  0  0  0
    7.1546   -6.3116    2.2811 C   0  0  0  0  0  0  0  0  0  0  0  0
    5.1948   -5.0020    1.5977 N   0  0  0  0  0  0  0  0  0  0  0  0
    3.7861   -5.0044    1.3079 C   0  0  0  0  0  0  0  0  0  0  0  0
    3.0873   -4.0313    1.7055 O   0  0  0  0  0  0  0  0  0  0  0  0
   -2.5383    3.3823   -1.3927 C   0  0  0  0  0  0  0  0  0  0  0  0
   -2.0047    2.8822   -2.4185 O   0  0  0  0  0  0  0  0  0  0  0  0
   -3.6848    4.2499   -1.5821 N   0  0  0  0  0  0  0  0  0  0  0  0
   -4.7799    4.5688   -0.6417 C   0  0  2  0  0  0  0  0  0  0  0  0
   -4.3050    5.4461    0.5319 C   0  0  0  0  0  0  0  0  0  0  0  0
   -5.5329    3.3266   -0.1912 C   0  0  0  0  0  0  0  0  0  0  0  0
   -5.2146    2.2091   -0.6740 O   0  0  0  0  0  0  0  0  0  0  0  0
   -6.6386    3.3947    0.7320 N   0  0  0  0  0  0  0  0  0  0  0  0
   -7.5503    4.5440    0.8474 C   0  0  2  0  0  0  0  0  0  0  0  0
   -7.7422    4.9044    2.3212 C   0  0  0  0  0  0  0  0  0  0  0  0
   -8.8523    4.2421    0.1560 C   0  0  0  0  0  0  0  0  0  0  0  0
   -9.0768    4.7403   -0.9820 O   0  0  0  0  0  0  0  0  0  0  0  0
   -9.8497    3.4128    0.7759 N   0  0  0  0  0  0  0  0  0  0  0  0
  -10.2927    2.1290    0.2008 C   0  0  2  0  0  0  0  0  0  0  0  0
  -10.7763    2.2953   -1.2472 C   0  0  0  0  0  0  0  0  0  0  0  0
  -11.4084    1.5434    1.0340 C   0  0  0  0  0  0  0  0  0  0  0  0
  -12.3578    2.2898    1.3906 O   0  0  0  0  0  0  0  0  0  0  0  0
  -11.4246    0.1675    1.4397 N   0  0  0  0  0  0  0  0  0  0  0  0
  -10.9386   -0.9265    0.5916 C   0  0  2  0  0  0  0  0  0  0  0  0
  -12.1117   -1.5075   -0.2089 C   0  0  0  0  0  0  0  0  0  0  0  0
  -10.2420   -1.9521    1.4517 C   0  0  0  0  0  0  0  0  0  0  0  0
   -9.1283   -1.6549    1.9612 O   0  0  0  0  0  0  0  0  0  0  0  0
  -10.8679   -3.1873    1.8211 N   0  0  0  0  0  0  0  0  0  0  0  0
  -10.6643   -4.3856    1.0034 C   0  0  2  0  0  0  0  0  0  0  0  0
  -11.7363   -5.4238    1.3203 C   0  0  0  0  0  0  0  0  0  0  0  0
   -9.2918   -4.9576    1.2272 C   0  0  0  0  0  0  0  0  0  0  0  0
   -8.7137   -4.8185    2.3445 O   0  0  0  0  0  0  0  0  0  0  0  0
   -8.6618   -5.7006    0.1778 N   0  0  0  0  0  0  0  0  0  0  0  0
   -7.3099   -5.4342   -0.3260 C   0  0  1  0  0  0  0  0  0  0  0  0
   -7.2569   -4.0942   -1.0165 C   0  0  0  0  0  0  0  0  0  0  0  0
   -6.7696   -3.9888   -2.3571 N   0  0  0  0  0  0  0  0  0  0  0  0
   -7.6318   -3.0564   -0.4174 O   0  0  0  0  0  0  0  0  0  0  0  0
   -6.2440   -5.5431    0.7749 C   0  0  0  0  0  0  0  0  0  0  0  0
   -4.5745   -5.6453    0.0182 S   0  0  0  0  0  0  0  0  0  0  0  0
   -3.9566   -4.0144    0.5895 C   0  0  0  0  0  0  0  0  0  0  0  0
    2.6188   -8.5538   -1.1297 H   0  0  0  0  0  0  0  0  0  0  0  0
    3.3706  -10.1060   -0.6275 H   0  0  0  0  0  0  0  0  0  0  0  0
    4.3916   -8.6246   -0.7559 H   0  0  0  0  0  0  0  0  0  0  0  0
    2.7800   -7.1640    2.4338 H   0  0  0  0  0  0  0  0  0  0  0  0
    3.7646   -6.3745   -0.3168 H   0  0  0  0  0  0  0  0  0  0  0  0
    1.2784   -6.6867   -0.4418 H   0  0  0  0  0  0  0  0  0  0  0  0
    1.0639   -5.4112    0.8026 H   0  0  0  0  0  0  0  0  0  0  0  0
    0.3616   -4.5641   -3.1897 H   0  0  0  0  0  0  0  0  0  0  0  0
   -0.0557   -5.8220   -2.0216 H   0  0  0  0  0  0  0  0  0  0  0  0
   -1.8113   -5.3871   -0.4571 H   0  0  0  0  0  0  0  0  0  0  0  0
   -3.5884   -1.4704   -0.2740 H   0  0  0  0  0  0  0  0  0  0  0  0
    0.0763   -2.0706   -2.4298 H   0  0  0  0  0  0  0  0  0  0  0  0
   -1.1573    0.0532   -2.6053 H   0  0  0  0  0  0  0  0  0  0  0  0
   -2.6879    0.3213   -1.7325 H   0  0  0  0  0  0  0  0  0  0  0  0
   -1.7330    1.7281    1.5158 H   0  0  0  0  0  0  0  0  0  0  0  0
   -2.9676    1.3032    0.3122 H   0  0  0  0  0  0  0  0  0  0  0  0
   -2.3596    3.7842    0.7007 H   0  0  0  0  0  0  0  0  0  0  0  0
    0.2767    3.0213   -0.5408 H   0  0  0  0  0  0  0  0  0  0  0  0
    1.4237    6.4999    0.3699 H   0  0  0  0  0  0  0  0  0  0  0  0
    2.9547    5.1142    1.7047 H   0  0  0  0  0  0  0  0  0  0  0  0
    2.0482    3.6099    1.2742 H   0  0  0  0  0  0  0  0  0  0  0  0
    1.2837    4.8733    2.3273 H   0  0  0  0  0  0  0  0  0  0  0  0
    1.7123    4.4180   -1.6987 H   0  0  0  0  0  0  0  0  0  0  0  0
    5.0536    6.7680   -1.5896 H   0  0  0  0  0  0  0  0  0  0  0  0
    3.0079    7.3888   -2.8645 H   0  0  0  0  0  0  0  0  0  0  0  0
    3.7094    8.7373   -1.8961 H   0  0  0  0  0  0  0  0  0  0  0  0
    2.2142    7.9006   -1.3203 H   0  0  0  0  0  0  0  0  0  0  0  0
    3.3888    7.5020    0.8555 H   0  0  0  0  0  0  0  0  0  0  0  0
    6.8535    6.2280   -0.3210 H   0  0  0  0  0  0  0  0  0  0  0  0
    6.4121    8.5497   -1.0172 H   0  0  0  0  0  0  0  0  0  0  0  0
    6.8267    9.1726    0.6276 H   0  0  0  0  0  0  0  0  0  0  0  0
    8.1096    8.4883   -0.4286 H   0  0  0  0  0  0  0  0  0  0  0  0
    7.7873    7.3036    2.3701 H   0  0  0  0  0  0  0  0  0  0  0  0
    8.3461    4.5889   -0.0279 H   0  0  0  0  0  0  0  0  0  0  0  0
    9.8716    5.0382   -2.0038 H   0  0  0  0  0  0  0  0  0  0  0  0
   10.5446    6.4640   -1.1238 H   0  0  0  0  0  0  0  0  0  0  0  0
    8.8057    6.4239   -1.6098 H   0  0  0  0  0  0  0  0  0  0  0  0
   11.3315    4.6224    0.6107 H   0  0  0  0  0  0  0  0  0  0  0  0
    8.2264    2.5510    0.7899 H   0  0  0  0  0  0  0  0  0  0  0  0
    8.3292    3.0007   -1.6303 H   0  0  0  0  0  0  0  0  0  0  0  0
    7.6774    1.3489   -1.3802 H   0  0  0  0  0  0  0  0  0  0  0  0
    9.3978    1.5888   -1.9052 H   0  0  0  0  0  0  0  0  0  0  0  0
    8.6934    0.5007    1.7195 H   0  0  0  0  0  0  0  0  0  0  0  0
    9.4642   -2.5714    0.3258 H   0  0  0  0  0  0  0  0  0  0  0  0
    6.9778   -2.7112    0.6606 H   0  0  0  0  0  0  0  0  0  0  0  0
    6.8741   -0.9178    0.5140 H   0  0  0  0  0  0  0  0  0  0  0  0
    7.8048   -1.6865    1.8748 H   0  0  0  0  0  0  0  0  0  0  0  0
    8.1565   -1.1795   -2.0219 H   0  0  0  0  0  0  0  0  0  0  0  0
    8.3442   -5.3873   -2.2774 H   0  0  0  0  0  0  0  0  0  0  0  0
   10.6123   -4.0946   -0.6602 H   0  0  0  0  0  0  0  0  0  0  0  0
   10.5745   -4.2161   -2.4604 H   0  0  0  0  0  0  0  0  0  0  0  0
   10.5130   -5.6961   -1.4418 H   0  0  0  0  0  0  0  0  0  0  0  0
    8.6883   -4.9722    0.6148 H   0  0  0  0  0  0  0  0  0  0  0  0
    5.6147   -6.9959    0.9918 H   0  0  0  0  0  0  0  0  0  0  0  0
    6.6271   -6.7681    3.1466 H   0  0  0  0  0  0  0  0  0  0  0  0
    7.9303   -7.0308    1.9320 H   0  0  0  0  0  0  0  0  0  0  0  0
    7.6446   -5.3840    2.6256 H   0  0  0  0  0  0  0  0  0  0  0  0
    5.5823   -4.1500    2.0632 H   0  0  0  0  0  0  0  0  0  0  0  0
   -3.8422    4.5661   -2.5730 H   0  0  0  0  0  0  0  0  0  0  0  0
   -5.5063    5.1781   -1.2117 H   0  0  0  0  0  0  0  0  0  0  0  0
   -4.0830    4.8507    1.4406 H   0  0  0  0  0  0  0  0  0  0  0  0
   -3.4231    6.0473    0.2320 H   0  0  0  0  0  0  0  0  0  0  0  0
   -5.0872    6.1802    0.8099 H   0  0  0  0  0  0  0  0  0  0  0  0
   -6.9403    2.4990    1.1789 H   0  0  0  0  0  0  0  0  0  0  0  0
   -7.1193    5.4365    0.3522 H   0  0  0  0  0  0  0  0  0  0  0  0
   -6.7693    5.2022    2.7637 H   0  0  0  0  0  0  0  0  0  0  0  0
   -8.4445    5.7701    2.4160 H   0  0  0  0  0  0  0  0  0  0  0  0
   -8.1437    4.0428    2.9024 H   0  0  0  0  0  0  0  0  0  0  0  0
  -10.1755    3.6850    1.7312 H   0  0  0  0  0  0  0  0  0  0  0  0
   -9.4108    1.4524    0.2068 H   0  0  0  0  0  0  0  0  0  0  0  0
  -11.2112    1.3347   -1.6197 H   0  0  0  0  0  0  0  0  0  0  0  0
  -11.5449    3.0979   -1.3136 H   0  0  0  0  0  0  0  0  0  0  0  0
   -9.9183    2.5341   -1.9123 H   0  0  0  0  0  0  0  0  0  0  0  0
  -12.0888   -0.0911    2.2027 H   0  0  0  0  0  0  0  0  0  0  0  0
  -10.1939   -0.5645   -0.1481 H   0  0  0  0  0  0  0  0  0  0  0  0
  -11.7448   -2.2219   -0.9714 H   0  0  0  0  0  0  0  0  0  0  0  0
  -12.6460   -0.6849   -0.7383 H   0  0  0  0  0  0  0  0  0  0  0  0
  -12.8466   -2.0102    0.4600 H   0  0  0  0  0  0  0  0  0  0  0  0
  -11.0188   -3.3284    2.8433 H   0  0  0  0  0  0  0  0  0  0  0  0
  -10.7602   -4.1219   -0.0676 H   0  0  0  0  0  0  0  0  0  0  0  0
  -11.6768   -5.7421    2.3813 H   0  0  0  0  0  0  0  0  0  0  0  0
  -12.7511   -4.9990    1.1372 H   0  0  0  0  0  0  0  0  0  0  0  0
  -11.6157   -6.3195    0.6756 H   0  0  0  0  0  0  0  0  0  0  0  0
   -9.2540   -6.3668   -0.3658 H   0  0  0  0  0  0  0  0  0  0  0  0
   -7.0817   -6.2194   -1.0834 H   0  0  0  0  0  0  0  0  0  0  0  0
   -6.3461   -4.8128   -2.8385 H   0  0  0  0  0  0  0  0  0  0  0  0
   -6.7526   -3.0663   -2.8471 H   0  0  0  0  0  0  0  0  0  0  0  0
   -6.3227   -4.6942    1.4869 H   0  0  0  0  0  0  0  0  0  0  0  0
   -6.4053   -6.4790    1.3504 H   0  0  0  0  0  0  0  0  0  0  0  0
   -3.5712   -4.1019    1.6271 H   0  0  0  0  0  0  0  0  0  0  0  0
   -4.7956   -3.2870    0.5817 H   0  0  0  0  0  0  0  0  0  0  0  0
  1  2  1  0
  2  3  2  0
  2  4  1  0
  4  5  1  0
  5  6  1  0
  6  7  1  0
  7  8  1  0
  8  9  1  0
  9 10  2  0
 10 11  1  0
 11 12  2  0
 12 13  1  0
 13 14  2  0
 13 15  1  0
 15 16  1  0
 16 17  1  0
 17 18  1  0
 18 19  1  0
 19 20  1  0
 20 21  2  0
 20 22  1  0
 22 23  1  0
 22 24  1  0
 24 25  1  0
 25 26  2  0
 25 27  1  0
 27 28  1  0
 27 29  1  0
 29 30  1  0
 30 31  2  0
 30 32  1  0
 32 33  1  0
 32 34  1  0
 34 35  1  0
 35 36  2  0
 35 37  1  0
 37 38  1  0
 37 39  1  0
 39 40  1  0
 40 41  2  0
 40 42  1  0
 42 43  1  0
 42 44  1  0
 44 45  1  0
 45 46  2  0
 45 47  1  0
 47 48  1  0
 47 49  1  0
 49 50  1  0
 50 51  2  0
 50 52  1  0
 52 53  1  0
 52 54  1  0
 54 55  1  0
 55 56  2  0
 55 57  1  0
 57 58  1  0
 57 59  1  0
 59 60  1  0
 60 61  2  0
 18 62  1  0
 62 63  2  0
 62 64  1  0
 64 65  1  0
 65 66  1  0
 65 67  1  0
 67 68  2  0
 67 69  1  0
 69 70  1  0
 70 71  1  0
 70 72  1  0
 72 73  2  0
 72 74  1  0
 74 75  1  0
 75 76  1  0
 75 77  1  0
 77 78  2  0
 77 79  1  0
 79 80  1  0
 80 81  1  0
 80 82  1  0
 82 83  2  0
 82 84  1  0
 84 85  1  0
 85 86  1  0
 85 87  1  0
 87 88  2  0
 87 89  1  0
 89 90  1  0
 90 91  1  0
 91 92  1  0
 91 93  2  0
 90 94  1  0
 94 95  1  0
 95 96  1  0
 60  5  1  0
 14  9  1  0
 96 11  1  0
  1 97  1  0
  1 98  1  0
  1 99  1  0
  4100  1  0
  5101  1  6
  6102  1  0
  6103  1  0
  8104  1  0
  8105  1  0
 10106  1  0
 12107  1  0
 14108  1  0
 15109  1  0
 15110  1  0
 17111  1  0
 17112  1  0
 18113  1  1
 19114  1  0
 22115  1  1
 23116  1  0
 23117  1  0
 23118  1  0
 24119  1  0
 27120  1  6
 28121  1  0
 28122  1  0
 28123  1  0
 29124  1  0
 32125  1  6
 33126  1  0
 33127  1  0
 33128  1  0
 34129  1  0
 37130  1  6
 38131  1  0
 38132  1  0
 38133  1  0
 39134  1  0
 42135  1  1
 43136  1  0
 43137  1  0
 43138  1  0
 44139  1  0
 47140  1  1
 48141  1  0
 48142  1  0
 48143  1  0
 49144  1  0
 52145  1  6
 53146  1  0
 53147  1  0
 53148  1  0
 54149  1  0
 57150  1  6
 58151  1  0
 58152  1  0
 58153  1  0
 59154  1  0
 64155  1  0
 65156  1  6
 66157  1  0
 66158  1  0
 66159  1  0
 69160  1  0
 70161  1  6
 71162  1  0
 71163  1  0
 71164  1  0
 74165  1  0
 75166  1  6
 76167  1  0
 76168  1  0
 76169  1  0
 79170  1  0
 80171  1  6
 81172  1  0
 81173  1  0
 81174  1  0
 84175  1  0
 85176  1  6
 86177  1  0
 86178  1  0
 86179  1  0
 89180  1  0
 90181  1  6
 92182  1  0
 92183  1  0
 94184  1  0
 94185  1  0
 96186  1  0
 96187  1  0
M  END
