
     RDKit          3D

167169  0  0  0  0  0  0  0  0999 V2000
    2.0495   10.7723   -1.0892 C   0  0  0  0  0  0  0  0  0  0  0  0
    1.6928    9.3737   -1.4847 C   0  0  0  0  0  0  0  0  0  0  0  0
    1.7588    9.0449   -2.7056 O   0  0  0  0  0  0  0  0  0  0  0  0
    1.2779    8.4210   -0.4900 N   0  0  0  0  0  0  0  0  0  0  0  0
    1.2215    6.9768   -0.7457 C   0  0  2  0  0  0  0  0  0  0  0  0
    0.1963    6.3275    0.1967 C   0  0  0  0  0  0  0  0  0  0  0  0
   -0.2141    4.6304   -0.3531 S   0  0  0  0  0  0  0  0  0  0  0  0
   -0.3044    3.8476    1.3025 C   0  0  0  0  0  0  0  0  0  0  0  0
   -1.4153    2.8376    1.3280 C   0  0  0  0  0  0  0  0  0  0  0  0
   -1.1348    1.4559    1.2637 C   0  0  0  0  0  0  0  0  0  0  0  0
   -2.1793    0.5163    1.3235 C   0  0  0  0  0  0  0  0  0  0  0  0
   -3.5044    0.9669    1.4253 C   0  0  0  0  0  0  0  0  0  0  0  0
   -3.7964    2.3373    1.4480 C   0  0  0  0  0  0  0  0  0  0  0  0
   -2.7522    3.2762    1.4070 C   0  0  0  0  0  0  0  0  0  0  0  0
   -5.2289    2.7835    1.5048 C   0  0  0  0  0  0  0  0  0  0  0  0
   -6.0458    2.3606   -0.0795 S   0  0  0  0  0  0  0  0  0  0  0  0
   -7.6578    1.8018    0.6076 C   0  0  0  0  0  0  0  0  0  0  0  0
   -8.8063    2.7858    0.3176 C   0  0  1  0  0  0  0  0  0  0  0  0
   -8.5215    4.1421    0.9180 C   0  0  0  0  0  0  0  0  0  0  0  0
   -9.1614    4.5426    2.1325 N   0  0  0  0  0  0  0  0  0  0  0  0
   -7.7109    4.9328    0.3581 O   0  0  0  0  0  0  0  0  0  0  0  0
   -9.0656    2.8809   -1.1256 N   0  0  0  0  0  0  0  0  0  0  0  0
   -9.7258    1.8788   -1.9210 C   0  0  0  0  0  0  0  0  0  0  0  0
   -9.8888    2.1057   -3.1513 O   0  0  0  0  0  0  0  0  0  0  0  0
  -10.1899    0.5418   -1.3644 C   0  0  1  0  0  0  0  0  0  0  0  0
  -11.6938    0.3789   -1.6293 C   0  0  0  0  0  0  0  0  0  0  0  0
   -9.4323   -0.5441   -2.0058 N   0  0  0  0  0  0  0  0  0  0  0  0
   -9.2653   -1.8870   -1.5170 C   0  0  0  0  0  0  0  0  0  0  0  0
   -8.6429   -2.7106   -2.2396 O   0  0  0  0  0  0  0  0  0  0  0  0
   -9.8341   -2.3865   -0.2018 C   0  0  1  0  0  0  0  0  0  0  0  0
  -11.1039   -3.2033   -0.4641 C   0  0  0  0  0  0  0  0  0  0  0  0
   -8.8372   -3.2159    0.4819 N   0  0  0  0  0  0  0  0  0  0  0  0
   -7.5549   -2.7082    0.8879 C   0  0  0  0  0  0  0  0  0  0  0  0
   -7.3511   -1.4597    0.9294 O   0  0  0  0  0  0  0  0  0  0  0  0
   -6.4177   -3.6370    1.2293 C   0  0  1  0  0  0  0  0  0  0  0  0
   -6.7424   -4.5019    2.4441 C   0  0  0  0  0  0  0  0  0  0  0  0
   -6.1150   -4.4850    0.0690 N   0  0  0  0  0  0  0  0  0  0  0  0
   -4.9758   -4.3919   -0.8130 C   0  0  0  0  0  0  0  0  0  0  0  0
   -5.0309   -4.9950   -1.9209 O   0  0  0  0  0  0  0  0  0  0  0  0
   -3.6873   -3.6572   -0.4964 C   0  0  1  0  0  0  0  0  0  0  0  0
   -3.8309   -2.1252   -0.5413 C   0  0  0  0  0  0  0  0  0  0  0  0
   -2.1780   -1.3218   -0.6780 S   0  0  0  0  0  0  0  0  0  0  0  0
   -1.9143   -0.9430    1.0923 C   0  0  0  0  0  0  0  0  0  0  0  0
   -3.1100   -4.1234    0.7689 N   0  0  0  0  0  0  0  0  0  0  0  0
   -1.8066   -4.7132    0.8859 C   0  0  0  0  0  0  0  0  0  0  0  0
   -1.0098   -4.2165    1.7340 O   0  0  0  0  0  0  0  0  0  0  0  0
   -1.4168   -5.9842    0.1458 C   0  0  1  0  0  0  0  0  0  0  0  0
   -1.2366   -5.7999   -1.3677 C   0  0  0  0  0  0  0  0  0  0  0  0
   -0.2032   -6.5967    0.7076 N   0  0  0  0  0  0  0  0  0  0  0  0
    1.1106   -6.0528    0.4938 C   0  0  0  0  0  0  0  0  0  0  0  0
    1.4023   -4.9044    0.9260 O   0  0  0  0  0  0  0  0  0  0  0  0
    2.1701   -6.8646   -0.2054 C   0  0  1  0  0  0  0  0  0  0  0  0
    2.5991   -6.1391   -1.4918 C   0  0  0  0  0  0  0  0  0  0  0  0
    3.2873   -7.0979    0.7312 N   0  0  0  0  0  0  0  0  0  0  0  0
    4.6746   -6.9604    0.4113 C   0  0  0  0  0  0  0  0  0  0  0  0
    5.1364   -7.4971   -0.6354 O   0  0  0  0  0  0  0  0  0  0  0  0
    5.5865   -6.2330    1.3675 C   0  0  1  0  0  0  0  0  0  0  0  0
    6.8999   -6.9941    1.5730 C   0  0  0  0  0  0  0  0  0  0  0  0
    5.8497   -4.8543    0.9298 N   0  0  0  0  0  0  0  0  0  0  0  0
    6.4123   -4.5397   -0.3524 C   0  0  0  0  0  0  0  0  0  0  0  0
    5.8202   -4.9014   -1.4050 O   0  0  0  0  0  0  0  0  0  0  0  0
    7.6803   -3.7365   -0.4440 C   0  0  1  0  0  0  0  0  0  0  0  0
    8.7316   -4.4994   -1.2519 C   0  0  0  0  0  0  0  0  0  0  0  0
    7.4224   -2.4242   -1.0575 N   0  0  0  0  0  0  0  0  0  0  0  0
    8.3247   -1.3022   -1.0189 C   0  0  0  0  0  0  0  0  0  0  0  0
    8.1288   -0.3420   -1.8149 O   0  0  0  0  0  0  0  0  0  0  0  0
    9.5127   -1.2282   -0.0700 C   0  0  1  0  0  0  0  0  0  0  0  0
   10.7949   -0.8654   -0.8334 C   0  0  0  0  0  0  0  0  0  0  0  0
    9.2759   -0.2721    1.0206 N   0  0  0  0  0  0  0  0  0  0  0  0
    8.6625    0.9999    0.8112 C   0  0  0  0  0  0  0  0  0  0  0  0
    9.3765    1.9652    0.4149 O   0  0  0  0  0  0  0  0  0  0  0  0
    7.1892    1.1784    1.0731 C   0  0  1  0  0  0  0  0  0  0  0  0
    6.9001    2.1374    2.2404 C   0  0  0  0  0  0  0  0  0  0  0  0
    6.4241    1.4970   -0.1500 N   0  0  0  0  0  0  0  0  0  0  0  0
    6.3215    2.7487   -0.8567 C   0  0  0  0  0  0  0  0  0  0  0  0
    5.4180    2.8670   -1.7314 O   0  0  0  0  0  0  0  0  0  0  0  0
    7.3003    3.8815   -0.6988 C   0  0  1  0  0  0  0  0  0  0  0  0
    8.3123    3.8339   -1.8612 C   0  0  0  0  0  0  0  0  0  0  0  0
    6.6200    5.1861   -0.6978 N   0  0  0  0  0  0  0  0  0  0  0  0
    5.5101    5.5043    0.1647 C   0  0  0  0  0  0  0  0  0  0  0  0
    5.0260    4.6174    0.9205 O   0  0  0  0  0  0  0  0  0  0  0  0
    4.9482    6.9136    0.2527 C   0  0  1  0  0  0  0  0  0  0  0  0
    5.2958    7.8109   -0.9439 C   0  0  0  0  0  0  0  0  0  0  0  0
    3.4927    6.9010    0.4302 N   0  0  0  0  0  0  0  0  0  0  0  0
    2.5890    6.3716   -0.5582 C   0  0  0  0  0  0  0  0  0  0  0  0
    2.8934    5.3233   -1.1989 O   0  0  0  0  0  0  0  0  0  0  0  0
    3.0973   10.9783   -1.3917 H   0  0  0  0  0  0  0  0  0  0  0  0
    1.3661   11.4853   -1.5961 H   0  0  0  0  0  0  0  0  0  0  0  0
    1.9590   10.9033    0.0105 H   0  0  0  0  0  0  0  0  0  0  0  0
    1.0955    8.7729    0.4785 H   0  0  0  0  0  0  0  0  0  0  0  0
    0.8822    6.8149   -1.7936 H   0  0  0  0  0  0  0  0  0  0  0  0
   -0.7534    6.9080    0.1509 H   0  0  0  0  0  0  0  0  0  0  0  0
    0.5742    6.3607    1.2422 H   0  0  0  0  0  0  0  0  0  0  0  0
   -0.4756    4.5892    2.1250 H   0  0  0  0  0  0  0  0  0  0  0  0
    0.6777    3.3512    1.5037 H   0  0  0  0  0  0  0  0  0  0  0  0
   -0.1134    1.1124    1.1715 H   0  0  0  0  0  0  0  0  0  0  0  0
   -4.3171    0.2562    1.4377 H   0  0  0  0  0  0  0  0  0  0  0  0
   -2.9667    4.3409    1.4302 H   0  0  0  0  0  0  0  0  0  0  0  0
   -5.6935    2.2738    2.3745 H   0  0  0  0  0  0  0  0  0  0  0  0
   -5.3046    3.8845    1.6506 H   0  0  0  0  0  0  0  0  0  0  0  0
   -7.8733    0.8391    0.1137 H   0  0  0  0  0  0  0  0  0  0  0  0
   -7.6213    1.5945    1.6980 H   0  0  0  0  0  0  0  0  0  0  0  0
   -9.7216    2.3986    0.8159 H   0  0  0  0  0  0  0  0  0  0  0  0
   -9.9192    3.9734    2.5501 H   0  0  0  0  0  0  0  0  0  0  0  0
   -8.9430    5.4759    2.5562 H   0  0  0  0  0  0  0  0  0  0  0  0
   -8.7779    3.7547   -1.6257 H   0  0  0  0  0  0  0  0  0  0  0  0
  -10.0411    0.5067   -0.2758 H   0  0  0  0  0  0  0  0  0  0  0  0
  -12.1057   -0.4431   -1.0178 H   0  0  0  0  0  0  0  0  0  0  0  0
  -12.2449    1.3066   -1.3413 H   0  0  0  0  0  0  0  0  0  0  0  0
  -11.8828    0.1676   -2.7033 H   0  0  0  0  0  0  0  0  0  0  0  0
   -8.9644   -0.3430   -2.9214 H   0  0  0  0  0  0  0  0  0  0  0  0
  -10.1005   -1.5400    0.4663 H   0  0  0  0  0  0  0  0  0  0  0  0
  -11.5811   -3.4898    0.5026 H   0  0  0  0  0  0  0  0  0  0  0  0
  -10.8667   -4.1418   -1.0119 H   0  0  0  0  0  0  0  0  0  0  0  0
  -11.8349   -2.6355   -1.0664 H   0  0  0  0  0  0  0  0  0  0  0  0
   -9.1418   -4.1191    0.9315 H   0  0  0  0  0  0  0  0  0  0  0  0
   -5.5544   -3.0275    1.5136 H   0  0  0  0  0  0  0  0  0  0  0  0
   -7.1004   -3.8713    3.2888 H   0  0  0  0  0  0  0  0  0  0  0  0
   -7.5156   -5.2621    2.2060 H   0  0  0  0  0  0  0  0  0  0  0  0
   -5.8262   -5.0371    2.7785 H   0  0  0  0  0  0  0  0  0  0  0  0
   -6.8905   -5.1128   -0.2563 H   0  0  0  0  0  0  0  0  0  0  0  0
   -2.9850   -3.8755   -1.3205 H   0  0  0  0  0  0  0  0  0  0  0  0
   -4.4029   -1.8411   -1.4493 H   0  0  0  0  0  0  0  0  0  0  0  0
   -4.3831   -1.7248    0.3196 H   0  0  0  0  0  0  0  0  0  0  0  0
   -0.8656   -1.2071    1.3352 H   0  0  0  0  0  0  0  0  0  0  0  0
   -2.5575   -1.5646    1.7425 H   0  0  0  0  0  0  0  0  0  0  0  0
   -3.5458   -3.8143    1.6628 H   0  0  0  0  0  0  0  0  0  0  0  0
   -2.2542   -6.7052    0.2934 H   0  0  0  0  0  0  0  0  0  0  0  0
   -0.6901   -4.8590   -1.5922 H   0  0  0  0  0  0  0  0  0  0  0  0
   -0.6700   -6.6554   -1.7860 H   0  0  0  0  0  0  0  0  0  0  0  0
   -2.2231   -5.8110   -1.8780 H   0  0  0  0  0  0  0  0  0  0  0  0
   -0.2580   -7.6024    0.9870 H   0  0  0  0  0  0  0  0  0  0  0  0
    1.7341   -7.8458   -0.4933 H   0  0  0  0  0  0  0  0  0  0  0  0
    3.1138   -5.1818   -1.2461 H   0  0  0  0  0  0  0  0  0  0  0  0
    1.7124   -5.9123   -2.1229 H   0  0  0  0  0  0  0  0  0  0  0  0
    3.2656   -6.7767   -2.1013 H   0  0  0  0  0  0  0  0  0  0  0  0
    3.0468   -7.4753    1.6760 H   0  0  0  0  0  0  0  0  0  0  0  0
    5.0741   -6.1890    2.3520 H   0  0  0  0  0  0  0  0  0  0  0  0
    6.6946   -8.0254    1.9316 H   0  0  0  0  0  0  0  0  0  0  0  0
    7.4821   -7.0448    0.6299 H   0  0  0  0  0  0  0  0  0  0  0  0
    7.5173   -6.4735    2.3339 H   0  0  0  0  0  0  0  0  0  0  0  0
    6.0116   -4.1626    1.6938 H   0  0  0  0  0  0  0  0  0  0  0  0
    8.0515   -3.5965    0.5964 H   0  0  0  0  0  0  0  0  0  0  0  0
    8.9792   -5.4577   -0.7493 H   0  0  0  0  0  0  0  0  0  0  0  0
    8.3452   -4.7246   -2.2683 H   0  0  0  0  0  0  0  0  0  0  0  0
    9.6591   -3.9051   -1.3559 H   0  0  0  0  0  0  0  0  0  0  0  0
    6.6196   -2.3560   -1.7235 H   0  0  0  0  0  0  0  0  0  0  0  0
    9.7011   -2.2177    0.3878 H   0  0  0  0  0  0  0  0  0  0  0  0
   11.6814   -1.0408   -0.1817 H   0  0  0  0  0  0  0  0  0  0  0  0
   10.7842    0.2003   -1.1514 H   0  0  0  0  0  0  0  0  0  0  0  0
   10.9044   -1.5079   -1.7351 H   0  0  0  0  0  0  0  0  0  0  0  0
    9.8726   -0.3733    1.8764 H   0  0  0  0  0  0  0  0  0  0  0  0
    6.8260    0.1814    1.4234 H   0  0  0  0  0  0  0  0  0  0  0  0
    7.5634    3.0291    2.2380 H   0  0  0  0  0  0  0  0  0  0  0  0
    5.8396    2.4609    2.2108 H   0  0  0  0  0  0  0  0  0  0  0  0
    7.0635    1.6058    3.2030 H   0  0  0  0  0  0  0  0  0  0  0  0
    5.8180    0.7184   -0.5058 H   0  0  0  0  0  0  0  0  0  0  0  0
    7.8575    3.8086    0.2455 H   0  0  0  0  0  0  0  0  0  0  0  0
    7.8079    4.1170   -2.8091 H   0  0  0  0  0  0  0  0  0  0  0  0
    9.1369    4.5543   -1.6676 H   0  0  0  0  0  0  0  0  0  0  0  0
    8.7392    2.8173   -1.9828 H   0  0  0  0  0  0  0  0  0  0  0  0
    7.1545    5.9872   -1.1152 H   0  0  0  0  0  0  0  0  0  0  0  0
    5.3969    7.3677    1.1535 H   0  0  0  0  0  0  0  0  0  0  0  0
    6.3792    8.0768   -0.9404 H   0  0  0  0  0  0  0  0  0  0  0  0
    4.7273    8.7624   -0.8796 H   0  0  0  0  0  0  0  0  0  0  0  0
    5.0447    7.3124   -1.9050 H   0  0  0  0  0  0  0  0  0  0  0  0
    3.1071    7.5610    1.1347 H   0  0  0  0  0  0  0  0  0  0  0  0
  1  2  1  0
  2  3  2  0
  2  4  1  0
  4  5  1  0
  5  6  1  0
  6  7  1  0
  7  8  1  0
  8  9  1  0
  9 10  2  0
 10 11  1  0
 11 12  2  0
 12 13  1  0
 13 14  2  0
 13 15  1  0
 15 16  1  0
 16 17  1  0
 17 18  1  0
 18 19  1  0
 19 20  1  0
 19 21  2  0
 18 22  1  0
 22 23  1  0
 23 24  2  0
 23 25  1  0
 25 26  1  0
 25 27  1  0
 27 28  1  0
 28 29  2  0
 28 30  1  0
 30 31  1  0
 30 32  1  0
 32 33  1  0
 33 34  2  0
 33 35  1  0
 35 36  1  0
 35 37  1  0
 37 38  1  0
 38 39  2  0
 38 40  1  0
 40 41  1  0
 41 42  1  0
 42 43  1  0
 40 44  1  0
 44 45  1  0
 45 46  2  0
 45 47  1  0
 47 48  1  0
 47 49  1  0
 49 50  1  0
 50 51  2  0
 50 52  1  0
 52 53  1  0
 52 54  1  0
 54 55  1  0
 55 56  2  0
 55 57  1  0
 57 58  1  0
 57 59  1  0
 59 60  1  0
 60 61  2  0
 60 62  1  0
 62 63  1  0
 62 64  1  0
 64 65  1  0
 65 66  2  0
 65 67  1  0
 67 68  1  0
 67 69  1  0
 69 70  1  0
 70 71  2  0
 70 72  1  0
 72 73  1  0
 72 74  1  0
 74 75  1  0
 75 76  2  0
 75 77  1  0
 77 78  1  0
 77 79  1  0
 79 80  1  0
 80 81  2  0
 80 82  1  0
 82 83  1  0
 82 84  1  0
 84 85  1  0
 85 86  2  0
 85  5  1  0
 14  9  1  0
 43 11  1  0
  1 87  1  0
  1 88  1  0
  1 89  1  0
  4 90  1  0
  5 91  1  6
  6 92  1  0
  6 93  1  0
  8 94  1  0
  8 95  1  0
 10 96  1  0
 12 97  1  0
 14 98  1  0
 15 99  1  0
 15100  1  0
 17101  1  0
 17102  1  0
 18103  1  1
 20104  1  0
 20105  1  0
 22106  1  0
 25107  1  1
 26108  1  0
 26109  1  0
 26110  1  0
 27111  1  0
 30112  1  1
 31113  1  0
 31114  1  0
 31115  1  0
 32116  1  0
 35117  1  1
 36118  1  0
 36119  1  0
 36120  1  0
 37121  1  0
 40122  1  6
 41123  1  0
 41124  1  0
 43125  1  0
 43126  1  0
 44127  1  0
 47128  1  6
 48129  1  0
 48130  1  0
 48131  1  0
 49132  1  0
 52133  1  6
 53134  1  0
 53135  1  0
 53136  1  0
 54137  1  0
 57138  1  1
 58139  1  0
 58140  1  0
 58141  1  0
 59142  1  0
 62143  1  1
 63144  1  0
 63145  1  0
 63146  1  0
 64147  1  0
 67148  1  1
 68149  1  0
 68150  1  0
 68151  1  0
 69152  1  0
 72153  1  1
 73154  1  0
 73155  1  0
 73156  1  0
 74157  1  0
 77158  1  1
 78159  1  0
 78160  1  0
 78161  1  0
 79162  1  0
 82163  1  1
 83164  1  0
 83165  1  0
 83166  1  0
 84167  1  0
M  END
