
     RDKit          3D

167169  0  0  0  0  0  0  0  0999 V2000
    1.1739   10.6406    0.1690 C   0  0  0  0  0  0  0  0  0  0  0  0
    0.8541    9.2977   -0.3995 C   0  0  0  0  0  0  0  0  0  0  0  0
    0.2800    9.2145   -1.5183 O   0  0  0  0  0  0  0  0  0  0  0  0
    1.1772    8.1162    0.3454 N   0  0  0  0  0  0  0  0  0  0  0  0
    1.0222    6.7463   -0.1512 C   0  0  1  0  0  0  0  0  0  0  0  0
   -0.4708    6.3992   -0.3081 C   0  0  0  0  0  0  0  0  0  0  0  0
   -0.6975    4.6145   -0.6437 S   0  0  0  0  0  0  0  0  0  0  0  0
   -0.6230    4.0391    1.0959 C   0  0  0  0  0  0  0  0  0  0  0  0
   -1.9271    3.3775    1.4441 C   0  0  0  0  0  0  0  0  0  0  0  0
   -1.9959    1.9916    1.6351 C   0  0  0  0  0  0  0  0  0  0  0  0
   -3.2324    1.3596    1.8476 C   0  0  0  0  0  0  0  0  0  0  0  0
   -4.3913    2.1417    1.9782 C   0  0  0  0  0  0  0  0  0  0  0  0
   -4.3293    3.5324    1.8273 C   0  0  0  0  0  0  0  0  0  0  0  0
   -3.0973    4.1449    1.5511 C   0  0  0  0  0  0  0  0  0  0  0  0
   -5.5730    4.3692    1.9640 C   0  0  0  0  0  0  0  0  0  0  0  0
   -6.0593    5.0799    0.3441 S   0  0  0  0  0  0  0  0  0  0  0  0
   -6.8303    3.5679   -0.3541 C   0  0  0  0  0  0  0  0  0  0  0  0
   -8.3021    3.4297    0.0681 C   0  0  1  0  0  0  0  0  0  0  0  0
   -9.1059    4.5929   -0.4500 C   0  0  0  0  0  0  0  0  0  0  0  0
   -9.6773    5.5440    0.4512 N   0  0  0  0  0  0  0  0  0  0  0  0
   -9.2763    4.7435   -1.6921 O   0  0  0  0  0  0  0  0  0  0  0  0
   -8.8509    2.1662   -0.4299 N   0  0  0  0  0  0  0  0  0  0  0  0
   -8.6857    0.9233    0.2817 C   0  0  0  0  0  0  0  0  0  0  0  0
   -7.8994    0.8598    1.2689 O   0  0  0  0  0  0  0  0  0  0  0  0
   -9.4262   -0.3305   -0.1389 C   0  0  1  0  0  0  0  0  0  0  0  0
  -10.8884   -0.0323   -0.5197 C   0  0  0  0  0  0  0  0  0  0  0  0
   -8.7406   -0.9722   -1.2661 N   0  0  0  0  0  0  0  0  0  0  0  0
   -8.9747   -2.3363   -1.6436 C   0  0  0  0  0  0  0  0  0  0  0  0
   -9.0823   -2.6111   -2.8707 O   0  0  0  0  0  0  0  0  0  0  0  0
   -9.0558   -3.4539   -0.6282 C   0  0  1  0  0  0  0  0  0  0  0  0
  -10.5051   -3.7147   -0.2051 C   0  0  0  0  0  0  0  0  0  0  0  0
   -8.4929   -4.6842   -1.1990 N   0  0  0  0  0  0  0  0  0  0  0  0
   -7.2943   -5.3348   -0.7465 C   0  0  0  0  0  0  0  0  0  0  0  0
   -7.1442   -6.5642   -0.9759 O   0  0  0  0  0  0  0  0  0  0  0  0
   -6.2232   -4.5972    0.0111 C   0  0  1  0  0  0  0  0  0  0  0  0
   -6.2824   -4.9338    1.5006 C   0  0  0  0  0  0  0  0  0  0  0  0
   -4.9075   -4.9464   -0.5244 N   0  0  0  0  0  0  0  0  0  0  0  0
   -4.1981   -4.0244   -1.3571 C   0  0  0  0  0  0  0  0  0  0  0  0
   -4.5622   -3.8632   -2.5525 O   0  0  0  0  0  0  0  0  0  0  0  0
   -3.0853   -3.1921   -0.7913 C   0  0  1  0  0  0  0  0  0  0  0  0
   -3.6734   -2.0638    0.0688 C   0  0  0  0  0  0  0  0  0  0  0  0
   -2.3435   -0.9576    0.6500 S   0  0  0  0  0  0  0  0  0  0  0  0
   -3.3134   -0.1350    1.9767 C   0  0  0  0  0  0  0  0  0  0  0  0
   -2.1727   -4.0230    0.0035 N   0  0  0  0  0  0  0  0  0  0  0  0
   -1.2529   -4.9033   -0.6390 C   0  0  0  0  0  0  0  0  0  0  0  0
   -1.6906   -5.8956   -1.2879 O   0  0  0  0  0  0  0  0  0  0  0  0
    0.2338   -4.6763   -0.5348 C   0  0  1  0  0  0  0  0  0  0  0  0
    0.5957   -3.2862   -1.0671 C   0  0  0  0  0  0  0  0  0  0  0  0
    0.6944   -4.8157    0.8481 N   0  0  0  0  0  0  0  0  0  0  0  0
    2.0525   -5.1550    1.1722 C   0  0  0  0  0  0  0  0  0  0  0  0
    2.7335   -4.3376    1.8467 O   0  0  0  0  0  0  0  0  0  0  0  0
    2.6651   -6.4920    0.8148 C   0  0  1  0  0  0  0  0  0  0  0  0
    1.6579   -7.6381    0.9425 C   0  0  0  0  0  0  0  0  0  0  0  0
    3.2487   -6.4673   -0.5344 N   0  0  0  0  0  0  0  0  0  0  0  0
    4.6510   -6.6089   -0.8373 C   0  0  0  0  0  0  0  0  0  0  0  0
    4.9818   -6.9401   -2.0079 O   0  0  0  0  0  0  0  0  0  0  0  0
    5.7414   -6.3732    0.1868 C   0  0  1  0  0  0  0  0  0  0  0  0
    6.0880   -7.7090    0.8705 C   0  0  0  0  0  0  0  0  0  0  0  0
    6.9407   -5.8258   -0.4697 N   0  0  0  0  0  0  0  0  0  0  0  0
    7.0165   -4.5465   -1.1222 C   0  0  0  0  0  0  0  0  0  0  0  0
    7.7567   -4.4387   -2.1364 O   0  0  0  0  0  0  0  0  0  0  0  0
    6.3188   -3.3038   -0.6217 C   0  0  1  0  0  0  0  0  0  0  0  0
    4.8208   -3.2992   -0.9488 C   0  0  0  0  0  0  0  0  0  0  0  0
    6.5491   -3.1052    0.8076 N   0  0  0  0  0  0  0  0  0  0  0  0
    7.4274   -2.0836    1.3180 C   0  0  0  0  0  0  0  0  0  0  0  0
    6.9918   -1.2803    2.1777 O   0  0  0  0  0  0  0  0  0  0  0  0
    8.8742   -1.9846    0.8880 C   0  0  1  0  0  0  0  0  0  0  0  0
    9.5917   -3.3347    1.0459 C   0  0  0  0  0  0  0  0  0  0  0  0
    8.9781   -1.4969   -0.4903 N   0  0  0  0  0  0  0  0  0  0  0  0
    8.7362   -0.1332   -0.8926 C   0  0  0  0  0  0  0  0  0  0  0  0
    8.6091    0.1195   -2.1212 O   0  0  0  0  0  0  0  0  0  0  0  0
    8.7363    1.0075    0.1062 C   0  0  1  0  0  0  0  0  0  0  0  0
   10.1644    1.5324    0.2903 C   0  0  0  0  0  0  0  0  0  0  0  0
    7.8632    2.1030   -0.3302 N   0  0  0  0  0  0  0  0  0  0  0  0
    7.3174    3.0248    0.6320 C   0  0  0  0  0  0  0  0  0  0  0  0
    7.0235    2.6247    1.7930 O   0  0  0  0  0  0  0  0  0  0  0  0
    7.0565    4.4652    0.2770 C   0  0  1  0  0  0  0  0  0  0  0  0
    8.1939    5.0733   -0.5576 C   0  0  0  0  0  0  0  0  0  0  0  0
    5.7892    4.5845   -0.4391 N   0  0  0  0  0  0  0  0  0  0  0  0
    4.6516    5.1668    0.1970 C   0  0  0  0  0  0  0  0  0  0  0  0
    4.0550    4.5313    1.1128 O   0  0  0  0  0  0  0  0  0  0  0  0
    4.1017    6.4888   -0.2573 C   0  0  1  0  0  0  0  0  0  0  0  0
    5.2157    7.4747   -0.6023 C   0  0  0  0  0  0  0  0  0  0  0  0
    3.2309    6.2966   -1.4208 N   0  0  0  0  0  0  0  0  0  0  0  0
    1.8159    6.5508   -1.4309 C   0  0  0  0  0  0  0  0  0  0  0  0
    1.2274    6.6352   -2.5477 O   0  0  0  0  0  0  0  0  0  0  0  0
    0.8563   11.4459   -0.5222 H   0  0  0  0  0  0  0  0  0  0  0  0
    2.2711   10.7152    0.3416 H   0  0  0  0  0  0  0  0  0  0  0  0
    0.6420   10.7636    1.1336 H   0  0  0  0  0  0  0  0  0  0  0  0
    1.6323    8.2359    1.2870 H   0  0  0  0  0  0  0  0  0  0  0  0
    1.4305    6.0501    0.6134 H   0  0  0  0  0  0  0  0  0  0  0  0
   -1.0274    6.6912    0.6115 H   0  0  0  0  0  0  0  0  0  0  0  0
   -0.9186    6.9688   -1.1487 H   0  0  0  0  0  0  0  0  0  0  0  0
    0.2180    3.3169    1.1755 H   0  0  0  0  0  0  0  0  0  0  0  0
   -0.4183    4.8548    1.8213 H   0  0  0  0  0  0  0  0  0  0  0  0
   -1.0914    1.3993    1.5885 H   0  0  0  0  0  0  0  0  0  0  0  0
   -5.3408    1.6620    2.1804 H   0  0  0  0  0  0  0  0  0  0  0  0
   -3.0481    5.2207    1.4279 H   0  0  0  0  0  0  0  0  0  0  0  0
   -6.4129    3.7895    2.3974 H   0  0  0  0  0  0  0  0  0  0  0  0
   -5.3654    5.2123    2.6628 H   0  0  0  0  0  0  0  0  0  0  0  0
   -6.2527    2.6692   -0.0541 H   0  0  0  0  0  0  0  0  0  0  0  0
   -6.7685    3.6329   -1.4596 H   0  0  0  0  0  0  0  0  0  0  0  0
   -8.3607    3.4360    1.1792 H   0  0  0  0  0  0  0  0  0  0  0  0
  -10.1923    6.3730    0.0792 H   0  0  0  0  0  0  0  0  0  0  0  0
   -9.5065    5.4747    1.4804 H   0  0  0  0  0  0  0  0  0  0  0  0
   -9.4812    2.1792   -1.2662 H   0  0  0  0  0  0  0  0  0  0  0  0
   -9.4345   -1.0142    0.7359 H   0  0  0  0  0  0  0  0  0  0  0  0
  -11.3675    0.6122    0.2491 H   0  0  0  0  0  0  0  0  0  0  0  0
  -10.9515    0.4611   -1.5132 H   0  0  0  0  0  0  0  0  0  0  0  0
  -11.4677   -0.9764   -0.5768 H   0  0  0  0  0  0  0  0  0  0  0  0
   -8.3437   -0.3406   -2.0019 H   0  0  0  0  0  0  0  0  0  0  0  0
   -8.4959   -3.1586    0.2822 H   0  0  0  0  0  0  0  0  0  0  0  0
  -10.8632   -2.9290    0.4885 H   0  0  0  0  0  0  0  0  0  0  0  0
  -10.5679   -4.6822    0.3394 H   0  0  0  0  0  0  0  0  0  0  0  0
  -11.1683   -3.7697   -1.0930 H   0  0  0  0  0  0  0  0  0  0  0  0
   -9.0299   -5.1559   -1.9627 H   0  0  0  0  0  0  0  0  0  0  0  0
   -6.3676   -3.4996   -0.1055 H   0  0  0  0  0  0  0  0  0  0  0  0
   -5.5388   -4.3210    2.0536 H   0  0  0  0  0  0  0  0  0  0  0  0
   -7.2954   -4.7195    1.9036 H   0  0  0  0  0  0  0  0  0  0  0  0
   -6.0446   -6.0059    1.6607 H   0  0  0  0  0  0  0  0  0  0  0  0
   -4.5401   -5.9284   -0.4339 H   0  0  0  0  0  0  0  0  0  0  0  0
   -2.5163   -2.7361   -1.6352 H   0  0  0  0  0  0  0  0  0  0  0  0
   -4.2080   -2.5105    0.9385 H   0  0  0  0  0  0  0  0  0  0  0  0
   -4.3976   -1.4650   -0.5336 H   0  0  0  0  0  0  0  0  0  0  0  0
   -2.8816   -0.4368    2.9563 H   0  0  0  0  0  0  0  0  0  0  0  0
   -4.3752   -0.4595    1.9666 H   0  0  0  0  0  0  0  0  0  0  0  0
   -2.0251   -3.8117    1.0161 H   0  0  0  0  0  0  0  0  0  0  0  0
    0.7324   -5.4199   -1.1776 H   0  0  0  0  0  0  0  0  0  0  0  0
    1.6991   -3.1447   -1.0388 H   0  0  0  0  0  0  0  0  0  0  0  0
    0.1177   -2.4956   -0.4491 H   0  0  0  0  0  0  0  0  0  0  0  0
    0.2580   -3.1761   -2.1218 H   0  0  0  0  0  0  0  0  0  0  0  0
    0.1820   -4.2661    1.5758 H   0  0  0  0  0  0  0  0  0  0  0  0
    3.4549   -6.6947    1.5624 H   0  0  0  0  0  0  0  0  0  0  0  0
    0.8095   -7.5039    0.2369 H   0  0  0  0  0  0  0  0  0  0  0  0
    1.2761   -7.6820    1.9840 H   0  0  0  0  0  0  0  0  0  0  0  0
    2.1560   -8.6068    0.7108 H   0  0  0  0  0  0  0  0  0  0  0  0
    2.6056   -6.4994   -1.3578 H   0  0  0  0  0  0  0  0  0  0  0  0
    5.4013   -5.6710    0.9643 H   0  0  0  0  0  0  0  0  0  0  0  0
    6.3565   -8.4753    0.1145 H   0  0  0  0  0  0  0  0  0  0  0  0
    5.2422   -8.0921    1.4734 H   0  0  0  0  0  0  0  0  0  0  0  0
    6.9513   -7.5611    1.5532 H   0  0  0  0  0  0  0  0  0  0  0  0
    7.7237   -6.4903   -0.6750 H   0  0  0  0  0  0  0  0  0  0  0  0
    6.7329   -2.4358   -1.1800 H   0  0  0  0  0  0  0  0  0  0  0  0
    4.2564   -3.9561   -0.2687 H   0  0  0  0  0  0  0  0  0  0  0  0
    4.4103   -2.2717   -0.8295 H   0  0  0  0  0  0  0  0  0  0  0  0
    4.6466   -3.6307   -1.9938 H   0  0  0  0  0  0  0  0  0  0  0  0
    5.8568   -3.4992    1.4850 H   0  0  0  0  0  0  0  0  0  0  0  0
    9.4172   -1.2836    1.5625 H   0  0  0  0  0  0  0  0  0  0  0  0
    9.1675   -4.1028    0.3696 H   0  0  0  0  0  0  0  0  0  0  0  0
   10.6666   -3.2155    0.8131 H   0  0  0  0  0  0  0  0  0  0  0  0
    9.5009   -3.6893    2.0927 H   0  0  0  0  0  0  0  0  0  0  0  0
    9.2043   -2.1811   -1.2480 H   0  0  0  0  0  0  0  0  0  0  0  0
    8.3733    0.6400    1.0861 H   0  0  0  0  0  0  0  0  0  0  0  0
   10.1555    2.3790    1.0102 H   0  0  0  0  0  0  0  0  0  0  0  0
   10.5693    1.8988   -0.6728 H   0  0  0  0  0  0  0  0  0  0  0  0
   10.8321    0.7368    0.6886 H   0  0  0  0  0  0  0  0  0  0  0  0
    7.8765    2.3953   -1.3373 H   0  0  0  0  0  0  0  0  0  0  0  0
    6.9995    5.0432    1.2257 H   0  0  0  0  0  0  0  0  0  0  0  0
    8.0888    6.1787   -0.5776 H   0  0  0  0  0  0  0  0  0  0  0  0
    9.1744    4.8250   -0.1064 H   0  0  0  0  0  0  0  0  0  0  0  0
    8.1602    4.7079   -1.6046 H   0  0  0  0  0  0  0  0  0  0  0  0
    5.6927    4.2108   -1.4136 H   0  0  0  0  0  0  0  0  0  0  0  0
    3.5451    6.9395    0.5875 H   0  0  0  0  0  0  0  0  0  0  0  0
    5.7989    7.1149   -1.4756 H   0  0  0  0  0  0  0  0  0  0  0  0
    5.8988    7.6069    0.2640 H   0  0  0  0  0  0  0  0  0  0  0  0
    4.7798    8.4642   -0.8608 H   0  0  0  0  0  0  0  0  0  0  0  0
    3.6740    5.9906   -2.3134 H   0  0  0  0  0  0  0  0  0  0  0  0
  1  2  1  0
  2  3  2  0
  2  4  1  0
  4  5  1  0
  5  6  1  0
  6  7  1  0
  7  8  1  0
  8  9  1  0
  9 10  2  0
 10 11  1  0
 11 12  2  0
 12 13  1  0
 13 14  2  0
 13 15  1  0
 15 16  1  0
 16 17  1  0
 17 18  1  0
 18 19  1  0
 19 20  1  0
 19 21  2  0
 18 22  1  0
 22 23  1  0
 23 24  2  0
 23 25  1  0
 25 26  1  0
 25 27  1  0
 27 28  1  0
 28 29  2  0
 28 30  1  0
 30 31  1  0
 30 32  1  0
 32 33  1  0
 33 34  2  0
 33 35  1  0
 35 36  1  0
 35 37  1  0
 37 38  1  0
 38 39  2  0
 38 40  1  0
 40 41  1  0
 41 42  1  0
 42 43  1  0
 40 44  1  0
 44 45  1  0
 45 46  2  0
 45 47  1  0
 47 48  1  0
 47 49  1  0
 49 50  1  0
 50 51  2  0
 50 52  1  0
 52 53  1  0
 52 54  1  0
 54 55  1  0
 55 56  2  0
 55 57  1  0
 57 58  1  0
 57 59  1  0
 59 60  1  0
 60 61  2  0
 60 62  1  0
 62 63  1  0
 62 64  1  0
 64 65  1  0
 65 66  2  0
 65 67  1  0
 67 68  1  0
 67 69  1  0
 69 70  1  0
 70 71  2  0
 70 72  1  0
 72 73  1  0
 72 74  1  0
 74 75  1  0
 75 76  2  0
 75 77  1  0
 77 78  1  0
 77 79  1  0
 79 80  1  0
 80 81  2  0
 80 82  1  0
 82 83  1  0
 82 84  1  0
 84 85  1  0
 85 86  2  0
 85  5  1  0
 14  9  1  0
 43 11  1  0
  1 87  1  0
  1 88  1  0
  1 89  1  0
  4 90  1  0
  5 91  1  1
  6 92  1  0
  6 93  1  0
  8 94  1  0
  8 95  1  0
 10 96  1  0
 12 97  1  0
 14 98  1  0
 15 99  1  0
 15100  1  0
 17101  1  0
 17102  1  0
 18103  1  1
 20104  1  0
 20105  1  0
 22106  1  0
 25107  1  1
 26108  1  0
 26109  1  0
 26110  1  0
 27111  1  0
 30112  1  1
 31113  1  0
 31114  1  0
 31115  1  0
 32116  1  0
 35117  1  1
 36118  1  0
 36119  1  0
 36120  1  0
 37121  1  0
 40122  1  6
 41123  1  0
 41124  1  0
 43125  1  0
 43126  1  0
 44127  1  0
 47128  1  6
 48129  1  0
 48130  1  0
 48131  1  0
 49132  1  0
 52133  1  1
 53134  1  0
 53135  1  0
 53136  1  0
 54137  1  0
 57138  1  1
 58139  1  0
 58140  1  0
 58141  1  0
 59142  1  0
 62143  1  6
 63144  1  0
 63145  1  0
 63146  1  0
 64147  1  0
 67148  1  1
 68149  1  0
 68150  1  0
 68151  1  0
 69152  1  0
 72153  1  1
 73154  1  0
 73155  1  0
 73156  1  0
 74157  1  0
 77158  1  1
 78159  1  0
 78160  1  0
 78161  1  0
 79162  1  0
 82163  1  1
 83164  1  0
 83165  1  0
 83166  1  0
 84167  1  0
M  END
