
     RDKit          3D

187189  0  0  0  0  0  0  0  0999 V2000
    1.5387  -10.2120    0.4748 C   0  0  0  0  0  0  0  0  0  0  0  0
    2.0683   -8.8654    0.8502 C   0  0  0  0  0  0  0  0  0  0  0  0
    2.1988   -8.5597    2.0660 O   0  0  0  0  0  0  0  0  0  0  0  0
    2.4159   -7.9243   -0.1736 N   0  0  0  0  0  0  0  0  0  0  0  0
    2.9173   -6.5748    0.1174 C   0  0  2  0  0  0  0  0  0  0  0  0
    1.7535   -5.6759    0.6003 C   0  0  0  0  0  0  0  0  0  0  0  0
    2.3725   -4.0353    1.0988 S   0  0  0  0  0  0  0  0  0  0  0  0
    0.8579   -3.4052    1.8932 C   0  0  0  0  0  0  0  0  0  0  0  0
   -0.0458   -2.7227    0.9010 C   0  0  0  0  0  0  0  0  0  0  0  0
   -1.4222   -2.9912    0.9109 C   0  0  0  0  0  0  0  0  0  0  0  0
   -2.2956   -2.2811    0.0741 C   0  0  0  0  0  0  0  0  0  0  0  0
   -1.7735   -1.3320   -0.8174 C   0  0  0  0  0  0  0  0  0  0  0  0
   -0.3978   -1.0526   -0.8382 C   0  0  0  0  0  0  0  0  0  0  0  0
    0.4565   -1.7395    0.0356 C   0  0  0  0  0  0  0  0  0  0  0  0
    0.1407    0.0574   -1.6998 C   0  0  0  0  0  0  0  0  0  0  0  0
    0.5824    1.5220   -0.6774 S   0  0  0  0  0  0  0  0  0  0  0  0
   -1.1058    1.8422   -0.0495 C   0  0  0  0  0  0  0  0  0  0  0  0
   -1.3290    3.3283    0.2442 C   0  0  1  0  0  0  0  0  0  0  0  0
   -1.1770    4.1055   -0.9870 N   0  0  0  0  0  0  0  0  0  0  0  0
   -0.0629    4.9884   -1.1460 C   0  0  0  0  0  0  0  0  0  0  0  0
    0.1571    5.8762   -0.2792 O   0  0  0  0  0  0  0  0  0  0  0  0
    0.8649    4.8283   -2.3190 C   0  0  1  0  0  0  0  0  0  0  0  0
    0.6058    5.9391   -3.3477 C   0  0  0  0  0  0  0  0  0  0  0  0
    2.2497    4.8145   -1.8305 N   0  0  0  0  0  0  0  0  0  0  0  0
    3.3573    5.3210   -2.5711 C   0  0  0  0  0  0  0  0  0  0  0  0
    3.7786    4.6700   -3.5700 O   0  0  0  0  0  0  0  0  0  0  0  0
    4.0658    6.5881   -2.1570 C   0  0  1  0  0  0  0  0  0  0  0  0
    3.4167    7.2749   -0.9444 C   0  0  0  0  0  0  0  0  0  0  0  0
    5.5006    6.3484   -1.9274 N   0  0  0  0  0  0  0  0  0  0  0  0
    6.0054    5.1947   -1.2409 C   0  0  0  0  0  0  0  0  0  0  0  0
    6.5589    4.2859   -1.9202 O   0  0  0  0  0  0  0  0  0  0  0  0
    5.9725    5.1133    0.2619 C   0  0  1  0  0  0  0  0  0  0  0  0
    5.6590    3.7043    0.7873 C   0  0  0  0  0  0  0  0  0  0  0  0
    7.1944    5.6766    0.8546 N   0  0  0  0  0  0  0  0  0  0  0  0
    8.4310    4.9843    1.1134 C   0  0  0  0  0  0  0  0  0  0  0  0
    9.0425    5.2343    2.1866 O   0  0  0  0  0  0  0  0  0  0  0  0
    9.0901    4.1046    0.0811 C   0  0  1  0  0  0  0  0  0  0  0  0
    9.8199    4.9582   -0.9539 C   0  0  0  0  0  0  0  0  0  0  0  0
   10.0383    3.1821    0.7127 N   0  0  0  0  0  0  0  0  0  0  0  0
    9.7664    1.7762    0.8168 C   0  0  0  0  0  0  0  0  0  0  0  0
    8.5824    1.3956    1.0047 O   0  0  0  0  0  0  0  0  0  0  0  0
   10.8424    0.7467    0.5304 C   0  0  1  0  0  0  0  0  0  0  0  0
   12.2128    1.1638    1.0672 C   0  0  0  0  0  0  0  0  0  0  0  0
   10.4739   -0.5583    1.1096 N   0  0  0  0  0  0  0  0  0  0  0  0
   10.0413   -1.7068    0.3600 C   0  0  0  0  0  0  0  0  0  0  0  0
    9.9339   -2.8099    0.9630 O   0  0  0  0  0  0  0  0  0  0  0  0
    9.6887   -1.6207   -1.1135 C   0  0  1  0  0  0  0  0  0  0  0  0
    9.4189   -2.9721   -1.7835 C   0  0  0  0  0  0  0  0  0  0  0  0
    8.5840   -0.6784   -1.3408 N   0  0  0  0  0  0  0  0  0  0  0  0
    7.2485   -0.7073   -0.7865 C   0  0  0  0  0  0  0  0  0  0  0  0
    6.4549    0.2198   -1.1128 O   0  0  0  0  0  0  0  0  0  0  0  0
    6.7682   -1.7375    0.2142 C   0  0  1  0  0  0  0  0  0  0  0  0
    6.7882   -1.1681    1.6343 C   0  0  0  0  0  0  0  0  0  0  0  0
    5.3942   -2.1337   -0.1104 N   0  0  0  0  0  0  0  0  0  0  0  0
    5.0401   -3.3340   -0.8169 C   0  0  0  0  0  0  0  0  0  0  0  0
    4.1430   -3.2565   -1.6940 O   0  0  0  0  0  0  0  0  0  0  0  0
    5.6967   -4.6775   -0.5265 C   0  0  1  0  0  0  0  0  0  0  0  0
    5.8639   -4.9653    0.9711 C   0  0  0  0  0  0  0  0  0  0  0  0
    4.9904   -5.7826   -1.1944 N   0  0  0  0  0  0  0  0  0  0  0  0
    3.5732   -6.0113   -1.1245 C   0  0  0  0  0  0  0  0  0  0  0  0
    2.8838   -5.8634   -2.1727 O   0  0  0  0  0  0  0  0  0  0  0  0
   -2.7089    3.5202    0.8101 C   0  0  0  0  0  0  0  0  0  0  0  0
   -2.8465    3.9639    1.9837 O   0  0  0  0  0  0  0  0  0  0  0  0
   -3.8565    3.1167    0.0559 N   0  0  0  0  0  0  0  0  0  0  0  0
   -5.0064    2.4619    0.6906 C   0  0  2  0  0  0  0  0  0  0  0  0
   -4.6802    0.9838    0.9215 C   0  0  0  0  0  0  0  0  0  0  0  0
   -6.2218    2.5933   -0.1983 C   0  0  0  0  0  0  0  0  0  0  0  0
   -6.1847    2.0843   -1.3506 O   0  0  0  0  0  0  0  0  0  0  0  0
   -7.3860    3.3413    0.1808 N   0  0  0  0  0  0  0  0  0  0  0  0
   -7.7929    3.6187    1.5664 C   0  0  2  0  0  0  0  0  0  0  0  0
   -8.0505    2.3206    2.3506 C   0  0  0  0  0  0  0  0  0  0  0  0
   -9.0012    4.5323    1.6061 C   0  0  0  0  0  0  0  0  0  0  0  0
   -8.8372    5.7114    2.0221 O   0  0  0  0  0  0  0  0  0  0  0  0
  -10.3289    4.1120    1.2454 N   0  0  0  0  0  0  0  0  0  0  0  0
  -10.6637    3.0290    0.3109 C   0  0  2  0  0  0  0  0  0  0  0  0
  -11.2534    3.6451   -0.9646 C   0  0  0  0  0  0  0  0  0  0  0  0
  -11.6562    2.0773    0.9308 C   0  0  0  0  0  0  0  0  0  0  0  0
  -12.2294    2.3867    2.0126 O   0  0  0  0  0  0  0  0  0  0  0  0
  -12.0096    0.8361    0.2990 N   0  0  0  0  0  0  0  0  0  0  0  0
  -11.0250   -0.1380   -0.2101 C   0  0  2  0  0  0  0  0  0  0  0  0
  -10.6324    0.1926   -1.6579 C   0  0  0  0  0  0  0  0  0  0  0  0
  -11.6113   -1.5347   -0.1649 C   0  0  0  0  0  0  0  0  0  0  0  0
  -12.7507   -1.7431   -0.6606 O   0  0  0  0  0  0  0  0  0  0  0  0
  -10.9201   -2.6291    0.4526 N   0  0  0  0  0  0  0  0  0  0  0  0
   -9.5411   -2.9750    0.0985 C   0  0  2  0  0  0  0  0  0  0  0  0
   -9.5116   -3.6502   -1.2809 C   0  0  0  0  0  0  0  0  0  0  0  0
   -8.9522   -3.8914    1.1402 C   0  0  0  0  0  0  0  0  0  0  0  0
   -9.4667   -5.0235    1.3552 O   0  0  0  0  0  0  0  0  0  0  0  0
   -7.8419   -3.4610    1.9287 N   0  0  0  0  0  0  0  0  0  0  0  0
   -6.4641   -3.9236    1.7200 C   0  0  1  0  0  0  0  0  0  0  0  0
   -6.2542   -5.2836    2.3437 C   0  0  0  0  0  0  0  0  0  0  0  0
   -6.7734   -6.4747    1.7492 N   0  0  0  0  0  0  0  0  0  0  0  0
   -5.6219   -5.3743    3.4294 O   0  0  0  0  0  0  0  0  0  0  0  0
   -6.0741   -3.8840    0.2294 C   0  0  0  0  0  0  0  0  0  0  0  0
   -4.2795   -4.1772   -0.0217 S   0  0  0  0  0  0  0  0  0  0  0  0
   -3.7805   -2.4419    0.2282 C   0  0  0  0  0  0  0  0  0  0  0  0
    2.2797  -10.7421   -0.1561 H   0  0  0  0  0  0  0  0  0  0  0  0
    0.5929  -10.0927   -0.0940 H   0  0  0  0  0  0  0  0  0  0  0  0
    1.3410  -10.8215    1.3825 H   0  0  0  0  0  0  0  0  0  0  0  0
    2.3513   -8.2513   -1.1634 H   0  0  0  0  0  0  0  0  0  0  0  0
    3.6772   -6.6543    0.9224 H   0  0  0  0  0  0  0  0  0  0  0  0
    1.2764   -6.1539    1.4792 H   0  0  0  0  0  0  0  0  0  0  0  0
    0.9927   -5.5628   -0.2037 H   0  0  0  0  0  0  0  0  0  0  0  0
    0.3305   -4.2263    2.4267 H   0  0  0  0  0  0  0  0  0  0  0  0
    1.1644   -2.6569    2.6537 H   0  0  0  0  0  0  0  0  0  0  0  0
   -1.8257   -3.7029    1.6247 H   0  0  0  0  0  0  0  0  0  0  0  0
   -2.4467   -0.7701   -1.4520 H   0  0  0  0  0  0  0  0  0  0  0  0
    1.5088   -1.4820    0.0570 H   0  0  0  0  0  0  0  0  0  0  0  0
   -0.5941    0.3642   -2.4795 H   0  0  0  0  0  0  0  0  0  0  0  0
    1.0550   -0.2959   -2.2306 H   0  0  0  0  0  0  0  0  0  0  0  0
   -1.2514    1.2426    0.8774 H   0  0  0  0  0  0  0  0  0  0  0  0
   -1.8596    1.5077   -0.7982 H   0  0  0  0  0  0  0  0  0  0  0  0
   -0.5871    3.6500    1.0094 H   0  0  0  0  0  0  0  0  0  0  0  0
   -1.6707    3.7768   -1.8481 H   0  0  0  0  0  0  0  0  0  0  0  0
    0.6588    3.8509   -2.8084 H   0  0  0  0  0  0  0  0  0  0  0  0
    1.2211    5.7647   -4.2588 H   0  0  0  0  0  0  0  0  0  0  0  0
    0.8581    6.9342   -2.9276 H   0  0  0  0  0  0  0  0  0  0  0  0
   -0.4620    5.9334   -3.6539 H   0  0  0  0  0  0  0  0  0  0  0  0
    2.4734    4.2215   -0.9993 H   0  0  0  0  0  0  0  0  0  0  0  0
    3.9736    7.2972   -3.0065 H   0  0  0  0  0  0  0  0  0  0  0  0
    4.0721    8.0889   -0.5704 H   0  0  0  0  0  0  0  0  0  0  0  0
    2.4418    7.7205   -1.2403 H   0  0  0  0  0  0  0  0  0  0  0  0
    3.2259    6.5580   -0.1225 H   0  0  0  0  0  0  0  0  0  0  0  0
    6.1627    6.8368   -2.5734 H   0  0  0  0  0  0  0  0  0  0  0  0
    5.1315    5.7449    0.6116 H   0  0  0  0  0  0  0  0  0  0  0  0
    6.3444    2.9417    0.3742 H   0  0  0  0  0  0  0  0  0  0  0  0
    5.7318    3.6903    1.8960 H   0  0  0  0  0  0  0  0  0  0  0  0
    4.6244    3.4219    0.4997 H   0  0  0  0  0  0  0  0  0  0  0  0
    7.0897    6.6146    1.3096 H   0  0  0  0  0  0  0  0  0  0  0  0
    8.3256    3.5150   -0.4564 H   0  0  0  0  0  0  0  0  0  0  0  0
   10.3134    4.3030   -1.7017 H   0  0  0  0  0  0  0  0  0  0  0  0
   10.5952    5.5840   -0.4669 H   0  0  0  0  0  0  0  0  0  0  0  0
    9.1045    5.6206   -1.4831 H   0  0  0  0  0  0  0  0  0  0  0  0
   10.9196    3.5673    1.1303 H   0  0  0  0  0  0  0  0  0  0  0  0
   10.9413    0.6744   -0.5683 H   0  0  0  0  0  0  0  0  0  0  0  0
   12.1682    1.3796    2.1556 H   0  0  0  0  0  0  0  0  0  0  0  0
   12.5848    2.0642    0.5305 H   0  0  0  0  0  0  0  0  0  0  0  0
   12.9505    0.3497    0.8915 H   0  0  0  0  0  0  0  0  0  0  0  0
   10.5223   -0.6555    2.1506 H   0  0  0  0  0  0  0  0  0  0  0  0
   10.5854   -1.2275   -1.6326 H   0  0  0  0  0  0  0  0  0  0  0  0
    8.7093   -3.6009   -1.2227 H   0  0  0  0  0  0  0  0  0  0  0  0
   10.3675   -3.5441   -1.8671 H   0  0  0  0  0  0  0  0  0  0  0  0
    9.0239   -2.8145   -2.8118 H   0  0  0  0  0  0  0  0  0  0  0  0
    8.8117    0.1522   -1.9327 H   0  0  0  0  0  0  0  0  0  0  0  0
    7.4238   -2.6212    0.1946 H   0  0  0  0  0  0  0  0  0  0  0  0
    7.8286   -1.0403    1.9920 H   0  0  0  0  0  0  0  0  0  0  0  0
    6.2688   -0.1860    1.6747 H   0  0  0  0  0  0  0  0  0  0  0  0
    6.2695   -1.8638    2.3270 H   0  0  0  0  0  0  0  0  0  0  0  0
    4.6524   -1.3909   -0.0576 H   0  0  0  0  0  0  0  0  0  0  0  0
    6.7159   -4.6325   -0.9572 H   0  0  0  0  0  0  0  0  0  0  0  0
    4.9581   -4.7017    1.5486 H   0  0  0  0  0  0  0  0  0  0  0  0
    6.7178   -4.3912    1.3972 H   0  0  0  0  0  0  0  0  0  0  0  0
    6.0890   -6.0427    1.1304 H   0  0  0  0  0  0  0  0  0  0  0  0
    5.4983   -6.2571   -1.9781 H   0  0  0  0  0  0  0  0  0  0  0  0
   -3.7739    3.0711   -0.9888 H   0  0  0  0  0  0  0  0  0  0  0  0
   -5.1868    2.9298    1.6772 H   0  0  0  0  0  0  0  0  0  0  0  0
   -4.3801    0.5123   -0.0374 H   0  0  0  0  0  0  0  0  0  0  0  0
   -5.5640    0.4468    1.3358 H   0  0  0  0  0  0  0  0  0  0  0  0
   -3.8405    0.8876    1.6435 H   0  0  0  0  0  0  0  0  0  0  0  0
   -7.9833    3.6890   -0.6032 H   0  0  0  0  0  0  0  0  0  0  0  0
   -6.9696    4.1599    2.0742 H   0  0  0  0  0  0  0  0  0  0  0  0
   -8.5763    1.5654    1.7365 H   0  0  0  0  0  0  0  0  0  0  0  0
   -7.0905    1.8798    2.6905 H   0  0  0  0  0  0  0  0  0  0  0  0
   -8.6591    2.5256    3.2593 H   0  0  0  0  0  0  0  0  0  0  0  0
  -11.1091    4.7428    1.5394 H   0  0  0  0  0  0  0  0  0  0  0  0
   -9.7613    2.4584    0.0431 H   0  0  0  0  0  0  0  0  0  0  0  0
  -10.4974    4.2945   -1.4496 H   0  0  0  0  0  0  0  0  0  0  0  0
  -12.1475    4.2578   -0.7204 H   0  0  0  0  0  0  0  0  0  0  0  0
  -11.5573    2.8624   -1.6880 H   0  0  0  0  0  0  0  0  0  0  0  0
  -12.9877    0.5103    0.4777 H   0  0  0  0  0  0  0  0  0  0  0  0
  -10.1171   -0.1057    0.4248 H   0  0  0  0  0  0  0  0  0  0  0  0
   -9.9841    1.0916   -1.6982 H   0  0  0  0  0  0  0  0  0  0  0  0
  -10.0441   -0.6378   -2.1020 H   0  0  0  0  0  0  0  0  0  0  0  0
  -11.5397    0.3676   -2.2816 H   0  0  0  0  0  0  0  0  0  0  0  0
  -11.5224   -3.3944    0.8405 H   0  0  0  0  0  0  0  0  0  0  0  0
   -8.9202   -2.0565    0.0464 H   0  0  0  0  0  0  0  0  0  0  0  0
   -9.9436   -2.9756   -2.0459 H   0  0  0  0  0  0  0  0  0  0  0  0
  -10.1039   -4.5924   -1.2722 H   0  0  0  0  0  0  0  0  0  0  0  0
   -8.4687   -3.8818   -1.5824 H   0  0  0  0  0  0  0  0  0  0  0  0
   -8.0454   -2.8537    2.7652 H   0  0  0  0  0  0  0  0  0  0  0  0
   -5.8048   -3.2013    2.2564 H   0  0  0  0  0  0  0  0  0  0  0  0
   -6.5718   -7.4037    2.1838 H   0  0  0  0  0  0  0  0  0  0  0  0
   -7.3713   -6.4490    0.8924 H   0  0  0  0  0  0  0  0  0  0  0  0
   -6.6277   -4.6676   -0.3279 H   0  0  0  0  0  0  0  0  0  0  0  0
   -6.3734   -2.9078   -0.2112 H   0  0  0  0  0  0  0  0  0  0  0  0
   -4.3234   -1.8143   -0.5089 H   0  0  0  0  0  0  0  0  0  0  0  0
   -4.0577   -2.1109    1.2463 H   0  0  0  0  0  0  0  0  0  0  0  0
  1  2  1  0
  2  3  2  0
  2  4  1  0
  4  5  1  0
  5  6  1  0
  6  7  1  0
  7  8  1  0
  8  9  1  0
  9 10  2  0
 10 11  1  0
 11 12  2  0
 12 13  1  0
 13 14  2  0
 13 15  1  0
 15 16  1  0
 16 17  1  0
 17 18  1  0
 18 19  1  0
 19 20  1  0
 20 21  2  0
 20 22  1  0
 22 23  1  0
 22 24  1  0
 24 25  1  0
 25 26  2  0
 25 27  1  0
 27 28  1  0
 27 29  1  0
 29 30  1  0
 30 31  2  0
 30 32  1  0
 32 33  1  0
 32 34  1  0
 34 35  1  0
 35 36  2  0
 35 37  1  0
 37 38  1  0
 37 39  1  0
 39 40  1  0
 40 41  2  0
 40 42  1  0
 42 43  1  0
 42 44  1  0
 44 45  1  0
 45 46  2  0
 45 47  1  0
 47 48  1  0
 47 49  1  0
 49 50  1  0
 50 51  2  0
 50 52  1  0
 52 53  1  0
 52 54  1  0
 54 55  1  0
 55 56  2  0
 55 57  1  0
 57 58  1  0
 57 59  1  0
 59 60  1  0
 60 61  2  0
 18 62  1  0
 62 63  2  0
 62 64  1  0
 64 65  1  0
 65 66  1  0
 65 67  1  0
 67 68  2  0
 67 69  1  0
 69 70  1  0
 70 71  1  0
 70 72  1  0
 72 73  2  0
 72 74  1  0
 74 75  1  0
 75 76  1  0
 75 77  1  0
 77 78  2  0
 77 79  1  0
 79 80  1  0
 80 81  1  0
 80 82  1  0
 82 83  2  0
 82 84  1  0
 84 85  1  0
 85 86  1  0
 85 87  1  0
 87 88  2  0
 87 89  1  0
 89 90  1  0
 90 91  1  0
 91 92  1  0
 91 93  2  0
 90 94  1  0
 94 95  1  0
 95 96  1  0
 60  5  1  0
 14  9  1  0
 96 11  1  0
  1 97  1  0
  1 98  1  0
  1 99  1  0
  4100  1  0
  5101  1  1
  6102  1  0
  6103  1  0
  8104  1  0
  8105  1  0
 10106  1  0
 12107  1  0
 14108  1  0
 15109  1  0
 15110  1  0
 17111  1  0
 17112  1  0
 18113  1  1
 19114  1  0
 22115  1  6
 23116  1  0
 23117  1  0
 23118  1  0
 24119  1  0
 27120  1  6
 28121  1  0
 28122  1  0
 28123  1  0
 29124  1  0
 32125  1  1
 33126  1  0
 33127  1  0
 33128  1  0
 34129  1  0
 37130  1  6
 38131  1  0
 38132  1  0
 38133  1  0
 39134  1  0
 42135  1  6
 43136  1  0
 43137  1  0
 43138  1  0
 44139  1  0
 47140  1  6
 48141  1  0
 48142  1  0
 48143  1  0
 49144  1  0
 52145  1  1
 53146  1  0
 53147  1  0
 53148  1  0
 54149  1  0
 57150  1  6
 58151  1  0
 58152  1  0
 58153  1  0
 59154  1  0
 64155  1  0
 65156  1  1
 66157  1  0
 66158  1  0
 66159  1  0
 69160  1  0
 70161  1  1
 71162  1  0
 71163  1  0
 71164  1  0
 74165  1  0
 75166  1  6
 76167  1  0
 76168  1  0
 76169  1  0
 79170  1  0
 80171  1  1
 81172  1  0
 81173  1  0
 81174  1  0
 84175  1  0
 85176  1  6
 86177  1  0
 86178  1  0
 86179  1  0
 89180  1  0
 90181  1  1
 92182  1  0
 92183  1  0
 94184  1  0
 94185  1  0
 96186  1  0
 96187  1  0
M  END
