
     RDKit          3D

177179  0  0  0  0  0  0  0  0999 V2000
    1.9986   10.1547    0.4971 C   0  0  0  0  0  0  0  0  0  0  0  0
    1.9133    9.4646   -0.8169 C   0  0  0  0  0  0  0  0  0  0  0  0
    1.3763   10.0653   -1.7895 O   0  0  0  0  0  0  0  0  0  0  0  0
    2.4072    8.1414   -1.0204 N   0  0  0  0  0  0  0  0  0  0  0  0
    1.9969    6.9608   -0.2474 C   0  0  2  0  0  0  0  0  0  0  0  0
    0.4635    6.8459   -0.2134 C   0  0  0  0  0  0  0  0  0  0  0  0
   -0.0567    5.2822    0.5587 S   0  0  0  0  0  0  0  0  0  0  0  0
   -0.6899    4.3811   -0.9342 C   0  0  0  0  0  0  0  0  0  0  0  0
   -1.8920    3.5747   -0.5042 C   0  0  0  0  0  0  0  0  0  0  0  0
   -1.7624    2.1763   -0.3670 C   0  0  0  0  0  0  0  0  0  0  0  0
   -2.4332    1.5056    0.6694 C   0  0  0  0  0  0  0  0  0  0  0  0
   -3.1459    2.2823    1.5975 C   0  0  0  0  0  0  0  0  0  0  0  0
   -3.5100    3.6015    1.2935 C   0  0  0  0  0  0  0  0  0  0  0  0
   -2.9353    4.2149    0.1715 C   0  0  0  0  0  0  0  0  0  0  0  0
   -4.2506    4.4600    2.2893 C   0  0  0  0  0  0  0  0  0  0  0  0
   -6.0608    4.1937    2.2358 S   0  0  0  0  0  0  0  0  0  0  0  0
   -6.3851    5.1406    0.6788 C   0  0  0  0  0  0  0  0  0  0  0  0
   -7.6669    4.6801   -0.0362 C   0  0  1  0  0  0  0  0  0  0  0  0
   -7.4284    3.3784   -0.7714 C   0  0  0  0  0  0  0  0  0  0  0  0
   -6.8149    2.2762   -0.1229 N   0  0  0  0  0  0  0  0  0  0  0  0
   -7.5844    3.3691   -2.0190 O   0  0  0  0  0  0  0  0  0  0  0  0
   -8.8146    4.6435    0.8763 N   0  0  0  0  0  0  0  0  0  0  0  0
   -9.3532    3.4831    1.5066 C   0  0  0  0  0  0  0  0  0  0  0  0
   -9.1455    3.3138    2.7397 O   0  0  0  0  0  0  0  0  0  0  0  0
  -10.3256    2.5587    0.8210 C   0  0  1  0  0  0  0  0  0  0  0  0
  -10.8300    3.0932   -0.5304 C   0  0  0  0  0  0  0  0  0  0  0  0
   -9.7402    1.2092    0.6962 N   0  0  0  0  0  0  0  0  0  0  0  0
  -10.4878    0.1100    0.1627 C   0  0  0  0  0  0  0  0  0  0  0  0
  -11.6761   -0.0703    0.5150 O   0  0  0  0  0  0  0  0  0  0  0  0
   -9.8757   -0.8309   -0.8506 C   0  0  1  0  0  0  0  0  0  0  0  0
   -8.4301   -0.4474   -1.2190 C   0  0  0  0  0  0  0  0  0  0  0  0
   -9.9339   -2.2013   -0.3730 N   0  0  0  0  0  0  0  0  0  0  0  0
   -9.2584   -2.6576    0.8033 C   0  0  0  0  0  0  0  0  0  0  0  0
   -9.3548   -2.0165    1.8875 O   0  0  0  0  0  0  0  0  0  0  0  0
   -8.3640   -3.8793    0.7783 C   0  0  1  0  0  0  0  0  0  0  0  0
   -9.0482   -5.0247    1.5135 C   0  0  0  0  0  0  0  0  0  0  0  0
   -8.0773   -4.2740   -0.6070 N   0  0  0  0  0  0  0  0  0  0  0  0
   -6.7808   -4.1516   -1.2259 C   0  0  0  0  0  0  0  0  0  0  0  0
   -6.7412   -3.8011   -2.4435 O   0  0  0  0  0  0  0  0  0  0  0  0
   -5.4720   -4.3950   -0.4826 C   0  0  1  0  0  0  0  0  0  0  0  0
   -5.5670   -5.6103    0.4513 C   0  0  0  0  0  0  0  0  0  0  0  0
   -4.4035   -4.6573   -1.4569 N   0  0  0  0  0  0  0  0  0  0  0  0
   -3.4194   -3.6704   -1.7909 C   0  0  0  0  0  0  0  0  0  0  0  0
   -3.5153   -3.0553   -2.8902 O   0  0  0  0  0  0  0  0  0  0  0  0
   -2.1594   -3.5113   -0.9688 C   0  0  1  0  0  0  0  0  0  0  0  0
   -1.7607   -2.0381   -0.7938 C   0  0  0  0  0  0  0  0  0  0  0  0
   -3.1161   -1.0508   -0.0503 S   0  0  0  0  0  0  0  0  0  0  0  0
   -2.0846    0.0715    0.9668 C   0  0  0  0  0  0  0  0  0  0  0  0
   -2.3001   -4.1200    0.3621 N   0  0  0  0  0  0  0  0  0  0  0  0
   -1.3890   -5.0960    0.9305 C   0  0  0  0  0  0  0  0  0  0  0  0
   -1.3373   -5.1981    2.1844 O   0  0  0  0  0  0  0  0  0  0  0  0
   -0.5549   -6.0489    0.0990 C   0  0  1  0  0  0  0  0  0  0  0  0
   -1.4001   -6.7661   -0.9777 C   0  0  0  0  0  0  0  0  0  0  0  0
    0.6075   -5.3613   -0.4886 N   0  0  0  0  0  0  0  0  0  0  0  0
    1.6081   -6.0408   -1.2805 C   0  0  0  0  0  0  0  0  0  0  0  0
    1.8799   -5.5878   -2.4246 O   0  0  0  0  0  0  0  0  0  0  0  0
    2.3510   -7.2594   -0.7716 C   0  0  1  0  0  0  0  0  0  0  0  0
    1.5517   -8.5516   -1.0146 C   0  0  0  0  0  0  0  0  0  0  0  0
    3.6413   -7.3787   -1.4474 N   0  0  0  0  0  0  0  0  0  0  0  0
    4.8496   -6.7152   -1.0426 C   0  0  0  0  0  0  0  0  0  0  0  0
    5.8393   -6.7526   -1.8370 O   0  0  0  0  0  0  0  0  0  0  0  0
    4.9852   -5.9830    0.2649 C   0  0  1  0  0  0  0  0  0  0  0  0
    5.2476   -6.9920    1.3954 C   0  0  0  0  0  0  0  0  0  0  0  0
    6.0296   -4.9460    0.1633 N   0  0  0  0  0  0  0  0  0  0  0  0
    7.2322   -4.8915    0.9644 C   0  0  0  0  0  0  0  0  0  0  0  0
    7.1353   -4.7764    2.2188 O   0  0  0  0  0  0  0  0  0  0  0  0
    8.5926   -5.0034    0.3292 C   0  0  1  0  0  0  0  0  0  0  0  0
    8.9446   -6.4744    0.1003 C   0  0  0  0  0  0  0  0  0  0  0  0
    8.6334   -4.2768   -0.9526 N   0  0  0  0  0  0  0  0  0  0  0  0
    8.8165   -2.8518   -1.0892 C   0  0  0  0  0  0  0  0  0  0  0  0
    8.7501   -2.3564   -2.2419 O   0  0  0  0  0  0  0  0  0  0  0  0
    9.1542   -1.9547    0.0800 C   0  0  1  0  0  0  0  0  0  0  0  0
   10.6477   -1.6089    0.0529 C   0  0  0  0  0  0  0  0  0  0  0  0
    8.3177   -0.7580    0.0909 N   0  0  0  0  0  0  0  0  0  0  0  0
    8.5222    0.3728   -0.7670 C   0  0  0  0  0  0  0  0  0  0  0  0
    8.0125    0.3854   -1.9243 O   0  0  0  0  0  0  0  0  0  0  0  0
    9.2880    1.5805   -0.2824 C   0  0  1  0  0  0  0  0  0  0  0  0
   10.3644    1.9810   -1.3053 C   0  0  0  0  0  0  0  0  0  0  0  0
    8.3553    2.6961   -0.0148 N   0  0  0  0  0  0  0  0  0  0  0  0
    8.8255    3.9975    0.3558 C   0  0  0  0  0  0  0  0  0  0  0  0
    9.9901    4.1202    0.7998 O   0  0  0  0  0  0  0  0  0  0  0  0
    7.9781    5.2346    0.1449 C   0  0  1  0  0  0  0  0  0  0  0  0
    8.7776    6.2625   -0.6789 C   0  0  0  0  0  0  0  0  0  0  0  0
    6.7192    4.8950   -0.5537 N   0  0  0  0  0  0  0  0  0  0  0  0
    5.4045    5.0495    0.0111 C   0  0  0  0  0  0  0  0  0  0  0  0
    4.4980    4.2640   -0.3806 O   0  0  0  0  0  0  0  0  0  0  0  0
    5.0695    6.1224    1.0154 C   0  0  1  0  0  0  0  0  0  0  0  0
    5.3765    7.5258    0.4814 C   0  0  0  0  0  0  0  0  0  0  0  0
    3.6657    5.9982    1.4619 N   0  0  0  0  0  0  0  0  0  0  0  0
    2.6194    6.9231    1.1434 C   0  0  0  0  0  0  0  0  0  0  0  0
    2.1097    7.6013    2.0782 O   0  0  0  0  0  0  0  0  0  0  0  0
    1.2698    9.7370    1.2168 H   0  0  0  0  0  0  0  0  0  0  0  0
    3.0316   10.0444    0.9056 H   0  0  0  0  0  0  0  0  0  0  0  0
    1.7828   11.2433    0.3889 H   0  0  0  0  0  0  0  0  0  0  0  0
    2.8314    7.9437   -1.9493 H   0  0  0  0  0  0  0  0  0  0  0  0
    2.3595    6.0606   -0.7895 H   0  0  0  0  0  0  0  0  0  0  0  0
    0.0440    7.6714    0.4102 H   0  0  0  0  0  0  0  0  0  0  0  0
    0.0491    6.9787   -1.2293 H   0  0  0  0  0  0  0  0  0  0  0  0
    0.1309    3.7050   -1.2700 H   0  0  0  0  0  0  0  0  0  0  0  0
   -0.9540    5.0522   -1.7824 H   0  0  0  0  0  0  0  0  0  0  0  0
   -0.9923    1.6454   -0.9143 H   0  0  0  0  0  0  0  0  0  0  0  0
   -3.1241    1.9633    2.6402 H   0  0  0  0  0  0  0  0  0  0  0  0
   -3.0576    5.2788    0.0204 H   0  0  0  0  0  0  0  0  0  0  0  0
   -3.8849    4.2487    3.3172 H   0  0  0  0  0  0  0  0  0  0  0  0
   -4.0554    5.5388    2.1078 H   0  0  0  0  0  0  0  0  0  0  0  0
   -6.4807    6.2322    0.9227 H   0  0  0  0  0  0  0  0  0  0  0  0
   -5.5280    5.0336   -0.0410 H   0  0  0  0  0  0  0  0  0  0  0  0
   -7.9188    5.4466   -0.8206 H   0  0  0  0  0  0  0  0  0  0  0  0
   -5.8695    2.0007   -0.4532 H   0  0  0  0  0  0  0  0  0  0  0  0
   -7.0602    1.9886    0.8491 H   0  0  0  0  0  0  0  0  0  0  0  0
   -8.9972    5.5455    1.3673 H   0  0  0  0  0  0  0  0  0  0  0  0
  -11.2343    2.4919    1.4827 H   0  0  0  0  0  0  0  0  0  0  0  0
  -11.3279    4.0612   -0.3748 H   0  0  0  0  0  0  0  0  0  0  0  0
  -10.0247    3.1712   -1.2967 H   0  0  0  0  0  0  0  0  0  0  0  0
  -11.6314    2.4106   -0.9264 H   0  0  0  0  0  0  0  0  0  0  0  0
   -9.0925    0.9047    1.4654 H   0  0  0  0  0  0  0  0  0  0  0  0
  -10.4826   -0.7570   -1.7613 H   0  0  0  0  0  0  0  0  0  0  0  0
   -7.7228   -0.7130   -0.4041 H   0  0  0  0  0  0  0  0  0  0  0  0
   -8.1365   -1.0160   -2.1101 H   0  0  0  0  0  0  0  0  0  0  0  0
   -8.3558    0.6218   -1.4383 H   0  0  0  0  0  0  0  0  0  0  0  0
  -10.6455   -2.8562   -0.8010 H   0  0  0  0  0  0  0  0  0  0  0  0
   -7.4224   -3.6121    1.3077 H   0  0  0  0  0  0  0  0  0  0  0  0
   -8.4899   -5.9777    1.3664 H   0  0  0  0  0  0  0  0  0  0  0  0
   -9.1240   -4.7884    2.5959 H   0  0  0  0  0  0  0  0  0  0  0  0
  -10.0978   -5.1682    1.1283 H   0  0  0  0  0  0  0  0  0  0  0  0
   -8.8793   -4.5044   -1.2320 H   0  0  0  0  0  0  0  0  0  0  0  0
   -5.2300   -3.4874    0.1203 H   0  0  0  0  0  0  0  0  0  0  0  0
   -6.0041   -5.3424    1.4306 H   0  0  0  0  0  0  0  0  0  0  0  0
   -4.5529   -6.0207    0.6539 H   0  0  0  0  0  0  0  0  0  0  0  0
   -6.1754   -6.4267   -0.0117 H   0  0  0  0  0  0  0  0  0  0  0  0
   -4.5591   -5.4398   -2.1372 H   0  0  0  0  0  0  0  0  0  0  0  0
   -1.3607   -4.0110   -1.5382 H   0  0  0  0  0  0  0  0  0  0  0  0
   -0.8407   -2.0144   -0.1667 H   0  0  0  0  0  0  0  0  0  0  0  0
   -1.4965   -1.5913   -1.7841 H   0  0  0  0  0  0  0  0  0  0  0  0
   -2.2833   -0.1404    2.0421 H   0  0  0  0  0  0  0  0  0  0  0  0
   -0.9865   -0.0680    0.8162 H   0  0  0  0  0  0  0  0  0  0  0  0
   -2.9816   -3.6858    1.0237 H   0  0  0  0  0  0  0  0  0  0  0  0
   -0.1606   -6.8233    0.7977 H   0  0  0  0  0  0  0  0  0  0  0  0
   -1.4208   -7.8519   -0.7915 H   0  0  0  0  0  0  0  0  0  0  0  0
   -0.9981   -6.5861   -2.0034 H   0  0  0  0  0  0  0  0  0  0  0  0
   -2.4617   -6.4272   -0.9717 H   0  0  0  0  0  0  0  0  0  0  0  0
    0.6542   -4.3223   -0.4880 H   0  0  0  0  0  0  0  0  0  0  0  0
    2.4844   -7.1647    0.3237 H   0  0  0  0  0  0  0  0  0  0  0  0
    0.7142   -8.6487   -0.3003 H   0  0  0  0  0  0  0  0  0  0  0  0
    2.2179   -9.4288   -0.8515 H   0  0  0  0  0  0  0  0  0  0  0  0
    1.1774   -8.5942   -2.0562 H   0  0  0  0  0  0  0  0  0  0  0  0
    3.6557   -7.8542   -2.3837 H   0  0  0  0  0  0  0  0  0  0  0  0
    4.0267   -5.4592    0.4881 H   0  0  0  0  0  0  0  0  0  0  0  0
    5.2549   -6.4774    2.3839 H   0  0  0  0  0  0  0  0  0  0  0  0
    4.4497   -7.7690    1.4278 H   0  0  0  0  0  0  0  0  0  0  0  0
    6.2183   -7.5174    1.2316 H   0  0  0  0  0  0  0  0  0  0  0  0
    6.0639   -4.4101   -0.7397 H   0  0  0  0  0  0  0  0  0  0  0  0
    9.3664   -4.6147    1.0170 H   0  0  0  0  0  0  0  0  0  0  0  0
    9.9701   -6.5638   -0.3170 H   0  0  0  0  0  0  0  0  0  0  0  0
    8.2314   -6.9500   -0.6139 H   0  0  0  0  0  0  0  0  0  0  0  0
    8.9055   -7.0373    1.0661 H   0  0  0  0  0  0  0  0  0  0  0  0
    8.3502   -4.7945   -1.8043 H   0  0  0  0  0  0  0  0  0  0  0  0
    8.9648   -2.4755    1.0504 H   0  0  0  0  0  0  0  0  0  0  0  0
   10.9227   -1.1176   -0.9034 H   0  0  0  0  0  0  0  0  0  0  0  0
   10.8998   -0.9370    0.9006 H   0  0  0  0  0  0  0  0  0  0  0  0
   11.2487   -2.5330    0.1554 H   0  0  0  0  0  0  0  0  0  0  0  0
    7.5017   -0.7126    0.7388 H   0  0  0  0  0  0  0  0  0  0  0  0
    9.7867    1.3056    0.6699 H   0  0  0  0  0  0  0  0  0  0  0  0
   11.1704    2.5604   -0.8095 H   0  0  0  0  0  0  0  0  0  0  0  0
    9.9206    2.5970   -2.1179 H   0  0  0  0  0  0  0  0  0  0  0  0
   10.8274    1.0856   -1.7626 H   0  0  0  0  0  0  0  0  0  0  0  0
    7.3452    2.4579    0.1744 H   0  0  0  0  0  0  0  0  0  0  0  0
    7.7797    5.6412    1.1375 H   0  0  0  0  0  0  0  0  0  0  0  0
    8.1716    7.1565   -0.8858 H   0  0  0  0  0  0  0  0  0  0  0  0
    9.6889    6.5744   -0.1180 H   0  0  0  0  0  0  0  0  0  0  0  0
    9.0965    5.8160   -1.6477 H   0  0  0  0  0  0  0  0  0  0  0  0
    6.7395    4.9509   -1.5850 H   0  0  0  0  0  0  0  0  0  0  0  0
    5.6911    5.9708    1.9213 H   0  0  0  0  0  0  0  0  0  0  0  0
    4.9872    7.6521   -0.5521 H   0  0  0  0  0  0  0  0  0  0  0  0
    6.4720    7.6948    0.4632 H   0  0  0  0  0  0  0  0  0  0  0  0
    4.9460    8.3033    1.1388 H   0  0  0  0  0  0  0  0  0  0  0  0
    3.4883    5.3561    2.2766 H   0  0  0  0  0  0  0  0  0  0  0  0
  1  2  1  0
  2  3  2  0
  2  4  1  0
  4  5  1  0
  5  6  1  0
  6  7  1  0
  7  8  1  0
  8  9  1  0
  9 10  2  0
 10 11  1  0
 11 12  2  0
 12 13  1  0
 13 14  2  0
 13 15  1  0
 15 16  1  0
 16 17  1  0
 17 18  1  0
 18 19  1  0
 19 20  1  0
 19 21  2  0
 18 22  1  0
 22 23  1  0
 23 24  2  0
 23 25  1  0
 25 26  1  0
 25 27  1  0
 27 28  1  0
 28 29  2  0
 28 30  1  0
 30 31  1  0
 30 32  1  0
 32 33  1  0
 33 34  2  0
 33 35  1  0
 35 36  1  0
 35 37  1  0
 37 38  1  0
 38 39  2  0
 38 40  1  0
 40 41  1  0
 40 42  1  0
 42 43  1  0
 43 44  2  0
 43 45  1  0
 45 46  1  0
 46 47  1  0
 47 48  1  0
 45 49  1  0
 49 50  1  0
 50 51  2  0
 50 52  1  0
 52 53  1  0
 52 54  1  0
 54 55  1  0
 55 56  2  0
 55 57  1  0
 57 58  1  0
 57 59  1  0
 59 60  1  0
 60 61  2  0
 60 62  1  0
 62 63  1  0
 62 64  1  0
 64 65  1  0
 65 66  2  0
 65 67  1  0
 67 68  1  0
 67 69  1  0
 69 70  1  0
 70 71  2  0
 70 72  1  0
 72 73  1  0
 72 74  1  0
 74 75  1  0
 75 76  2  0
 75 77  1  0
 77 78  1  0
 77 79  1  0
 79 80  1  0
 80 81  2  0
 80 82  1  0
 82 83  1  0
 82 84  1  0
 84 85  1  0
 85 86  2  0
 85 87  1  0
 87 88  1  0
 87 89  1  0
 89 90  1  0
 90 91  2  0
 90  5  1  0
 14  9  1  0
 48 11  1  0
  1 92  1  0
  1 93  1  0
  1 94  1  0
  4 95  1  0
  5 96  1  6
  6 97  1  0
  6 98  1  0
  8 99  1  0
  8100  1  0
 10101  1  0
 12102  1  0
 14103  1  0
 15104  1  0
 15105  1  0
 17106  1  0
 17107  1  0
 18108  1  6
 20109  1  0
 20110  1  0
 22111  1  0
 25112  1  1
 26113  1  0
 26114  1  0
 26115  1  0
 27116  1  0
 30117  1  6
 31118  1  0
 31119  1  0
 31120  1  0
 32121  1  0
 35122  1  1
 36123  1  0
 36124  1  0
 36125  1  0
 37126  1  0
 40127  1  1
 41128  1  0
 41129  1  0
 41130  1  0
 42131  1  0
 45132  1  6
 46133  1  0
 46134  1  0
 48135  1  0
 48136  1  0
 49137  1  0
 52138  1  1
 53139  1  0
 53140  1  0
 53141  1  0
 54142  1  0
 57143  1  1
 58144  1  0
 58145  1  0
 58146  1  0
 59147  1  0
 62148  1  1
 63149  1  0
 63150  1  0
 63151  1  0
 64152  1  0
 67153  1  1
 68154  1  0
 68155  1  0
 68156  1  0
 69157  1  0
 72158  1  1
 73159  1  0
 73160  1  0
 73161  1  0
 74162  1  0
 77163  1  1
 78164  1  0
 78165  1  0
 78166  1  0
 79167  1  0
 82168  1  1
 83169  1  0
 83170  1  0
 83171  1  0
 84172  1  0
 87173  1  1
 88174  1  0
 88175  1  0
 88176  1  0
 89177  1  0
M  END
