
     RDKit          3D

177179  0  0  0  0  0  0  0  0999 V2000
    3.4520    2.6926    2.4852 C   0  0  0  0  0  0  0  0  0  0  0  0
    2.8199    3.5093    1.4031 C   0  0  0  0  0  0  0  0  0  0  0  0
    2.1643    2.9257    0.4973 O   0  0  0  0  0  0  0  0  0  0  0  0
    2.9523    4.9410    1.4045 N   0  0  0  0  0  0  0  0  0  0  0  0
    2.1500    5.8438    0.5732 C   0  0  2  0  0  0  0  0  0  0  0  0
    0.6405    5.6533    0.8464 C   0  0  0  0  0  0  0  0  0  0  0  0
    0.2929    5.6629    2.6451 S   0  0  0  0  0  0  0  0  0  0  0  0
   -1.5239    5.8621    2.5023 C   0  0  0  0  0  0  0  0  0  0  0  0
   -2.2916    4.6305    2.0620 C   0  0  0  0  0  0  0  0  0  0  0  0
   -3.6540    4.7903    1.7602 C   0  0  0  0  0  0  0  0  0  0  0  0
   -4.4379    3.7036    1.3555 C   0  0  0  0  0  0  0  0  0  0  0  0
   -3.8620    2.4308    1.2796 C   0  0  0  0  0  0  0  0  0  0  0  0
   -2.5077    2.2399    1.6036 C   0  0  0  0  0  0  0  0  0  0  0  0
   -1.7278    3.3383    1.9919 C   0  0  0  0  0  0  0  0  0  0  0  0
   -1.9158    0.8593    1.5357 C   0  0  0  0  0  0  0  0  0  0  0  0
   -1.7783    0.3361   -0.2070 S   0  0  0  0  0  0  0  0  0  0  0  0
   -1.5127   -1.4401    0.1522 C   0  0  0  0  0  0  0  0  0  0  0  0
   -1.7107   -2.2870   -1.1204 C   0  0  1  0  0  0  0  0  0  0  0  0
   -1.3869   -3.6989   -0.8930 N   0  0  0  0  0  0  0  0  0  0  0  0
   -0.0773   -4.1161   -0.4980 C   0  0  0  0  0  0  0  0  0  0  0  0
    0.8512   -4.1210   -1.3564 O   0  0  0  0  0  0  0  0  0  0  0  0
    0.1741   -4.6129    0.9072 C   0  0  1  0  0  0  0  0  0  0  0  0
   -0.8125   -5.7439    1.2456 C   0  0  0  0  0  0  0  0  0  0  0  0
    1.5826   -5.0212    1.0674 N   0  0  0  0  0  0  0  0  0  0  0  0
    2.0175   -6.2539    1.6563 C   0  0  0  0  0  0  0  0  0  0  0  0
    1.6984   -6.5212    2.8463 O   0  0  0  0  0  0  0  0  0  0  0  0
    2.8639   -7.2350    0.8865 C   0  0  1  0  0  0  0  0  0  0  0  0
    2.0104   -8.4285    0.4532 C   0  0  0  0  0  0  0  0  0  0  0  0
    3.4463   -6.6008   -0.3015 N   0  0  0  0  0  0  0  0  0  0  0  0
    4.8486   -6.5403   -0.6328 C   0  0  0  0  0  0  0  0  0  0  0  0
    5.1748   -6.0338   -1.7386 O   0  0  0  0  0  0  0  0  0  0  0  0
    5.9303   -7.1331    0.2436 C   0  0  1  0  0  0  0  0  0  0  0  0
    6.0468   -8.6376   -0.0326 C   0  0  0  0  0  0  0  0  0  0  0  0
    7.2088   -6.4646   -0.0199 N   0  0  0  0  0  0  0  0  0  0  0  0
    7.4881   -5.1473    0.4777 C   0  0  0  0  0  0  0  0  0  0  0  0
    6.7398   -4.6485    1.3595 O   0  0  0  0  0  0  0  0  0  0  0  0
    8.6085   -4.2947   -0.0697 C   0  0  1  0  0  0  0  0  0  0  0  0
    9.7157   -5.0929   -0.7639 C   0  0  0  0  0  0  0  0  0  0  0  0
    8.0451   -3.3223   -1.0160 N   0  0  0  0  0  0  0  0  0  0  0  0
    8.1085   -1.8887   -0.8907 C   0  0  0  0  0  0  0  0  0  0  0  0
    7.6972   -1.1837   -1.8513 O   0  0  0  0  0  0  0  0  0  0  0  0
    8.6724   -1.1992    0.3362 C   0  0  1  0  0  0  0  0  0  0  0  0
   10.2083   -1.1827    0.2518 C   0  0  0  0  0  0  0  0  0  0  0  0
    8.1129    0.1616    0.4516 N   0  0  0  0  0  0  0  0  0  0  0  0
    8.8705    1.3087    0.8582 C   0  0  0  0  0  0  0  0  0  0  0  0
    9.4662    1.2986    1.9661 O   0  0  0  0  0  0  0  0  0  0  0  0
    8.9230    2.5319   -0.0249 C   0  0  1  0  0  0  0  0  0  0  0  0
   10.3013    3.1954    0.0422 C   0  0  0  0  0  0  0  0  0  0  0  0
    8.6500    2.1540   -1.4146 N   0  0  0  0  0  0  0  0  0  0  0  0
    7.7094    2.7897   -2.3010 C   0  0  0  0  0  0  0  0  0  0  0  0
    7.8684    2.6339   -3.5453 O   0  0  0  0  0  0  0  0  0  0  0  0
    6.5552    3.6557   -1.8357 C   0  0  1  0  0  0  0  0  0  0  0  0
    5.6413    2.9250   -0.8427 C   0  0  0  0  0  0  0  0  0  0  0  0
    7.0387    4.9315   -1.2978 N   0  0  0  0  0  0  0  0  0  0  0  0
    6.2698    6.1273   -1.4468 C   0  0  0  0  0  0  0  0  0  0  0  0
    6.6536    6.9992   -2.2761 O   0  0  0  0  0  0  0  0  0  0  0  0
    5.0124    6.3561   -0.6390 C   0  0  1  0  0  0  0  0  0  0  0  0
    4.9090    7.8377   -0.2531 C   0  0  0  0  0  0  0  0  0  0  0  0
    3.8402    5.9272   -1.4109 N   0  0  0  0  0  0  0  0  0  0  0  0
    2.5090    5.7019   -0.8963 C   0  0  0  0  0  0  0  0  0  0  0  0
    1.6012    5.4013   -1.7230 O   0  0  0  0  0  0  0  0  0  0  0  0
   -3.1146   -2.1466   -1.6786 C   0  0  0  0  0  0  0  0  0  0  0  0
   -3.3010   -1.3017   -2.6002 O   0  0  0  0  0  0  0  0  0  0  0  0
   -4.2337   -2.9523   -1.2574 N   0  0  0  0  0  0  0  0  0  0  0  0
   -4.3871   -3.5981    0.0517 C   0  0  2  0  0  0  0  0  0  0  0  0
   -4.6666   -5.0915   -0.1563 C   0  0  0  0  0  0  0  0  0  0  0  0
   -5.4779   -2.8806    0.8164 C   0  0  0  0  0  0  0  0  0  0  0  0
   -5.2640   -1.7044    1.2188 O   0  0  0  0  0  0  0  0  0  0  0  0
   -6.7708   -3.4708    1.0333 N   0  0  0  0  0  0  0  0  0  0  0  0
   -7.9893   -2.7719    0.6077 C   0  0  2  0  0  0  0  0  0  0  0  0
   -9.1966   -3.3287    1.3715 C   0  0  0  0  0  0  0  0  0  0  0  0
   -8.1668   -2.9697   -0.8798 C   0  0  0  0  0  0  0  0  0  0  0  0
   -8.2425   -4.1509   -1.3168 O   0  0  0  0  0  0  0  0  0  0  0  0
   -8.2179   -1.8869   -1.8343 N   0  0  0  0  0  0  0  0  0  0  0  0
   -8.3004   -0.4436   -1.5627 C   0  0  2  0  0  0  0  0  0  0  0  0
   -6.9836    0.1068   -0.9776 C   0  0  0  0  0  0  0  0  0  0  0  0
   -9.5312   -0.0854   -0.7630 C   0  0  0  0  0  0  0  0  0  0  0  0
  -10.5045   -0.8863   -0.7279 O   0  0  0  0  0  0  0  0  0  0  0  0
   -9.6655    1.2122   -0.1680 N   0  0  0  0  0  0  0  0  0  0  0  0
  -10.9198    1.9693   -0.2662 C   0  0  2  0  0  0  0  0  0  0  0  0
  -11.3939    2.1143   -1.7214 C   0  0  0  0  0  0  0  0  0  0  0  0
  -10.8130    3.3306    0.3982 C   0  0  0  0  0  0  0  0  0  0  0  0
  -11.4807    3.5294    1.4421 O   0  0  0  0  0  0  0  0  0  0  0  0
  -10.1408    4.4480   -0.2160 N   0  0  0  0  0  0  0  0  0  0  0  0
   -8.7939    4.4068   -0.8045 C   0  0  1  0  0  0  0  0  0  0  0  0
   -8.8646    4.7084   -2.2782 C   0  0  0  0  0  0  0  0  0  0  0  0
   -9.5774    5.8456   -2.7669 N   0  0  0  0  0  0  0  0  0  0  0  0
   -8.3005    3.9312   -3.0945 O   0  0  0  0  0  0  0  0  0  0  0  0
   -7.8863    5.4128   -0.0763 C   0  0  0  0  0  0  0  0  0  0  0  0
   -6.1101    5.0538   -0.3571 S   0  0  0  0  0  0  0  0  0  0  0  0
   -5.9016    3.9040    1.0541 C   0  0  0  0  0  0  0  0  0  0  0  0
    4.1194    1.9293    2.0348 H   0  0  0  0  0  0  0  0  0  0  0  0
    2.6603    2.1820    3.0751 H   0  0  0  0  0  0  0  0  0  0  0  0
    4.0517    3.3317    3.1662 H   0  0  0  0  0  0  0  0  0  0  0  0
    3.5741    5.3828    2.1221 H   0  0  0  0  0  0  0  0  0  0  0  0
    2.3691    6.8872    0.8731 H   0  0  0  0  0  0  0  0  0  0  0  0
    0.2762    4.7029    0.4107 H   0  0  0  0  0  0  0  0  0  0  0  0
    0.0924    6.4878    0.3590 H   0  0  0  0  0  0  0  0  0  0  0  0
   -1.9046    6.1638    3.4988 H   0  0  0  0  0  0  0  0  0  0  0  0
   -1.7353    6.6985    1.8043 H   0  0  0  0  0  0  0  0  0  0  0  0
   -4.1077    5.7754    1.8283 H   0  0  0  0  0  0  0  0  0  0  0  0
   -4.4706    1.5810    0.9918 H   0  0  0  0  0  0  0  0  0  0  0  0
   -0.6878    3.1800    2.2393 H   0  0  0  0  0  0  0  0  0  0  0  0
   -0.9114    0.8328    2.0087 H   0  0  0  0  0  0  0  0  0  0  0  0
   -2.5771    0.1644    2.0981 H   0  0  0  0  0  0  0  0  0  0  0  0
   -2.1973   -1.7738    0.9516 H   0  0  0  0  0  0  0  0  0  0  0  0
   -0.4719   -1.5541    0.5210 H   0  0  0  0  0  0  0  0  0  0  0  0
   -0.9971   -1.9038   -1.8894 H   0  0  0  0  0  0  0  0  0  0  0  0
   -1.9299   -4.4124   -1.4323 H   0  0  0  0  0  0  0  0  0  0  0  0
   -0.0208   -3.7677    1.6041 H   0  0  0  0  0  0  0  0  0  0  0  0
   -1.8587   -5.4082    1.0859 H   0  0  0  0  0  0  0  0  0  0  0  0
   -0.7286   -6.0279    2.3162 H   0  0  0  0  0  0  0  0  0  0  0  0
   -0.6206   -6.6360    0.6137 H   0  0  0  0  0  0  0  0  0  0  0  0
    2.3246   -4.3686    0.7313 H   0  0  0  0  0  0  0  0  0  0  0  0
    3.6449   -7.6205    1.5667 H   0  0  0  0  0  0  0  0  0  0  0  0
    1.1858   -8.1022   -0.2159 H   0  0  0  0  0  0  0  0  0  0  0  0
    1.5761   -8.9388    1.3381 H   0  0  0  0  0  0  0  0  0  0  0  0
    2.6365   -9.1675   -0.0946 H   0  0  0  0  0  0  0  0  0  0  0  0
    2.7838   -6.2151   -1.0162 H   0  0  0  0  0  0  0  0  0  0  0  0
    5.6932   -6.9986    1.3195 H   0  0  0  0  0  0  0  0  0  0  0  0
    6.8962   -9.0615    0.5428 H   0  0  0  0  0  0  0  0  0  0  0  0
    5.1246   -9.1572    0.2927 H   0  0  0  0  0  0  0  0  0  0  0  0
    6.2062   -8.8320   -1.1137 H   0  0  0  0  0  0  0  0  0  0  0  0
    7.9484   -6.9907   -0.5470 H   0  0  0  0  0  0  0  0  0  0  0  0
    9.0823   -3.7933    0.7942 H   0  0  0  0  0  0  0  0  0  0  0  0
   10.5525   -4.4158   -1.0365 H   0  0  0  0  0  0  0  0  0  0  0  0
    9.3442   -5.5618   -1.6983 H   0  0  0  0  0  0  0  0  0  0  0  0
   10.1128   -5.8788   -0.0868 H   0  0  0  0  0  0  0  0  0  0  0  0
    7.5801   -3.7062   -1.8716 H   0  0  0  0  0  0  0  0  0  0  0  0
    8.3609   -1.7577    1.2430 H   0  0  0  0  0  0  0  0  0  0  0  0
   10.6396   -0.8808    1.2257 H   0  0  0  0  0  0  0  0  0  0  0  0
   10.6103   -2.1859    0.0099 H   0  0  0  0  0  0  0  0  0  0  0  0
   10.5468   -0.4756   -0.5352 H   0  0  0  0  0  0  0  0  0  0  0  0
    7.1160    0.3169    0.1821 H   0  0  0  0  0  0  0  0  0  0  0  0
    8.1856    3.2617    0.3523 H   0  0  0  0  0  0  0  0  0  0  0  0
   10.5031    3.5672    1.0705 H   0  0  0  0  0  0  0  0  0  0  0  0
   10.3434    4.0629   -0.6540 H   0  0  0  0  0  0  0  0  0  0  0  0
   11.0953    2.4769   -0.2414 H   0  0  0  0  0  0  0  0  0  0  0  0
    9.2885    1.4431   -1.8444 H   0  0  0  0  0  0  0  0  0  0  0  0
    5.9311    3.8707   -2.7349 H   0  0  0  0  0  0  0  0  0  0  0  0
    6.0136    2.9780    0.1978 H   0  0  0  0  0  0  0  0  0  0  0  0
    4.6338    3.3836   -0.8609 H   0  0  0  0  0  0  0  0  0  0  0  0
    5.5235    1.8588   -1.1350 H   0  0  0  0  0  0  0  0  0  0  0  0
    8.0702    5.0690   -1.2023 H   0  0  0  0  0  0  0  0  0  0  0  0
    5.1012    5.7476    0.2833 H   0  0  0  0  0  0  0  0  0  0  0  0
    5.8934    8.2135    0.1086 H   0  0  0  0  0  0  0  0  0  0  0  0
    4.5977    8.4505   -1.1264 H   0  0  0  0  0  0  0  0  0  0  0  0
    4.1939    7.9973    0.5728 H   0  0  0  0  0  0  0  0  0  0  0  0
    3.9662    5.7621   -2.4390 H   0  0  0  0  0  0  0  0  0  0  0  0
   -5.0701   -2.9628   -1.8850 H   0  0  0  0  0  0  0  0  0  0  0  0
   -3.4589   -3.5311    0.6475 H   0  0  0  0  0  0  0  0  0  0  0  0
   -5.5940   -5.2438   -0.7488 H   0  0  0  0  0  0  0  0  0  0  0  0
   -4.7655   -5.6067    0.8257 H   0  0  0  0  0  0  0  0  0  0  0  0
   -3.8306   -5.5651   -0.7044 H   0  0  0  0  0  0  0  0  0  0  0  0
   -6.8377   -4.5027    1.1409 H   0  0  0  0  0  0  0  0  0  0  0  0
   -7.9159   -1.7077    0.8761 H   0  0  0  0  0  0  0  0  0  0  0  0
   -9.3125   -4.4207    1.1904 H   0  0  0  0  0  0  0  0  0  0  0  0
  -10.1263   -2.8155    1.0505 H   0  0  0  0  0  0  0  0  0  0  0  0
   -9.0653   -3.1559    2.4615 H   0  0  0  0  0  0  0  0  0  0  0  0
   -8.2746   -2.1657   -2.8407 H   0  0  0  0  0  0  0  0  0  0  0  0
   -8.4275    0.0658   -2.5415 H   0  0  0  0  0  0  0  0  0  0  0  0
   -6.8624    1.1705   -1.2751 H   0  0  0  0  0  0  0  0  0  0  0  0
   -6.1169   -0.4591   -1.3824 H   0  0  0  0  0  0  0  0  0  0  0  0
   -6.9634    0.0778    0.1251 H   0  0  0  0  0  0  0  0  0  0  0  0
   -8.8457    1.6124    0.3301 H   0  0  0  0  0  0  0  0  0  0  0  0
  -11.7014    1.3874    0.2710 H   0  0  0  0  0  0  0  0  0  0  0  0
  -12.3520    2.6702   -1.7472 H   0  0  0  0  0  0  0  0  0  0  0  0
  -11.5807    1.1151   -2.1701 H   0  0  0  0  0  0  0  0  0  0  0  0
  -10.6493    2.6446   -2.3416 H   0  0  0  0  0  0  0  0  0  0  0  0
  -10.5669    5.3906   -0.0570 H   0  0  0  0  0  0  0  0  0  0  0  0
   -8.3493    3.4055   -0.6825 H   0  0  0  0  0  0  0  0  0  0  0  0
   -9.7083    5.9836   -3.7927 H   0  0  0  0  0  0  0  0  0  0  0  0
  -10.0128    6.5314   -2.1106 H   0  0  0  0  0  0  0  0  0  0  0  0
   -8.1089    5.4022    1.0133 H   0  0  0  0  0  0  0  0  0  0  0  0
   -8.1004    6.4454   -0.4292 H   0  0  0  0  0  0  0  0  0  0  0  0
   -6.4013    2.9401    0.8119 H   0  0  0  0  0  0  0  0  0  0  0  0
   -6.3775    4.3176    1.9686 H   0  0  0  0  0  0  0  0  0  0  0  0
  1  2  1  0
  2  3  2  0
  2  4  1  0
  4  5  1  0
  5  6  1  0
  6  7  1  0
  7  8  1  0
  8  9  1  0
  9 10  2  0
 10 11  1  0
 11 12  2  0
 12 13  1  0
 13 14  2  0
 13 15  1  0
 15 16  1  0
 16 17  1  0
 17 18  1  0
 18 19  1  0
 19 20  1  0
 20 21  2  0
 20 22  1  0
 22 23  1  0
 22 24  1  0
 24 25  1  0
 25 26  2  0
 25 27  1  0
 27 28  1  0
 27 29  1  0
 29 30  1  0
 30 31  2  0
 30 32  1  0
 32 33  1  0
 32 34  1  0
 34 35  1  0
 35 36  2  0
 35 37  1  0
 37 38  1  0
 37 39  1  0
 39 40  1  0
 40 41  2  0
 40 42  1  0
 42 43  1  0
 42 44  1  0
 44 45  1  0
 45 46  2  0
 45 47  1  0
 47 48  1  0
 47 49  1  0
 49 50  1  0
 50 51  2  0
 50 52  1  0
 52 53  1  0
 52 54  1  0
 54 55  1  0
 55 56  2  0
 55 57  1  0
 57 58  1  0
 57 59  1  0
 59 60  1  0
 60 61  2  0
 18 62  1  0
 62 63  2  0
 62 64  1  0
 64 65  1  0
 65 66  1  0
 65 67  1  0
 67 68  2  0
 67 69  1  0
 69 70  1  0
 70 71  1  0
 70 72  1  0
 72 73  2  0
 72 74  1  0
 74 75  1  0
 75 76  1  0
 75 77  1  0
 77 78  2  0
 77 79  1  0
 79 80  1  0
 80 81  1  0
 80 82  1  0
 82 83  2  0
 82 84  1  0
 84 85  1  0
 85 86  1  0
 86 87  1  0
 86 88  2  0
 85 89  1  0
 89 90  1  0
 90 91  1  0
 60  5  1  0
 14  9  1  0
 91 11  1  0
  1 92  1  0
  1 93  1  0
  1 94  1  0
  4 95  1  0
  5 96  1  1
  6 97  1  0
  6 98  1  0
  8 99  1  0
  8100  1  0
 10101  1  0
 12102  1  0
 14103  1  0
 15104  1  0
 15105  1  0
 17106  1  0
 17107  1  0
 18108  1  6
 19109  1  0
 22110  1  1
 23111  1  0
 23112  1  0
 23113  1  0
 24114  1  0
 27115  1  1
 28116  1  0
 28117  1  0
 28118  1  0
 29119  1  0
 32120  1  1
 33121  1  0
 33122  1  0
 33123  1  0
 34124  1  0
 37125  1  1
 38126  1  0
 38127  1  0
 38128  1  0
 39129  1  0
 42130  1  1
 43131  1  0
 43132  1  0
 43133  1  0
 44134  1  0
 47135  1  1
 48136  1  0
 48137  1  0
 48138  1  0
 49139  1  0
 52140  1  6
 53141  1  0
 53142  1  0
 53143  1  0
 54144  1  0
 57145  1  1
 58146  1  0
 58147  1  0
 58148  1  0
 59149  1  0
 64150  1  0
 65151  1  1
 66152  1  0
 66153  1  0
 66154  1  0
 69155  1  0
 70156  1  6
 71157  1  0
 71158  1  0
 71159  1  0
 74160  1  0
 75161  1  6
 76162  1  0
 76163  1  0
 76164  1  0
 79165  1  0
 80166  1  1
 81167  1  0
 81168  1  0
 81169  1  0
 84170  1  0
 85171  1  6
 87172  1  0
 87173  1  0
 89174  1  0
 89175  1  0
 91176  1  0
 91177  1  0
M  END
