
     RDKit          3D

187189  0  0  0  0  0  0  0  0999 V2000
    3.3264   -7.6574   -1.1308 C   0  0  0  0  0  0  0  0  0  0  0  0
    3.1978   -6.1839   -1.3854 C   0  0  0  0  0  0  0  0  0  0  0  0
    2.9736   -5.7827   -2.5584 O   0  0  0  0  0  0  0  0  0  0  0  0
    3.3420   -5.2162   -0.3360 N   0  0  0  0  0  0  0  0  0  0  0  0
    3.4706   -5.5591    1.0847 C   0  0  2  0  0  0  0  0  0  0  0  0
    2.0917   -5.7409    1.7466 C   0  0  0  0  0  0  0  0  0  0  0  0
    1.0198   -4.2571    1.5842 S   0  0  0  0  0  0  0  0  0  0  0  0
   -0.0347   -4.9060    0.2423 C   0  0  0  0  0  0  0  0  0  0  0  0
   -0.9314   -3.8115   -0.2698 C   0  0  0  0  0  0  0  0  0  0  0  0
   -0.3779   -2.6643   -0.8541 C   0  0  0  0  0  0  0  0  0  0  0  0
   -1.1996   -1.6073   -1.2684 C   0  0  0  0  0  0  0  0  0  0  0  0
   -2.5918   -1.7507   -1.1936 C   0  0  0  0  0  0  0  0  0  0  0  0
   -3.1617   -2.9259   -0.6970 C   0  0  0  0  0  0  0  0  0  0  0  0
   -2.3243   -3.9327   -0.1866 C   0  0  0  0  0  0  0  0  0  0  0  0
   -4.6658   -3.0317   -0.5976 C   0  0  0  0  0  0  0  0  0  0  0  0
   -5.2752   -4.7034   -1.0316 S   0  0  0  0  0  0  0  0  0  0  0  0
   -7.0428   -4.2248   -0.9403 C   0  0  0  0  0  0  0  0  0  0  0  0
   -7.9605   -5.4539   -0.8377 C   0  0  1  0  0  0  0  0  0  0  0  0
   -7.5759   -6.2856    0.3664 C   0  0  0  0  0  0  0  0  0  0  0  0
   -7.7395   -5.7749    1.6913 N   0  0  0  0  0  0  0  0  0  0  0  0
   -7.1512   -7.4637    0.2063 O   0  0  0  0  0  0  0  0  0  0  0  0
   -9.3767   -5.0799   -0.7135 N   0  0  0  0  0  0  0  0  0  0  0  0
   -9.9719   -3.9240   -1.3298 C   0  0  0  0  0  0  0  0  0  0  0  0
   -9.5901   -3.5524   -2.4711 O   0  0  0  0  0  0  0  0  0  0  0  0
  -10.9961   -3.1018   -0.5884 C   0  0  1  0  0  0  0  0  0  0  0  0
  -12.1112   -3.9706   -0.0048 C   0  0  0  0  0  0  0  0  0  0  0  0
  -10.3374   -2.3593    0.4896 N   0  0  0  0  0  0  0  0  0  0  0  0
  -10.2489   -0.9290    0.5645 C   0  0  0  0  0  0  0  0  0  0  0  0
   -9.2053   -0.4180    1.0618 O   0  0  0  0  0  0  0  0  0  0  0  0
  -11.3414   -0.0156    0.0710 C   0  0  1  0  0  0  0  0  0  0  0  0
  -11.8933    0.8163    1.2364 C   0  0  0  0  0  0  0  0  0  0  0  0
  -10.8108    0.8035   -1.0237 N   0  0  0  0  0  0  0  0  0  0  0  0
  -10.8543    2.2354   -1.0669 C   0  0  0  0  0  0  0  0  0  0  0  0
  -11.9211    2.8141   -1.4203 O   0  0  0  0  0  0  0  0  0  0  0  0
   -9.6509    3.0373   -0.6588 C   0  0  1  0  0  0  0  0  0  0  0  0
   -9.2782    4.0672   -1.7300 C   0  0  0  0  0  0  0  0  0  0  0  0
   -9.9243    3.7102    0.6143 N   0  0  0  0  0  0  0  0  0  0  0  0
   -9.0938    3.5887    1.7807 C   0  0  0  0  0  0  0  0  0  0  0  0
   -9.6505    3.4833    2.9071 O   0  0  0  0  0  0  0  0  0  0  0  0
   -7.5849    3.6595    1.6768 C   0  0  1  0  0  0  0  0  0  0  0  0
   -6.9440    4.0829    3.0057 C   0  0  0  0  0  0  0  0  0  0  0  0
   -7.0378    2.3643    1.2590 N   0  0  0  0  0  0  0  0  0  0  0  0
   -6.1140    2.2023    0.1736 C   0  0  0  0  0  0  0  0  0  0  0  0
   -6.3724    1.3576   -0.7257 O   0  0  0  0  0  0  0  0  0  0  0  0
   -4.7760    2.9010    0.1345 C   0  0  1  0  0  0  0  0  0  0  0  0
   -4.9018    4.4076   -0.1379 C   0  0  0  0  0  0  0  0  0  0  0  0
   -4.0329    2.6284    1.3689 N   0  0  0  0  0  0  0  0  0  0  0  0
   -2.7285    3.1727    1.5975 C   0  0  0  0  0  0  0  0  0  0  0  0
   -2.6307    4.3335    2.0717 O   0  0  0  0  0  0  0  0  0  0  0  0
   -1.5000    2.3188    1.3872 C   0  0  1  0  0  0  0  0  0  0  0  0
   -1.5202    1.5820    0.0345 C   0  0  0  0  0  0  0  0  0  0  0  0
    0.0108    0.6169   -0.2271 S   0  0  0  0  0  0  0  0  0  0  0  0
   -0.5848   -0.3005   -1.6949 C   0  0  0  0  0  0  0  0  0  0  0  0
   -0.2501    3.0723    1.5942 N   0  0  0  0  0  0  0  0  0  0  0  0
    0.2034    4.2556    0.8966 C   0  0  0  0  0  0  0  0  0  0  0  0
    1.2981    4.7725    1.2617 O   0  0  0  0  0  0  0  0  0  0  0  0
   -0.5678    4.9243   -0.2269 C   0  0  1  0  0  0  0  0  0  0  0  0
   -0.8818    6.3761    0.1422 C   0  0  0  0  0  0  0  0  0  0  0  0
    0.1454    4.8989   -1.5114 N   0  0  0  0  0  0  0  0  0  0  0  0
    1.5145    4.4901   -1.6833 C   0  0  0  0  0  0  0  0  0  0  0  0
    1.8494    3.3124   -1.3875 O   0  0  0  0  0  0  0  0  0  0  0  0
    2.5789    5.4773   -2.0908 C   0  0  1  0  0  0  0  0  0  0  0  0
    2.0482    6.5586   -3.0421 C   0  0  0  0  0  0  0  0  0  0  0  0
    3.1259    6.1031   -0.8815 N   0  0  0  0  0  0  0  0  0  0  0  0
    4.3683    5.7765   -0.2339 C   0  0  0  0  0  0  0  0  0  0  0  0
    4.5838    6.2676    0.9096 O   0  0  0  0  0  0  0  0  0  0  0  0
    5.4694    4.9992   -0.9288 C   0  0  1  0  0  0  0  0  0  0  0  0
    6.2290    5.9011   -1.9095 C   0  0  0  0  0  0  0  0  0  0  0  0
    6.4002    4.3741    0.0188 N   0  0  0  0  0  0  0  0  0  0  0  0
    7.4194    5.0863    0.7356 C   0  0  0  0  0  0  0  0  0  0  0  0
    7.0988    5.9175    1.6315 O   0  0  0  0  0  0  0  0  0  0  0  0
    8.8651    4.7602    0.4945 C   0  0  1  0  0  0  0  0  0  0  0  0
    9.7100    6.0386    0.4368 C   0  0  0  0  0  0  0  0  0  0  0  0
    9.3648    3.8896    1.5649 N   0  0  0  0  0  0  0  0  0  0  0  0
   10.0335    2.6260    1.3806 C   0  0  0  0  0  0  0  0  0  0  0  0
   10.5250    2.0526    2.3955 O   0  0  0  0  0  0  0  0  0  0  0  0
   10.2022    1.9803    0.0227 C   0  0  1  0  0  0  0  0  0  0  0  0
   11.3765    2.6200   -0.7266 C   0  0  0  0  0  0  0  0  0  0  0  0
   10.4415    0.5422    0.1502 N   0  0  0  0  0  0  0  0  0  0  0  0
    9.4526   -0.4063   -0.2839 C   0  0  0  0  0  0  0  0  0  0  0  0
    8.3166   -0.4188    0.2767 O   0  0  0  0  0  0  0  0  0  0  0  0
    9.7910   -1.4758   -1.2862 C   0  0  1  0  0  0  0  0  0  0  0  0
   10.9252   -1.0466   -2.2294 C   0  0  0  0  0  0  0  0  0  0  0  0
   10.1518   -2.7161   -0.5902 N   0  0  0  0  0  0  0  0  0  0  0  0
    9.4655   -3.9562   -0.8440 C   0  0  0  0  0  0  0  0  0  0  0  0
    8.9158   -4.1536   -1.9639 O   0  0  0  0  0  0  0  0  0  0  0  0
    9.4474   -5.0639    0.1843 C   0  0  1  0  0  0  0  0  0  0  0  0
   10.7967   -5.7936    0.2137 C   0  0  0  0  0  0  0  0  0  0  0  0
    9.1466   -4.5133    1.5084 N   0  0  0  0  0  0  0  0  0  0  0  0
    7.8056   -4.2786    1.9530 C   0  0  0  0  0  0  0  0  0  0  0  0
    7.5357   -3.1656    2.4962 O   0  0  0  0  0  0  0  0  0  0  0  0
    6.6973   -5.2958    1.7451 C   0  0  1  0  0  0  0  0  0  0  0  0
    7.1246   -6.6891    2.2316 C   0  0  0  0  0  0  0  0  0  0  0  0
    5.5016   -4.8768    2.4758 N   0  0  0  0  0  0  0  0  0  0  0  0
    4.2921   -4.5164    1.8079 C   0  0  0  0  0  0  0  0  0  0  0  0
    3.8931   -3.3176    1.8610 O   0  0  0  0  0  0  0  0  0  0  0  0
    4.3431   -7.8940   -0.7492 H   0  0  0  0  0  0  0  0  0  0  0  0
    2.5624   -7.9750   -0.3931 H   0  0  0  0  0  0  0  0  0  0  0  0
    3.1564   -8.2321   -2.0676 H   0  0  0  0  0  0  0  0  0  0  0  0
    3.2446   -4.2049   -0.5915 H   0  0  0  0  0  0  0  0  0  0  0  0
    4.0220   -6.5186    1.1802 H   0  0  0  0  0  0  0  0  0  0  0  0
    2.2301   -5.9452    2.8293 H   0  0  0  0  0  0  0  0  0  0  0  0
    1.5901   -6.6436    1.3325 H   0  0  0  0  0  0  0  0  0  0  0  0
   -0.6280   -5.7440    0.6589 H   0  0  0  0  0  0  0  0  0  0  0  0
    0.5896   -5.2839   -0.5957 H   0  0  0  0  0  0  0  0  0  0  0  0
    0.7001   -2.5628   -0.9355 H   0  0  0  0  0  0  0  0  0  0  0  0
   -3.2290   -0.9385   -1.5136 H   0  0  0  0  0  0  0  0  0  0  0  0
   -2.7533   -4.8190    0.2615 H   0  0  0  0  0  0  0  0  0  0  0  0
   -5.1388   -2.2989   -1.2897 H   0  0  0  0  0  0  0  0  0  0  0  0
   -4.9707   -2.7665    0.4307 H   0  0  0  0  0  0  0  0  0  0  0  0
   -7.2583   -3.6655   -1.8772 H   0  0  0  0  0  0  0  0  0  0  0  0
   -7.2213   -3.5475   -0.0773 H   0  0  0  0  0  0  0  0  0  0  0  0
   -7.8276   -6.0837   -1.7493 H   0  0  0  0  0  0  0  0  0  0  0  0
   -8.1218   -4.8070    1.8346 H   0  0  0  0  0  0  0  0  0  0  0  0
   -7.4888   -6.3565    2.5123 H   0  0  0  0  0  0  0  0  0  0  0  0
  -10.0330   -5.7926   -0.3128 H   0  0  0  0  0  0  0  0  0  0  0  0
  -11.4580   -2.4074   -1.3225 H   0  0  0  0  0  0  0  0  0  0  0  0
  -12.4742   -4.7030   -0.7592 H   0  0  0  0  0  0  0  0  0  0  0  0
  -11.7376   -4.5281    0.8861 H   0  0  0  0  0  0  0  0  0  0  0  0
  -12.9605   -3.3341    0.3196 H   0  0  0  0  0  0  0  0  0  0  0  0
   -9.7668   -2.9107    1.1772 H   0  0  0  0  0  0  0  0  0  0  0  0
  -12.1926   -0.6126   -0.3187 H   0  0  0  0  0  0  0  0  0  0  0  0
  -12.7179    1.4650    0.8923 H   0  0  0  0  0  0  0  0  0  0  0  0
  -11.0998    1.4412    1.6947 H   0  0  0  0  0  0  0  0  0  0  0  0
  -12.2963    0.1414    2.0238 H   0  0  0  0  0  0  0  0  0  0  0  0
  -10.3804    0.3169   -1.8430 H   0  0  0  0  0  0  0  0  0  0  0  0
   -8.8039    2.3372   -0.5465 H   0  0  0  0  0  0  0  0  0  0  0  0
   -8.3276    4.5691   -1.4536 H   0  0  0  0  0  0  0  0  0  0  0  0
   -9.1311    3.5630   -2.7121 H   0  0  0  0  0  0  0  0  0  0  0  0
  -10.0762    4.8325   -1.8376 H   0  0  0  0  0  0  0  0  0  0  0  0
  -10.8308    4.2207    0.7262 H   0  0  0  0  0  0  0  0  0  0  0  0
   -7.3581    4.4247    0.9158 H   0  0  0  0  0  0  0  0  0  0  0  0
   -7.1568    3.3382    3.7988 H   0  0  0  0  0  0  0  0  0  0  0  0
   -7.3286    5.0807    3.3079 H   0  0  0  0  0  0  0  0  0  0  0  0
   -5.8406    4.1521    2.9016 H   0  0  0  0  0  0  0  0  0  0  0  0
   -7.5188    1.5004    1.5999 H   0  0  0  0  0  0  0  0  0  0  0  0
   -4.1919    2.4762   -0.7148 H   0  0  0  0  0  0  0  0  0  0  0  0
   -5.1698    4.9664    0.7792 H   0  0  0  0  0  0  0  0  0  0  0  0
   -5.6554    4.5985   -0.9318 H   0  0  0  0  0  0  0  0  0  0  0  0
   -3.9288    4.8047   -0.4968 H   0  0  0  0  0  0  0  0  0  0  0  0
   -4.2727    1.7657    1.9075 H   0  0  0  0  0  0  0  0  0  0  0  0
   -1.5429    1.5280    2.1701 H   0  0  0  0  0  0  0  0  0  0  0  0
   -2.3915    0.8911    0.0164 H   0  0  0  0  0  0  0  0  0  0  0  0
   -1.6438    2.2843   -0.8145 H   0  0  0  0  0  0  0  0  0  0  0  0
    0.2876   -0.5093   -2.3467 H   0  0  0  0  0  0  0  0  0  0  0  0
   -1.3066    0.3085   -2.2729 H   0  0  0  0  0  0  0  0  0  0  0  0
    0.3188    2.7872    2.4231 H   0  0  0  0  0  0  0  0  0  0  0  0
   -1.5389    4.4249   -0.3870 H   0  0  0  0  0  0  0  0  0  0  0  0
   -1.5262    6.8313   -0.6394 H   0  0  0  0  0  0  0  0  0  0  0  0
    0.0543    6.9695    0.2206 H   0  0  0  0  0  0  0  0  0  0  0  0
   -1.4258    6.4322    1.1088 H   0  0  0  0  0  0  0  0  0  0  0  0
   -0.3036    5.3918   -2.3182 H   0  0  0  0  0  0  0  0  0  0  0  0
    3.3611    4.9272   -2.6497 H   0  0  0  0  0  0  0  0  0  0  0  0
    2.8889    7.1946   -3.3806 H   0  0  0  0  0  0  0  0  0  0  0  0
    1.2976    7.1962   -2.5298 H   0  0  0  0  0  0  0  0  0  0  0  0
    1.5808    6.0891   -3.9325 H   0  0  0  0  0  0  0  0  0  0  0  0
    2.4747    6.7272   -0.3443 H   0  0  0  0  0  0  0  0  0  0  0  0
    5.0105    4.1772   -1.5122 H   0  0  0  0  0  0  0  0  0  0  0  0
    5.5413    6.2654   -2.7061 H   0  0  0  0  0  0  0  0  0  0  0  0
    7.0453    5.3241   -2.3949 H   0  0  0  0  0  0  0  0  0  0  0  0
    6.6712    6.7804   -1.3897 H   0  0  0  0  0  0  0  0  0  0  0  0
    6.5116    3.3336   -0.0471 H   0  0  0  0  0  0  0  0  0  0  0  0
    8.9515    4.2759   -0.4940 H   0  0  0  0  0  0  0  0  0  0  0  0
    9.5293    6.6744    1.3304 H   0  0  0  0  0  0  0  0  0  0  0  0
    9.4539    6.6242   -0.4727 H   0  0  0  0  0  0  0  0  0  0  0  0
   10.7888    5.7838    0.4106 H   0  0  0  0  0  0  0  0  0  0  0  0
    9.2979    4.2549    2.5468 H   0  0  0  0  0  0  0  0  0  0  0  0
    9.2696    2.1309   -0.5626 H   0  0  0  0  0  0  0  0  0  0  0  0
   11.4448    2.1749   -1.7407 H   0  0  0  0  0  0  0  0  0  0  0  0
   11.2361    3.7137   -0.8272 H   0  0  0  0  0  0  0  0  0  0  0  0
   12.3272    2.4304   -0.1842 H   0  0  0  0  0  0  0  0  0  0  0  0
   11.4058    0.1970    0.3453 H   0  0  0  0  0  0  0  0  0  0  0  0
    8.8887   -1.6337   -1.9166 H   0  0  0  0  0  0  0  0  0  0  0  0
   11.0644   -1.8184   -3.0227 H   0  0  0  0  0  0  0  0  0  0  0  0
   10.6717   -0.0813   -2.7170 H   0  0  0  0  0  0  0  0  0  0  0  0
   11.8864   -0.9403   -1.6795 H   0  0  0  0  0  0  0  0  0  0  0  0
   10.8063   -2.6568    0.2173 H   0  0  0  0  0  0  0  0  0  0  0  0
    8.6816   -5.8004   -0.1098 H   0  0  0  0  0  0  0  0  0  0  0  0
   11.6063   -5.1258    0.5870 H   0  0  0  0  0  0  0  0  0  0  0  0
   11.0598   -6.1456   -0.8069 H   0  0  0  0  0  0  0  0  0  0  0  0
   10.7297   -6.6757    0.8865 H   0  0  0  0  0  0  0  0  0  0  0  0
    9.8986   -3.9877    2.0030 H   0  0  0  0  0  0  0  0  0  0  0  0
    6.4688   -5.3488    0.6572 H   0  0  0  0  0  0  0  0  0  0  0  0
    7.3334   -6.6765    3.3209 H   0  0  0  0  0  0  0  0  0  0  0  0
    6.3087   -7.4202    2.0369 H   0  0  0  0  0  0  0  0  0  0  0  0
    8.0274   -7.0473    1.6971 H   0  0  0  0  0  0  0  0  0  0  0  0
    5.5792   -4.6619    3.4948 H   0  0  0  0  0  0  0  0  0  0  0  0
  1  2  1  0
  2  3  2  0
  2  4  1  0
  4  5  1  0
  5  6  1  0
  6  7  1  0
  7  8  1  0
  8  9  1  0
  9 10  2  0
 10 11  1  0
 11 12  2  0
 12 13  1  0
 13 14  2  0
 13 15  1  0
 15 16  1  0
 16 17  1  0
 17 18  1  0
 18 19  1  0
 19 20  1  0
 19 21  2  0
 18 22  1  0
 22 23  1  0
 23 24  2  0
 23 25  1  0
 25 26  1  0
 25 27  1  0
 27 28  1  0
 28 29  2  0
 28 30  1  0
 30 31  1  0
 30 32  1  0
 32 33  1  0
 33 34  2  0
 33 35  1  0
 35 36  1  0
 35 37  1  0
 37 38  1  0
 38 39  2  0
 38 40  1  0
 40 41  1  0
 40 42  1  0
 42 43  1  0
 43 44  2  0
 43 45  1  0
 45 46  1  0
 45 47  1  0
 47 48  1  0
 48 49  2  0
 48 50  1  0
 50 51  1  0
 51 52  1  0
 52 53  1  0
 50 54  1  0
 54 55  1  0
 55 56  2  0
 55 57  1  0
 57 58  1  0
 57 59  1  0
 59 60  1  0
 60 61  2  0
 60 62  1  0
 62 63  1  0
 62 64  1  0
 64 65  1  0
 65 66  2  0
 65 67  1  0
 67 68  1  0
 67 69  1  0
 69 70  1  0
 70 71  2  0
 70 72  1  0
 72 73  1  0
 72 74  1  0
 74 75  1  0
 75 76  2  0
 75 77  1  0
 77 78  1  0
 77 79  1  0
 79 80  1  0
 80 81  2  0
 80 82  1  0
 82 83  1  0
 82 84  1  0
 84 85  1  0
 85 86  2  0
 85 87  1  0
 87 88  1  0
 87 89  1  0
 89 90  1  0
 90 91  2  0
 90 92  1  0
 92 93  1  0
 92 94  1  0
 94 95  1  0
 95 96  2  0
 95  5  1  0
 14  9  1  0
 53 11  1  0
  1 97  1  0
  1 98  1  0
  1 99  1  0
  4100  1  0
  5101  1  6
  6102  1  0
  6103  1  0
  8104  1  0
  8105  1  0
 10106  1  0
 12107  1  0
 14108  1  0
 15109  1  0
 15110  1  0
 17111  1  0
 17112  1  0
 18113  1  6
 20114  1  0
 20115  1  0
 22116  1  0
 25117  1  6
 26118  1  0
 26119  1  0
 26120  1  0
 27121  1  0
 30122  1  6
 31123  1  0
 31124  1  0
 31125  1  0
 32126  1  0
 35127  1  1
 36128  1  0
 36129  1  0
 36130  1  0
 37131  1  0
 40132  1  6
 41133  1  0
 41134  1  0
 41135  1  0
 42136  1  0
 45137  1  6
 46138  1  0
 46139  1  0
 46140  1  0
 47141  1  0
 50142  1  1
 51143  1  0
 51144  1  0
 53145  1  0
 53146  1  0
 54147  1  0
 57148  1  6
 58149  1  0
 58150  1  0
 58151  1  0
 59152  1  0
 62153  1  6
 63154  1  0
 63155  1  0
 63156  1  0
 64157  1  0
 67158  1  6
 68159  1  0
 68160  1  0
 68161  1  0
 69162  1  0
 72163  1  6
 73164  1  0
 73165  1  0
 73166  1  0
 74167  1  0
 77168  1  6
 78169  1  0
 78170  1  0
 78171  1  0
 79172  1  0
 82173  1  6
 83174  1  0
 83175  1  0
 83176  1  0
 84177  1  0
 87178  1  6
 88179  1  0
 88180  1  0
 88181  1  0
 89182  1  0
 92183  1  6
 93184  1  0
 93185  1  0
 93186  1  0
 94187  1  0
M  END
