
     RDKit          3D

177179  0  0  0  0  0  0  0  0999 V2000
    1.6691    8.9491   -2.2425 C   0  0  0  0  0  0  0  0  0  0  0  0
    1.5219    8.2812   -0.9114 C   0  0  0  0  0  0  0  0  0  0  0  0
    0.3777    7.9510   -0.5005 O   0  0  0  0  0  0  0  0  0  0  0  0
    2.6860    8.0908   -0.0886 N   0  0  0  0  0  0  0  0  0  0  0  0
    2.9827    6.8987    0.7280 C   0  0  1  0  0  0  0  0  0  0  0  0
    1.7550    6.2869    1.4337 C   0  0  0  0  0  0  0  0  0  0  0  0
    0.8177    5.1163    0.3805 S   0  0  0  0  0  0  0  0  0  0  0  0
   -0.3854    4.7031    1.6859 C   0  0  0  0  0  0  0  0  0  0  0  0
   -1.3341    3.6504    1.1979 C   0  0  0  0  0  0  0  0  0  0  0  0
   -0.9235    2.3075    1.1568 C   0  0  0  0  0  0  0  0  0  0  0  0
   -1.8352    1.3012    0.8035 C   0  0  0  0  0  0  0  0  0  0  0  0
   -3.1482    1.6520    0.4583 C   0  0  0  0  0  0  0  0  0  0  0  0
   -3.5532    2.9966    0.4549 C   0  0  0  0  0  0  0  0  0  0  0  0
   -2.6473    3.9917    0.8452 C   0  0  0  0  0  0  0  0  0  0  0  0
   -4.9791    3.3345    0.1202 C   0  0  0  0  0  0  0  0  0  0  0  0
   -6.0614    2.7918    1.4858 S   0  0  0  0  0  0  0  0  0  0  0  0
   -7.6393    3.3509    0.7360 C   0  0  0  0  0  0  0  0  0  0  0  0
   -8.4686    2.2355    0.0495 C   0  0  1  0  0  0  0  0  0  0  0  0
   -8.2907    2.2581   -1.4506 C   0  0  0  0  0  0  0  0  0  0  0  0
   -9.3341    2.7520   -2.2951 N   0  0  0  0  0  0  0  0  0  0  0  0
   -7.2234    1.8500   -1.9716 O   0  0  0  0  0  0  0  0  0  0  0  0
   -8.1561    0.8992    0.5753 N   0  0  0  0  0  0  0  0  0  0  0  0
   -8.6470    0.3828    1.8204 C   0  0  0  0  0  0  0  0  0  0  0  0
   -7.8764   -0.3124    2.5276 O   0  0  0  0  0  0  0  0  0  0  0  0
  -10.0702    0.5701    2.2872 C   0  0  1  0  0  0  0  0  0  0  0  0
  -10.1814    1.7921    3.1966 C   0  0  0  0  0  0  0  0  0  0  0  0
  -11.0228    0.6631    1.1703 N   0  0  0  0  0  0  0  0  0  0  0  0
  -11.3794   -0.4201    0.2936 C   0  0  0  0  0  0  0  0  0  0  0  0
  -12.2629   -0.2128   -0.5810 O   0  0  0  0  0  0  0  0  0  0  0  0
  -10.8060   -1.8153    0.4401 C   0  0  1  0  0  0  0  0  0  0  0  0
  -11.7794   -2.6780    1.2558 C   0  0  0  0  0  0  0  0  0  0  0  0
  -10.5573   -2.4002   -0.8856 N   0  0  0  0  0  0  0  0  0  0  0  0
   -9.8818   -3.6575   -1.0101 C   0  0  0  0  0  0  0  0  0  0  0  0
  -10.5337   -4.7270   -0.8298 O   0  0  0  0  0  0  0  0  0  0  0  0
   -8.4641   -3.7201   -1.5234 C   0  0  1  0  0  0  0  0  0  0  0  0
   -8.4617   -3.9218   -3.0387 C   0  0  0  0  0  0  0  0  0  0  0  0
   -7.7450   -2.4895   -1.1800 N   0  0  0  0  0  0  0  0  0  0  0  0
   -6.3217   -2.4647   -1.0462 C   0  0  0  0  0  0  0  0  0  0  0  0
   -5.6417   -1.8747   -1.9296 O   0  0  0  0  0  0  0  0  0  0  0  0
   -5.6121   -3.0572    0.1485 C   0  0  1  0  0  0  0  0  0  0  0  0
   -6.5573   -3.4634    1.2859 C   0  0  0  0  0  0  0  0  0  0  0  0
   -4.7927   -4.1987   -0.2674 N   0  0  0  0  0  0  0  0  0  0  0  0
   -3.5923   -4.0729   -1.0477 C   0  0  0  0  0  0  0  0  0  0  0  0
   -3.4965   -4.7304   -2.1116 O   0  0  0  0  0  0  0  0  0  0  0  0
   -2.4282   -3.2128   -0.6068 C   0  0  1  0  0  0  0  0  0  0  0  0
   -2.5936   -1.7517   -1.0766 C   0  0  0  0  0  0  0  0  0  0  0  0
   -1.0663   -0.7647   -0.8412 S   0  0  0  0  0  0  0  0  0  0  0  0
   -1.4343   -0.1380    0.8399 C   0  0  0  0  0  0  0  0  0  0  0  0
   -2.2637   -3.3075    0.8506 N   0  0  0  0  0  0  0  0  0  0  0  0
   -1.3870   -4.2034    1.5573 C   0  0  0  0  0  0  0  0  0  0  0  0
   -1.5620   -4.3389    2.7954 O   0  0  0  0  0  0  0  0  0  0  0  0
   -0.2405   -4.9667    0.9201 C   0  0  1  0  0  0  0  0  0  0  0  0
   -0.7480   -6.0888   -0.0078 C   0  0  0  0  0  0  0  0  0  0  0  0
    0.6854   -4.0559    0.2290 N   0  0  0  0  0  0  0  0  0  0  0  0
    1.9824   -4.4093   -0.2761 C   0  0  0  0  0  0  0  0  0  0  0  0
    2.5208   -3.6379   -1.1224 O   0  0  0  0  0  0  0  0  0  0  0  0
    2.7190   -5.6772    0.1201 C   0  0  1  0  0  0  0  0  0  0  0  0
    3.1203   -6.4814   -1.1160 C   0  0  0  0  0  0  0  0  0  0  0  0
    3.8945   -5.3864    0.9586 N   0  0  0  0  0  0  0  0  0  0  0  0
    4.9985   -4.5582    0.5484 C   0  0  0  0  0  0  0  0  0  0  0  0
    4.8014   -3.3311    0.3359 O   0  0  0  0  0  0  0  0  0  0  0  0
    6.4067   -5.0984    0.4235 C   0  0  1  0  0  0  0  0  0  0  0  0
    6.4975   -6.5951    0.7484 C   0  0  0  0  0  0  0  0  0  0  0  0
    6.8979   -4.8677   -0.9426 N   0  0  0  0  0  0  0  0  0  0  0  0
    8.2814   -4.7439   -1.3089 C   0  0  0  0  0  0  0  0  0  0  0  0
    8.5745   -4.6644   -2.5342 O   0  0  0  0  0  0  0  0  0  0  0  0
    9.3945   -4.6497   -0.2756 C   0  0  1  0  0  0  0  0  0  0  0  0
   10.7342   -5.1274   -0.8479 C   0  0  0  0  0  0  0  0  0  0  0  0
    9.5524   -3.2955    0.2931 N   0  0  0  0  0  0  0  0  0  0  0  0
    8.9167   -2.0925   -0.1830 C   0  0  0  0  0  0  0  0  0  0  0  0
    8.5583   -1.9883   -1.3901 O   0  0  0  0  0  0  0  0  0  0  0  0
    8.6942   -0.9278    0.7475 C   0  0  1  0  0  0  0  0  0  0  0  0
    7.9904   -1.3861    2.0285 C   0  0  0  0  0  0  0  0  0  0  0  0
    9.9768   -0.3010    1.0771 N   0  0  0  0  0  0  0  0  0  0  0  0
   10.2016    1.1139    1.2197 C   0  0  0  0  0  0  0  0  0  0  0  0
   11.0701    1.5029    2.0474 O   0  0  0  0  0  0  0  0  0  0  0  0
    9.4939    2.1656    0.3917 C   0  0  1  0  0  0  0  0  0  0  0  0
    9.5307    1.8286   -1.1087 C   0  0  0  0  0  0  0  0  0  0  0  0
    8.1163    2.3731    0.8630 N   0  0  0  0  0  0  0  0  0  0  0  0
    7.5911    3.6762    1.1547 C   0  0  0  0  0  0  0  0  0  0  0  0
    7.2286    3.9284    2.3450 O   0  0  0  0  0  0  0  0  0  0  0  0
    7.3715    4.7269    0.0928 C   0  0  1  0  0  0  0  0  0  0  0  0
    8.6597    5.5005   -0.2120 C   0  0  0  0  0  0  0  0  0  0  0  0
    6.8150    4.1335   -1.1291 N   0  0  0  0  0  0  0  0  0  0  0  0
    6.0428    4.8350   -2.1175 C   0  0  0  0  0  0  0  0  0  0  0  0
    5.7573    4.2421   -3.1952 O   0  0  0  0  0  0  0  0  0  0  0  0
    5.4782    6.2139   -1.8800 C   0  0  1  0  0  0  0  0  0  0  0  0
    5.5545    7.0778   -3.1464 C   0  0  0  0  0  0  0  0  0  0  0  0
    4.0892    6.1046   -1.4336 N   0  0  0  0  0  0  0  0  0  0  0  0
    3.7711    5.8872   -0.0573 C   0  0  0  0  0  0  0  0  0  0  0  0
    4.1660    4.8318    0.5071 O   0  0  0  0  0  0  0  0  0  0  0  0
    2.1069    9.9597   -2.1057 H   0  0  0  0  0  0  0  0  0  0  0  0
    2.3451    8.3514   -2.8874 H   0  0  0  0  0  0  0  0  0  0  0  0
    0.6819    9.0346   -2.7406 H   0  0  0  0  0  0  0  0  0  0  0  0
    3.5128    8.6939   -0.3139 H   0  0  0  0  0  0  0  0  0  0  0  0
    3.6637    7.2441    1.5455 H   0  0  0  0  0  0  0  0  0  0  0  0
    1.0858    7.0927    1.8013 H   0  0  0  0  0  0  0  0  0  0  0  0
    2.1184    5.7322    2.3250 H   0  0  0  0  0  0  0  0  0  0  0  0
   -0.9404    5.6272    1.9646 H   0  0  0  0  0  0  0  0  0  0  0  0
    0.1354    4.3329    2.5925 H   0  0  0  0  0  0  0  0  0  0  0  0
    0.0872    2.0427    1.4368 H   0  0  0  0  0  0  0  0  0  0  0  0
   -3.8660    0.8833    0.2150 H   0  0  0  0  0  0  0  0  0  0  0  0
   -2.9722    5.0271    0.8829 H   0  0  0  0  0  0  0  0  0  0  0  0
   -5.2619    2.8025   -0.8102 H   0  0  0  0  0  0  0  0  0  0  0  0
   -5.0951    4.4272   -0.0490 H   0  0  0  0  0  0  0  0  0  0  0  0
   -7.4906    4.2114    0.0488 H   0  0  0  0  0  0  0  0  0  0  0  0
   -8.2356    3.7537    1.5831 H   0  0  0  0  0  0  0  0  0  0  0  0
   -9.5300    2.4595    0.2366 H   0  0  0  0  0  0  0  0  0  0  0  0
   -9.2035    2.7753   -3.3317 H   0  0  0  0  0  0  0  0  0  0  0  0
  -10.2344    3.1008   -1.8957 H   0  0  0  0  0  0  0  0  0  0  0  0
   -7.3190    0.4104    0.1712 H   0  0  0  0  0  0  0  0  0  0  0  0
  -10.3529   -0.3123    2.9020 H   0  0  0  0  0  0  0  0  0  0  0  0
  -11.1889    1.8269    3.6587 H   0  0  0  0  0  0  0  0  0  0  0  0
  -10.0274    2.7328    2.6250 H   0  0  0  0  0  0  0  0  0  0  0  0
   -9.4228    1.7410    4.0066 H   0  0  0  0  0  0  0  0  0  0  0  0
  -11.5383    1.5624    1.0328 H   0  0  0  0  0  0  0  0  0  0  0  0
   -9.8413   -1.7770    0.9829 H   0  0  0  0  0  0  0  0  0  0  0  0
  -12.0184   -2.1677    2.2163 H   0  0  0  0  0  0  0  0  0  0  0  0
  -11.3172   -3.6609    1.4886 H   0  0  0  0  0  0  0  0  0  0  0  0
  -12.7266   -2.8341    0.6902 H   0  0  0  0  0  0  0  0  0  0  0  0
  -10.4921   -1.7625   -1.7056 H   0  0  0  0  0  0  0  0  0  0  0  0
   -7.9643   -4.6008   -1.0618 H   0  0  0  0  0  0  0  0  0  0  0  0
   -8.9061   -3.0423   -3.5501 H   0  0  0  0  0  0  0  0  0  0  0  0
   -7.4154   -4.0551   -3.3896 H   0  0  0  0  0  0  0  0  0  0  0  0
   -9.0397   -4.8317   -3.3117 H   0  0  0  0  0  0  0  0  0  0  0  0
   -8.1708   -1.5829   -1.4862 H   0  0  0  0  0  0  0  0  0  0  0  0
   -4.9690   -2.2624    0.5760 H   0  0  0  0  0  0  0  0  0  0  0  0
   -7.1540   -4.3571    1.0232 H   0  0  0  0  0  0  0  0  0  0  0  0
   -7.2458   -2.6300    1.5431 H   0  0  0  0  0  0  0  0  0  0  0  0
   -5.9619   -3.7088    2.1945 H   0  0  0  0  0  0  0  0  0  0  0  0
   -5.2795   -5.1204   -0.3281 H   0  0  0  0  0  0  0  0  0  0  0  0
   -1.5187   -3.5883   -1.1161 H   0  0  0  0  0  0  0  0  0  0  0  0
   -2.7965   -1.7533   -2.1708 H   0  0  0  0  0  0  0  0  0  0  0  0
   -3.4455   -1.2447   -0.5977 H   0  0  0  0  0  0  0  0  0  0  0  0
   -2.2395   -0.7115    1.3351 H   0  0  0  0  0  0  0  0  0  0  0  0
   -0.5229   -0.2656    1.4590 H   0  0  0  0  0  0  0  0  0  0  0  0
   -2.9661   -2.8089    1.4366 H   0  0  0  0  0  0  0  0  0  0  0  0
    0.3105   -5.4474    1.7558 H   0  0  0  0  0  0  0  0  0  0  0  0
   -1.6318   -6.5862    0.4364 H   0  0  0  0  0  0  0  0  0  0  0  0
    0.0322   -6.8635   -0.1444 H   0  0  0  0  0  0  0  0  0  0  0  0
   -1.0088   -5.7134   -1.0168 H   0  0  0  0  0  0  0  0  0  0  0  0
    0.3938   -3.0670    0.0843 H   0  0  0  0  0  0  0  0  0  0  0  0
    2.0579   -6.3302    0.7148 H   0  0  0  0  0  0  0  0  0  0  0  0
    3.5779   -7.4448   -0.8076 H   0  0  0  0  0  0  0  0  0  0  0  0
    2.2163   -6.7058   -1.7222 H   0  0  0  0  0  0  0  0  0  0  0  0
    3.8430   -5.9186   -1.7441 H   0  0  0  0  0  0  0  0  0  0  0  0
    4.0192   -5.9662    1.8219 H   0  0  0  0  0  0  0  0  0  0  0  0
    7.0363   -4.5414    1.1470 H   0  0  0  0  0  0  0  0  0  0  0  0
    6.2297   -6.7748    1.8100 H   0  0  0  0  0  0  0  0  0  0  0  0
    5.8213   -7.1815    0.0922 H   0  0  0  0  0  0  0  0  0  0  0  0
    7.5274   -6.9732    0.5903 H   0  0  0  0  0  0  0  0  0  0  0  0
    6.2077   -4.9148   -1.7262 H   0  0  0  0  0  0  0  0  0  0  0  0
    9.1490   -5.3396    0.5594 H   0  0  0  0  0  0  0  0  0  0  0  0
   10.6237   -6.1402   -1.2947 H   0  0  0  0  0  0  0  0  0  0  0  0
   11.1024   -4.4156   -1.6176 H   0  0  0  0  0  0  0  0  0  0  0  0
   11.4942   -5.1865   -0.0370 H   0  0  0  0  0  0  0  0  0  0  0  0
   10.1725   -3.2288    1.1338 H   0  0  0  0  0  0  0  0  0  0  0  0
    8.0177   -0.2224    0.2392 H   0  0  0  0  0  0  0  0  0  0  0  0
    7.0146   -1.8636    1.7852 H   0  0  0  0  0  0  0  0  0  0  0  0
    8.6181   -2.1112    2.5888 H   0  0  0  0  0  0  0  0  0  0  0  0
    7.8013   -0.5100    2.6846 H   0  0  0  0  0  0  0  0  0  0  0  0
   10.7088   -0.9250    1.4916 H   0  0  0  0  0  0  0  0  0  0  0  0
   10.0645    3.1084    0.5190 H   0  0  0  0  0  0  0  0  0  0  0  0
    8.7834    1.0592   -1.3837 H   0  0  0  0  0  0  0  0  0  0  0  0
   10.5407    1.4699   -1.3985 H   0  0  0  0  0  0  0  0  0  0  0  0
    9.3149    2.7357   -1.7117 H   0  0  0  0  0  0  0  0  0  0  0  0
    7.6494    1.5997    1.3864 H   0  0  0  0  0  0  0  0  0  0  0  0
    6.6434    5.4487    0.5220 H   0  0  0  0  0  0  0  0  0  0  0  0
    8.4210    6.4102   -0.8027 H   0  0  0  0  0  0  0  0  0  0  0  0
    9.1476    5.8212    0.7312 H   0  0  0  0  0  0  0  0  0  0  0  0
    9.3753    4.8903   -0.7979 H   0  0  0  0  0  0  0  0  0  0  0  0
    7.0099    3.1280   -1.3323 H   0  0  0  0  0  0  0  0  0  0  0  0
    6.0604    6.7690   -1.1219 H   0  0  0  0  0  0  0  0  0  0  0  0
    4.9523    6.6370   -3.9703 H   0  0  0  0  0  0  0  0  0  0  0  0
    5.1598    8.0960   -2.9337 H   0  0  0  0  0  0  0  0  0  0  0  0
    6.6084    7.1738   -3.4800 H   0  0  0  0  0  0  0  0  0  0  0  0
    3.3086    6.3434   -2.0854 H   0  0  0  0  0  0  0  0  0  0  0  0
  1  2  1  0
  2  3  2  0
  2  4  1  0
  4  5  1  0
  5  6  1  0
  6  7  1  0
  7  8  1  0
  8  9  1  0
  9 10  2  0
 10 11  1  0
 11 12  2  0
 12 13  1  0
 13 14  2  0
 13 15  1  0
 15 16  1  0
 16 17  1  0
 17 18  1  0
 18 19  1  0
 19 20  1  0
 19 21  2  0
 18 22  1  0
 22 23  1  0
 23 24  2  0
 23 25  1  0
 25 26  1  0
 25 27  1  0
 27 28  1  0
 28 29  2  0
 28 30  1  0
 30 31  1  0
 30 32  1  0
 32 33  1  0
 33 34  2  0
 33 35  1  0
 35 36  1  0
 35 37  1  0
 37 38  1  0
 38 39  2  0
 38 40  1  0
 40 41  1  0
 40 42  1  0
 42 43  1  0
 43 44  2  0
 43 45  1  0
 45 46  1  0
 46 47  1  0
 47 48  1  0
 45 49  1  0
 49 50  1  0
 50 51  2  0
 50 52  1  0
 52 53  1  0
 52 54  1  0
 54 55  1  0
 55 56  2  0
 55 57  1  0
 57 58  1  0
 57 59  1  0
 59 60  1  0
 60 61  2  0
 60 62  1  0
 62 63  1  0
 62 64  1  0
 64 65  1  0
 65 66  2  0
 65 67  1  0
 67 68  1  0
 67 69  1  0
 69 70  1  0
 70 71  2  0
 70 72  1  0
 72 73  1  0
 72 74  1  0
 74 75  1  0
 75 76  2  0
 75 77  1  0
 77 78  1  0
 77 79  1  0
 79 80  1  0
 80 81  2  0
 80 82  1  0
 82 83  1  0
 82 84  1  0
 84 85  1  0
 85 86  2  0
 85 87  1  0
 87 88  1  0
 87 89  1  0
 89 90  1  0
 90 91  2  0
 90  5  1  0
 14  9  1  0
 48 11  1  0
  1 92  1  0
  1 93  1  0
  1 94  1  0
  4 95  1  0
  5 96  1  1
  6 97  1  0
  6 98  1  0
  8 99  1  0
  8100  1  0
 10101  1  0
 12102  1  0
 14103  1  0
 15104  1  0
 15105  1  0
 17106  1  0
 17107  1  0
 18108  1  6
 20109  1  0
 20110  1  0
 22111  1  0
 25112  1  1
 26113  1  0
 26114  1  0
 26115  1  0
 27116  1  0
 30117  1  1
 31118  1  0
 31119  1  0
 31120  1  0
 32121  1  0
 35122  1  1
 36123  1  0
 36124  1  0
 36125  1  0
 37126  1  0
 40127  1  1
 41128  1  0
 41129  1  0
 41130  1  0
 42131  1  0
 45132  1  6
 46133  1  0
 46134  1  0
 48135  1  0
 48136  1  0
 49137  1  0
 52138  1  1
 53139  1  0
 53140  1  0
 53141  1  0
 54142  1  0
 57143  1  1
 58144  1  0
 58145  1  0
 58146  1  0
 59147  1  0
 62148  1  1
 63149  1  0
 63150  1  0
 63151  1  0
 64152  1  0
 67153  1  1
 68154  1  0
 68155  1  0
 68156  1  0
 69157  1  0
 72158  1  6
 73159  1  0
 73160  1  0
 73161  1  0
 74162  1  0
 77163  1  6
 78164  1  0
 78165  1  0
 78166  1  0
 79167  1  0
 82168  1  1
 83169  1  0
 83170  1  0
 83171  1  0
 84172  1  0
 87173  1  1
 88174  1  0
 88175  1  0
 88176  1  0
 89177  1  0
M  END
