
     RDKit          3D

217219  0  0  0  0  0  0  0  0999 V2000
   -7.2918    9.1396   -0.3967 C   0  0  0  0  0  0  0  0  0  0  0  0
   -6.2994    8.0201   -0.4256 C   0  0  0  0  0  0  0  0  0  0  0  0
   -6.0903    7.4166   -1.5133 O   0  0  0  0  0  0  0  0  0  0  0  0
   -5.6053    7.6335    0.7728 N   0  0  0  0  0  0  0  0  0  0  0  0
   -4.6496    6.5250    0.8531 C   0  0  2  0  0  0  0  0  0  0  0  0
   -3.3983    6.8168   -0.0029 C   0  0  0  0  0  0  0  0  0  0  0  0
   -1.8954    5.9899    0.6434 S   0  0  0  0  0  0  0  0  0  0  0  0
   -2.2035    4.3527   -0.0978 C   0  0  0  0  0  0  0  0  0  0  0  0
   -0.9608    3.5163   -0.0290 C   0  0  0  0  0  0  0  0  0  0  0  0
    0.0935    3.7632   -0.9266 C   0  0  0  0  0  0  0  0  0  0  0  0
    1.2074    2.9061   -0.9688 C   0  0  0  0  0  0  0  0  0  0  0  0
    1.2938    1.8417   -0.0588 C   0  0  0  0  0  0  0  0  0  0  0  0
    0.2812    1.6342    0.8877 C   0  0  0  0  0  0  0  0  0  0  0  0
   -0.8608    2.4486    0.8809 C   0  0  0  0  0  0  0  0  0  0  0  0
    0.3650    0.4781    1.8428 C   0  0  0  0  0  0  0  0  0  0  0  0
   -0.7728   -0.8644    1.3561 S   0  0  0  0  0  0  0  0  0  0  0  0
    0.2142   -1.4982   -0.0470 C   0  0  0  0  0  0  0  0  0  0  0  0
   -0.3702   -2.8215   -0.5699 C   0  0  1  0  0  0  0  0  0  0  0  0
   -1.7429   -2.5969   -1.0584 N   0  0  0  0  0  0  0  0  0  0  0  0
   -2.9532   -3.0332   -0.4081 C   0  0  0  0  0  0  0  0  0  0  0  0
   -4.0512   -2.8000   -0.9821 O   0  0  0  0  0  0  0  0  0  0  0  0
   -2.9539   -3.7601    0.9165 C   0  0  1  0  0  0  0  0  0  0  0  0
   -4.1393   -3.3746    1.8088 C   0  0  0  0  0  0  0  0  0  0  0  0
   -2.8833   -5.2174    0.7065 N   0  0  0  0  0  0  0  0  0  0  0  0
   -4.0280   -6.0322    0.4295 C   0  0  0  0  0  0  0  0  0  0  0  0
   -4.4372   -6.8286    1.3112 O   0  0  0  0  0  0  0  0  0  0  0  0
   -4.7066   -6.0106   -0.9205 C   0  0  1  0  0  0  0  0  0  0  0  0
   -4.6115   -7.4032   -1.5734 C   0  0  0  0  0  0  0  0  0  0  0  0
   -6.0953   -5.5594   -0.7636 N   0  0  0  0  0  0  0  0  0  0  0  0
   -7.2281   -6.1710   -1.3961 C   0  0  0  0  0  0  0  0  0  0  0  0
   -7.3221   -6.1517   -2.6560 O   0  0  0  0  0  0  0  0  0  0  0  0
   -8.3422   -6.7749   -0.5810 C   0  0  1  0  0  0  0  0  0  0  0  0
   -7.9530   -6.9540    0.8941 C   0  0  0  0  0  0  0  0  0  0  0  0
   -9.5803   -5.9931   -0.7656 N   0  0  0  0  0  0  0  0  0  0  0  0
  -10.1995   -5.1790    0.2393 C   0  0  0  0  0  0  0  0  0  0  0  0
  -10.5735   -5.7022    1.3190 O   0  0  0  0  0  0  0  0  0  0  0  0
  -10.3339   -3.6811    0.0683 C   0  0  1  0  0  0  0  0  0  0  0  0
   -9.1194   -2.9818    0.6799 C   0  0  0  0  0  0  0  0  0  0  0  0
  -10.4709   -3.2966   -1.3395 N   0  0  0  0  0  0  0  0  0  0  0  0
  -11.0826   -2.0685   -1.7812 C   0  0  0  0  0  0  0  0  0  0  0  0
  -10.6385   -1.5194   -2.8259 O   0  0  0  0  0  0  0  0  0  0  0  0
  -12.3027   -1.4634   -1.1210 C   0  0  1  0  0  0  0  0  0  0  0  0
  -13.4671   -2.4646   -1.0785 C   0  0  0  0  0  0  0  0  0  0  0  0
  -11.9961   -0.9582    0.2271 N   0  0  0  0  0  0  0  0  0  0  0  0
  -11.3788    0.3065    0.5173 C   0  0  0  0  0  0  0  0  0  0  0  0
  -11.1217    0.5847    1.7209 O   0  0  0  0  0  0  0  0  0  0  0  0
  -11.1355    1.3638   -0.5431 C   0  0  1  0  0  0  0  0  0  0  0  0
  -12.4379    2.1616   -0.7421 C   0  0  0  0  0  0  0  0  0  0  0  0
  -10.0247    2.2430   -0.1375 N   0  0  0  0  0  0  0  0  0  0  0  0
   -9.8250    3.5822   -0.6331 C   0  0  0  0  0  0  0  0  0  0  0  0
  -10.1739    3.8785   -1.8082 O   0  0  0  0  0  0  0  0  0  0  0  0
   -9.1356    4.6121    0.2320 C   0  0  1  0  0  0  0  0  0  0  0  0
   -9.7254    6.0095    0.0169 C   0  0  0  0  0  0  0  0  0  0  0  0
   -9.2636    4.2547    1.6487 N   0  0  0  0  0  0  0  0  0  0  0  0
   -8.1457    4.0863    2.5284 C   0  0  0  0  0  0  0  0  0  0  0  0
   -8.1820    3.1576    3.3843 O   0  0  0  0  0  0  0  0  0  0  0  0
   -6.9370    4.9877    2.4454 C   0  0  1  0  0  0  0  0  0  0  0  0
   -6.2918    5.1800    3.8268 C   0  0  0  0  0  0  0  0  0  0  0  0
   -5.9618    4.4236    1.5075 N   0  0  0  0  0  0  0  0  0  0  0  0
   -5.3262    5.2178    0.5022 C   0  0  0  0  0  0  0  0  0  0  0  0
   -5.3300    4.8097   -0.6940 O   0  0  0  0  0  0  0  0  0  0  0  0
    0.5031   -3.3880   -1.6654 C   0  0  0  0  0  0  0  0  0  0  0  0
    0.0161   -3.6725   -2.7936 O   0  0  0  0  0  0  0  0  0  0  0  0
    1.9020   -3.6023   -1.4363 N   0  0  0  0  0  0  0  0  0  0  0  0
    2.4844   -4.8588   -0.9323 C   0  0  2  0  0  0  0  0  0  0  0  0
    1.4464   -5.7637   -0.2511 C   0  0  0  0  0  0  0  0  0  0  0  0
    3.5819   -4.5244    0.0483 C   0  0  0  0  0  0  0  0  0  0  0  0
    3.2762   -3.8602    1.0765 O   0  0  0  0  0  0  0  0  0  0  0  0
    4.9544   -4.9410   -0.1171 N   0  0  0  0  0  0  0  0  0  0  0  0
    5.4725   -5.7937   -1.1924 C   0  0  2  0  0  0  0  0  0  0  0  0
    5.0764   -7.2556   -0.9350 C   0  0  0  0  0  0  0  0  0  0  0  0
    6.9774   -5.6135   -1.2807 C   0  0  0  0  0  0  0  0  0  0  0  0
    7.4273   -4.4941   -1.6592 O   0  0  0  0  0  0  0  0  0  0  0  0
    7.8929   -6.6391   -0.8756 N   0  0  0  0  0  0  0  0  0  0  0  0
    9.1171   -6.3182   -0.1394 C   0  0  2  0  0  0  0  0  0  0  0  0
    9.9623   -7.5817    0.0633 C   0  0  0  0  0  0  0  0  0  0  0  0
    8.7482   -5.7060    1.1976 C   0  0  0  0  0  0  0  0  0  0  0  0
    8.0559   -6.3878    2.0024 O   0  0  0  0  0  0  0  0  0  0  0  0
    9.0575   -4.3440    1.5462 N   0  0  0  0  0  0  0  0  0  0  0  0
   10.1958   -3.5838    1.0083 C   0  0  2  0  0  0  0  0  0  0  0  0
   11.5118   -4.1581    1.5416 C   0  0  0  0  0  0  0  0  0  0  0  0
   10.0891   -2.1272    1.3937 C   0  0  0  0  0  0  0  0  0  0  0  0
   10.1203   -1.7873    2.6061 O   0  0  0  0  0  0  0  0  0  0  0  0
    9.9359   -1.1209    0.3853 N   0  0  0  0  0  0  0  0  0  0  0  0
   11.0727   -0.4246   -0.2264 C   0  0  2  0  0  0  0  0  0  0  0  0
   11.7602   -1.3205   -1.2614 C   0  0  0  0  0  0  0  0  0  0  0  0
   12.0698    0.0671    0.8072 C   0  0  0  0  0  0  0  0  0  0  0  0
   12.6998   -0.7840    1.4898 O   0  0  0  0  0  0  0  0  0  0  0  0
   12.3490    1.4626    1.0443 N   0  0  0  0  0  0  0  0  0  0  0  0
   11.8983    2.5897    0.2112 C   0  0  2  0  0  0  0  0  0  0  0  0
   12.5857    2.5539   -1.1613 C   0  0  0  0  0  0  0  0  0  0  0  0
   12.2177    3.9245    0.8658 C   0  0  0  0  0  0  0  0  0  0  0  0
   13.2724    4.0347    1.5527 O   0  0  0  0  0  0  0  0  0  0  0  0
   11.4310    5.1083    0.6342 N   0  0  0  0  0  0  0  0  0  0  0  0
   10.1931    5.1680   -0.1476 C   0  0  2  0  0  0  0  0  0  0  0  0
    9.9968    6.5875   -0.6955 C   0  0  0  0  0  0  0  0  0  0  0  0
    9.0298    4.7937    0.7347 C   0  0  0  0  0  0  0  0  0  0  0  0
    8.8567    5.4287    1.8112 O   0  0  0  0  0  0  0  0  0  0  0  0
    8.1594    3.6834    0.4481 N   0  0  0  0  0  0  0  0  0  0  0  0
    7.5553    3.3564   -0.8529 C   0  0  2  0  0  0  0  0  0  0  0  0
    8.4398    2.3927   -1.6567 C   0  0  0  0  0  0  0  0  0  0  0  0
    7.1449    4.5981   -1.6304 C   0  0  0  0  0  0  0  0  0  0  0  0
    7.6623    4.8184   -2.7588 O   0  0  0  0  0  0  0  0  0  0  0  0
    6.1741    5.5257   -1.1246 N   0  0  0  0  0  0  0  0  0  0  0  0
    5.1917    5.2178   -0.0770 C   0  0  1  0  0  0  0  0  0  0  0  0
    5.0201    6.4257    0.8063 C   0  0  0  0  0  0  0  0  0  0  0  0
    4.3683    7.6009    0.3286 N   0  0  0  0  0  0  0  0  0  0  0  0
    5.5008    6.4157    1.9646 O   0  0  0  0  0  0  0  0  0  0  0  0
    3.8507    4.7999   -0.7117 C   0  0  0  0  0  0  0  0  0  0  0  0
    3.9437    3.0986   -1.3644 S   0  0  0  0  0  0  0  0  0  0  0  0
    2.2466    3.0615   -2.0439 C   0  0  0  0  0  0  0  0  0  0  0  0
   -7.0036    9.9074   -1.1389 H   0  0  0  0  0  0  0  0  0  0  0  0
   -7.3330    9.6053    0.6083 H   0  0  0  0  0  0  0  0  0  0  0  0
   -8.2954    8.7435   -0.6465 H   0  0  0  0  0  0  0  0  0  0  0  0
   -5.7978    8.1610    1.6552 H   0  0  0  0  0  0  0  0  0  0  0  0
   -4.3044    6.4500    1.9062 H   0  0  0  0  0  0  0  0  0  0  0  0
   -3.1869    7.9050    0.0477 H   0  0  0  0  0  0  0  0  0  0  0  0
   -3.5564    6.5785   -1.0764 H   0  0  0  0  0  0  0  0  0  0  0  0
   -3.0249    3.8555    0.4565 H   0  0  0  0  0  0  0  0  0  0  0  0
   -2.5153    4.4482   -1.1620 H   0  0  0  0  0  0  0  0  0  0  0  0
    0.0197    4.5962   -1.6215 H   0  0  0  0  0  0  0  0  0  0  0  0
    2.1329    1.1566   -0.1064 H   0  0  0  0  0  0  0  0  0  0  0  0
   -1.6763    2.2419    1.5707 H   0  0  0  0  0  0  0  0  0  0  0  0
    1.4038    0.0912    1.9351 H   0  0  0  0  0  0  0  0  0  0  0  0
    0.0633    0.8202    2.8579 H   0  0  0  0  0  0  0  0  0  0  0  0
    1.2585   -1.6636    0.2991 H   0  0  0  0  0  0  0  0  0  0  0  0
    0.2326   -0.7486   -0.8636 H   0  0  0  0  0  0  0  0  0  0  0  0
   -0.3570   -3.5509    0.2543 H   0  0  0  0  0  0  0  0  0  0  0  0
   -1.8546   -2.0050   -1.9142 H   0  0  0  0  0  0  0  0  0  0  0  0
   -2.0680   -3.4598    1.5080 H   0  0  0  0  0  0  0  0  0  0  0  0
   -4.1254   -3.9799    2.7415 H   0  0  0  0  0  0  0  0  0  0  0  0
   -5.1109   -3.5290    1.2958 H   0  0  0  0  0  0  0  0  0  0  0  0
   -4.0653   -2.2994    2.0825 H   0  0  0  0  0  0  0  0  0  0  0  0
   -2.0426   -5.7075    1.0928 H   0  0  0  0  0  0  0  0  0  0  0  0
   -4.1785   -5.2991   -1.5907 H   0  0  0  0  0  0  0  0  0  0  0  0
   -5.1928   -8.1507   -0.9842 H   0  0  0  0  0  0  0  0  0  0  0  0
   -5.0054   -7.3714   -2.6122 H   0  0  0  0  0  0  0  0  0  0  0  0
   -3.5443   -7.7311   -1.6291 H   0  0  0  0  0  0  0  0  0  0  0  0
   -6.2767   -4.6711   -0.2428 H   0  0  0  0  0  0  0  0  0  0  0  0
   -8.5299   -7.7953   -0.9835 H   0  0  0  0  0  0  0  0  0  0  0  0
   -7.7769   -5.9721    1.3877 H   0  0  0  0  0  0  0  0  0  0  0  0
   -8.7495   -7.5028    1.4385 H   0  0  0  0  0  0  0  0  0  0  0  0
   -7.0264   -7.5601    0.9649 H   0  0  0  0  0  0  0  0  0  0  0  0
  -10.0292   -6.0325   -1.7150 H   0  0  0  0  0  0  0  0  0  0  0  0
  -11.2287   -3.3824    0.6362 H   0  0  0  0  0  0  0  0  0  0  0  0
   -9.2313   -1.8823    0.5942 H   0  0  0  0  0  0  0  0  0  0  0  0
   -8.1935   -3.2835    0.1485 H   0  0  0  0  0  0  0  0  0  0  0  0
   -9.0225   -3.2457    1.7534 H   0  0  0  0  0  0  0  0  0  0  0  0
   -9.8083   -3.7364   -2.0218 H   0  0  0  0  0  0  0  0  0  0  0  0
  -12.6666   -0.6155   -1.7463 H   0  0  0  0  0  0  0  0  0  0  0  0
  -13.7532   -2.7564   -2.1140 H   0  0  0  0  0  0  0  0  0  0  0  0
  -13.2072   -3.3848   -0.5219 H   0  0  0  0  0  0  0  0  0  0  0  0
  -14.3541   -1.9933   -0.5946 H   0  0  0  0  0  0  0  0  0  0  0  0
  -12.3370   -1.5024    1.0519 H   0  0  0  0  0  0  0  0  0  0  0  0
  -10.8606    0.8776   -1.5021 H   0  0  0  0  0  0  0  0  0  0  0  0
  -12.3975    2.7369   -1.6890 H   0  0  0  0  0  0  0  0  0  0  0  0
  -12.6011    2.8632    0.1026 H   0  0  0  0  0  0  0  0  0  0  0  0
  -13.3166    1.4837   -0.8058 H   0  0  0  0  0  0  0  0  0  0  0  0
   -9.3039    1.8742    0.5246 H   0  0  0  0  0  0  0  0  0  0  0  0
   -8.0677    4.6415   -0.0657 H   0  0  0  0  0  0  0  0  0  0  0  0
   -9.2311    6.7393    0.6976 H   0  0  0  0  0  0  0  0  0  0  0  0
   -9.5650    6.3433   -1.0313 H   0  0  0  0  0  0  0  0  0  0  0  0
  -10.8140    6.0090    0.2340 H   0  0  0  0  0  0  0  0  0  0  0  0
  -10.2071    3.9826    2.0093 H   0  0  0  0  0  0  0  0  0  0  0  0
   -7.2778    5.9842    2.0939 H   0  0  0  0  0  0  0  0  0  0  0  0
   -7.0537    5.5228    4.5625 H   0  0  0  0  0  0  0  0  0  0  0  0
   -5.5009    5.9570    3.7806 H   0  0  0  0  0  0  0  0  0  0  0  0
   -5.8445    4.2327    4.1892 H   0  0  0  0  0  0  0  0  0  0  0  0
   -5.9172    3.3830    1.4068 H   0  0  0  0  0  0  0  0  0  0  0  0
    2.5461   -2.9926   -1.9942 H   0  0  0  0  0  0  0  0  0  0  0  0
    2.8747   -5.4160   -1.8046 H   0  0  0  0  0  0  0  0  0  0  0  0
    0.6358   -6.0371   -0.9609 H   0  0  0  0  0  0  0  0  0  0  0  0
    1.9376   -6.7031    0.1023 H   0  0  0  0  0  0  0  0  0  0  0  0
    1.0134   -5.2743    0.6441 H   0  0  0  0  0  0  0  0  0  0  0  0
    5.6200   -4.6278    0.6293 H   0  0  0  0  0  0  0  0  0  0  0  0
    5.0563   -5.4770   -2.1721 H   0  0  0  0  0  0  0  0  0  0  0  0
    3.9732   -7.3689   -0.9071 H   0  0  0  0  0  0  0  0  0  0  0  0
    5.4866   -7.6045    0.0338 H   0  0  0  0  0  0  0  0  0  0  0  0
    5.4509   -7.9038   -1.7550 H   0  0  0  0  0  0  0  0  0  0  0  0
    7.7031   -7.6310   -1.1569 H   0  0  0  0  0  0  0  0  0  0  0  0
    9.7205   -5.6240   -0.7552 H   0  0  0  0  0  0  0  0  0  0  0  0
   10.2144   -8.0279   -0.9211 H   0  0  0  0  0  0  0  0  0  0  0  0
   10.9095   -7.3358    0.5864 H   0  0  0  0  0  0  0  0  0  0  0  0
    9.4081   -8.3416    0.6559 H   0  0  0  0  0  0  0  0  0  0  0  0
    8.4849   -3.9126    2.3101 H   0  0  0  0  0  0  0  0  0  0  0  0
   10.1943   -3.6308   -0.0981 H   0  0  0  0  0  0  0  0  0  0  0  0
   11.5621   -4.0617    2.6458 H   0  0  0  0  0  0  0  0  0  0  0  0
   12.3759   -3.6214    1.0994 H   0  0  0  0  0  0  0  0  0  0  0  0
   11.6038   -5.2282    1.2804 H   0  0  0  0  0  0  0  0  0  0  0  0
    9.0672   -1.1760   -0.1904 H   0  0  0  0  0  0  0  0  0  0  0  0
   10.6687    0.4365   -0.7786 H   0  0  0  0  0  0  0  0  0  0  0  0
   12.1991   -2.2200   -0.7844 H   0  0  0  0  0  0  0  0  0  0  0  0
   12.5733   -0.7694   -1.7796 H   0  0  0  0  0  0  0  0  0  0  0  0
   11.0138   -1.6483   -2.0198 H   0  0  0  0  0  0  0  0  0  0  0  0
   12.9755    1.6606    1.8549 H   0  0  0  0  0  0  0  0  0  0  0  0
   10.7973    2.5191    0.0841 H   0  0  0  0  0  0  0  0  0  0  0  0
   13.6925    2.5219   -1.0415 H   0  0  0  0  0  0  0  0  0  0  0  0
   12.3174    3.4521   -1.7576 H   0  0  0  0  0  0  0  0  0  0  0  0
   12.2736    1.6656   -1.7427 H   0  0  0  0  0  0  0  0  0  0  0  0
   11.7700    5.9895    1.0933 H   0  0  0  0  0  0  0  0  0  0  0  0
   10.2727    4.4938   -1.0199 H   0  0  0  0  0  0  0  0  0  0  0  0
    9.0824    6.6473   -1.3169 H   0  0  0  0  0  0  0  0  0  0  0  0
   10.8660    6.8723   -1.3247 H   0  0  0  0  0  0  0  0  0  0  0  0
    9.9163    7.3220    0.1325 H   0  0  0  0  0  0  0  0  0  0  0  0
    7.7118    3.2266    1.2777 H   0  0  0  0  0  0  0  0  0  0  0  0
    6.6313    2.7769   -0.6567 H   0  0  0  0  0  0  0  0  0  0  0  0
    9.3100    2.9013   -2.1239 H   0  0  0  0  0  0  0  0  0  0  0  0
    8.7934    1.5858   -0.9823 H   0  0  0  0  0  0  0  0  0  0  0  0
    7.8398    1.9277   -2.4734 H   0  0  0  0  0  0  0  0  0  0  0  0
    5.9964    6.3797   -1.7057 H   0  0  0  0  0  0  0  0  0  0  0  0
    5.5543    4.3909    0.5654 H   0  0  0  0  0  0  0  0  0  0  0  0
    4.2812    8.4448    0.9404 H   0  0  0  0  0  0  0  0  0  0  0  0
    4.0686    7.6792   -0.6763 H   0  0  0  0  0  0  0  0  0  0  0  0
    3.6052    5.4895   -1.5470 H   0  0  0  0  0  0  0  0  0  0  0  0
    3.0362    4.8436    0.0419 H   0  0  0  0  0  0  0  0  0  0  0  0
    2.1754    2.2019   -2.7414 H   0  0  0  0  0  0  0  0  0  0  0  0
    2.0737    3.9820   -2.6422 H   0  0  0  0  0  0  0  0  0  0  0  0
  1  2  1  0
  2  3  2  0
  2  4  1  0
  4  5  1  0
  5  6  1  0
  6  7  1  0
  7  8  1  0
  8  9  1  0
  9 10  2  0
 10 11  1  0
 11 12  2  0
 12 13  1  0
 13 14  2  0
 13 15  1  0
 15 16  1  0
 16 17  1  0
 17 18  1  0
 18 19  1  0
 19 20  1  0
 20 21  2  0
 20 22  1  0
 22 23  1  0
 22 24  1  0
 24 25  1  0
 25 26  2  0
 25 27  1  0
 27 28  1  0
 27 29  1  0
 29 30  1  0
 30 31  2  0
 30 32  1  0
 32 33  1  0
 32 34  1  0
 34 35  1  0
 35 36  2  0
 35 37  1  0
 37 38  1  0
 37 39  1  0
 39 40  1  0
 40 41  2  0
 40 42  1  0
 42 43  1  0
 42 44  1  0
 44 45  1  0
 45 46  2  0
 45 47  1  0
 47 48  1  0
 47 49  1  0
 49 50  1  0
 50 51  2  0
 50 52  1  0
 52 53  1  0
 52 54  1  0
 54 55  1  0
 55 56  2  0
 55 57  1  0
 57 58  1  0
 57 59  1  0
 59 60  1  0
 60 61  2  0
 18 62  1  0
 62 63  2  0
 62 64  1  0
 64 65  1  0
 65 66  1  0
 65 67  1  0
 67 68  2  0
 67 69  1  0
 69 70  1  0
 70 71  1  0
 70 72  1  0
 72 73  2  0
 72 74  1  0
 74 75  1  0
 75 76  1  0
 75 77  1  0
 77 78  2  0
 77 79  1  0
 79 80  1  0
 80 81  1  0
 80 82  1  0
 82 83  2  0
 82 84  1  0
 84 85  1  0
 85 86  1  0
 85 87  1  0
 87 88  2  0
 87 89  1  0
 89 90  1  0
 90 91  1  0
 90 92  1  0
 92 93  2  0
 92 94  1  0
 94 95  1  0
 95 96  1  0
 95 97  1  0
 97 98  2  0
 97 99  1  0
 99100  1  0
100101  1  0
100102  1  0
102103  2  0
102104  1  0
104105  1  0
105106  1  0
106107  1  0
106108  2  0
105109  1  0
109110  1  0
110111  1  0
 60  5  1  0
 14  9  1  0
111 11  1  0
  1112  1  0
  1113  1  0
  1114  1  0
  4115  1  0
  5116  1  1
  6117  1  0
  6118  1  0
  8119  1  0
  8120  1  0
 10121  1  0
 12122  1  0
 14123  1  0
 15124  1  0
 15125  1  0
 17126  1  0
 17127  1  0
 18128  1  1
 19129  1  0
 22130  1  1
 23131  1  0
 23132  1  0
 23133  1  0
 24134  1  0
 27135  1  6
 28136  1  0
 28137  1  0
 28138  1  0
 29139  1  0
 32140  1  6
 33141  1  0
 33142  1  0
 33143  1  0
 34144  1  0
 37145  1  1
 38146  1  0
 38147  1  0
 38148  1  0
 39149  1  0
 42150  1  6
 43151  1  0
 43152  1  0
 43153  1  0
 44154  1  0
 47155  1  6
 48156  1  0
 48157  1  0
 48158  1  0
 49159  1  0
 52160  1  6
 53161  1  0
 53162  1  0
 53163  1  0
 54164  1  0
 57165  1  6
 58166  1  0
 58167  1  0
 58168  1  0
 59169  1  0
 64170  1  0
 65171  1  6
 66172  1  0
 66173  1  0
 66174  1  0
 69175  1  0
 70176  1  6
 71177  1  0
 71178  1  0
 71179  1  0
 74180  1  0
 75181  1  6
 76182  1  0
 76183  1  0
 76184  1  0
 79185  1  0
 80186  1  6
 81187  1  0
 81188  1  0
 81189  1  0
 84190  1  0
 85191  1  6
 86192  1  0
 86193  1  0
 86194  1  0
 89195  1  0
 90196  1  6
 91197  1  0
 91198  1  0
 91199  1  0
 94200  1  0
 95201  1  6
 96202  1  0
 96203  1  0
 96204  1  0
 99205  1  0
100206  1  1
101207  1  0
101208  1  0
101209  1  0
104210  1  0
105211  1  1
107212  1  0
107213  1  0
109214  1  0
109215  1  0
111216  1  0
111217  1  0
M  END
