
     RDKit          3D

197199  0  0  0  0  0  0  0  0999 V2000
    3.9557   -8.3602   -1.3006 C   0  0  0  0  0  0  0  0  0  0  0  0
    4.2153   -6.8882   -1.3844 C   0  0  0  0  0  0  0  0  0  0  0  0
    4.6219   -6.4016   -2.4736 O   0  0  0  0  0  0  0  0  0  0  0  0
    4.0199   -6.0180   -0.2585 N   0  0  0  0  0  0  0  0  0  0  0  0
    3.6050   -6.4764    1.0720 C   0  0  2  0  0  0  0  0  0  0  0  0
    2.6810   -5.4272    1.7117 C   0  0  0  0  0  0  0  0  0  0  0  0
    1.1883   -5.1969    0.6945 S   0  0  0  0  0  0  0  0  0  0  0  0
    0.5248   -3.7859    1.6407 C   0  0  0  0  0  0  0  0  0  0  0  0
   -0.5122   -3.0910    0.8084 C   0  0  0  0  0  0  0  0  0  0  0  0
   -1.7825   -3.6605    0.6505 C   0  0  0  0  0  0  0  0  0  0  0  0
   -2.7105   -3.0981   -0.2380 C   0  0  0  0  0  0  0  0  0  0  0  0
   -2.3565   -1.9639   -0.9822 C   0  0  0  0  0  0  0  0  0  0  0  0
   -1.0984   -1.3624   -0.8097 C   0  0  0  0  0  0  0  0  0  0  0  0
   -0.1797   -1.9358    0.0875 C   0  0  0  0  0  0  0  0  0  0  0  0
   -0.6676   -0.2156   -1.6836 C   0  0  0  0  0  0  0  0  0  0  0  0
   -1.9374    1.0945   -1.8337 S   0  0  0  0  0  0  0  0  0  0  0  0
   -1.8812    1.7104   -0.1004 C   0  0  0  0  0  0  0  0  0  0  0  0
   -1.3807    3.1663   -0.0062 C   0  0  1  0  0  0  0  0  0  0  0  0
    0.0735    3.2213   -0.1993 N   0  0  0  0  0  0  0  0  0  0  0  0
    0.9140    4.0137    0.6487 C   0  0  0  0  0  0  0  0  0  0  0  0
    1.8276    3.4436    1.3034 O   0  0  0  0  0  0  0  0  0  0  0  0
    0.7651    5.5152    0.6928 C   0  0  1  0  0  0  0  0  0  0  0  0
    1.0196    6.0757    2.0947 C   0  0  0  0  0  0  0  0  0  0  0  0
    1.6305    6.1903   -0.2840 N   0  0  0  0  0  0  0  0  0  0  0  0
    3.0541    5.9743   -0.3713 C   0  0  0  0  0  0  0  0  0  0  0  0
    3.5095    4.7996   -0.3526 O   0  0  0  0  0  0  0  0  0  0  0  0
    4.0450    7.1153   -0.4522 C   0  0  1  0  0  0  0  0  0  0  0  0
    3.4238    8.4448   -0.9035 C   0  0  0  0  0  0  0  0  0  0  0  0
    4.6678    7.2918    0.8632 N   0  0  0  0  0  0  0  0  0  0  0  0
    6.0769    7.4783    1.0937 C   0  0  0  0  0  0  0  0  0  0  0  0
    6.4357    8.0633    2.1521 O   0  0  0  0  0  0  0  0  0  0  0  0
    7.1370    7.0001    0.1196 C   0  0  1  0  0  0  0  0  0  0  0  0
    7.4557    8.0938   -0.9002 C   0  0  0  0  0  0  0  0  0  0  0  0
    8.3714    6.6458    0.8350 N   0  0  0  0  0  0  0  0  0  0  0  0
    9.1156    5.4322    0.6446 C   0  0  0  0  0  0  0  0  0  0  0  0
    9.8397    5.0149    1.5924 O   0  0  0  0  0  0  0  0  0  0  0  0
    9.1371    4.6840   -0.6701 C   0  0  1  0  0  0  0  0  0  0  0  0
   10.5372    4.7878   -1.2930 C   0  0  0  0  0  0  0  0  0  0  0  0
    8.6911    3.3004   -0.4327 N   0  0  0  0  0  0  0  0  0  0  0  0
    9.4818    2.1153   -0.6297 C   0  0  0  0  0  0  0  0  0  0  0  0
   10.1310    1.9543   -1.7007 O   0  0  0  0  0  0  0  0  0  0  0  0
    9.4470    0.9888    0.3717 C   0  0  1  0  0  0  0  0  0  0  0  0
    9.3628    1.5035    1.8103 C   0  0  0  0  0  0  0  0  0  0  0  0
    8.3148    0.1096    0.0844 N   0  0  0  0  0  0  0  0  0  0  0  0
    8.4173   -1.3023    0.2795 C   0  0  0  0  0  0  0  0  0  0  0  0
    7.9736   -1.8039    1.3454 O   0  0  0  0  0  0  0  0  0  0  0  0
    8.9732   -2.2215   -0.7851 C   0  0  1  0  0  0  0  0  0  0  0  0
    9.5157   -1.4709   -2.0051 C   0  0  0  0  0  0  0  0  0  0  0  0
   10.0325   -3.0572   -0.2148 N   0  0  0  0  0  0  0  0  0  0  0  0
   10.0397   -4.4964   -0.1952 C   0  0  0  0  0  0  0  0  0  0  0  0
   11.1499   -5.0914   -0.0722 O   0  0  0  0  0  0  0  0  0  0  0  0
    8.7822   -5.3227   -0.3262 C   0  0  1  0  0  0  0  0  0  0  0  0
    8.5778   -5.7469   -1.7823 C   0  0  0  0  0  0  0  0  0  0  0  0
    8.8821   -6.5147    0.5208 N   0  0  0  0  0  0  0  0  0  0  0  0
    8.5881   -6.4876    1.9237 C   0  0  0  0  0  0  0  0  0  0  0  0
    9.5071   -6.7712    2.7395 O   0  0  0  0  0  0  0  0  0  0  0  0
    7.2141   -6.1576    2.4727 C   0  0  1  0  0  0  0  0  0  0  0  0
    7.1115   -4.6893    2.8732 C   0  0  0  0  0  0  0  0  0  0  0  0
    6.1436   -6.4920    1.5215 N   0  0  0  0  0  0  0  0  0  0  0  0
    4.8012   -6.7263    1.9651 C   0  0  0  0  0  0  0  0  0  0  0  0
    4.6030   -7.1537    3.1358 O   0  0  0  0  0  0  0  0  0  0  0  0
   -2.0890    4.0648   -0.9914 C   0  0  0  0  0  0  0  0  0  0  0  0
   -1.4590    4.5157   -1.9877 O   0  0  0  0  0  0  0  0  0  0  0  0
   -3.4966    4.3324   -0.8854 N   0  0  0  0  0  0  0  0  0  0  0  0
   -4.1268    5.1452    0.1671 C   0  0  2  0  0  0  0  0  0  0  0  0
   -3.1496    6.1232    0.8270 C   0  0  0  0  0  0  0  0  0  0  0  0
   -4.7834    4.2582    1.2067 C   0  0  0  0  0  0  0  0  0  0  0  0
   -4.0576    3.4740    1.8765 O   0  0  0  0  0  0  0  0  0  0  0  0
   -6.1993    4.2752    1.4753 N   0  0  0  0  0  0  0  0  0  0  0  0
   -7.1778    5.1478    0.8128 C   0  0  2  0  0  0  0  0  0  0  0  0
   -7.1081    6.5679    1.3809 C   0  0  0  0  0  0  0  0  0  0  0  0
   -8.5724    4.5864    0.9672 C   0  0  0  0  0  0  0  0  0  0  0  0
   -9.2105    4.7827    2.0372 O   0  0  0  0  0  0  0  0  0  0  0  0
   -9.2057    3.8626   -0.0973 N   0  0  0  0  0  0  0  0  0  0  0  0
   -8.5067    2.8629   -0.9117 C   0  0  2  0  0  0  0  0  0  0  0  0
   -9.4005    2.3681   -2.0483 C   0  0  0  0  0  0  0  0  0  0  0  0
   -7.9967    1.7085   -0.0630 C   0  0  0  0  0  0  0  0  0  0  0  0
   -6.7537    1.5187   -0.0133 O   0  0  0  0  0  0  0  0  0  0  0  0
   -8.8527    0.8030    0.6692 N   0  0  0  0  0  0  0  0  0  0  0  0
  -10.2132    1.0916    1.1316 C   0  0  2  0  0  0  0  0  0  0  0  0
  -10.1735    1.3470    2.6391 C   0  0  0  0  0  0  0  0  0  0  0  0
  -11.1792   -0.0345    0.8186 C   0  0  0  0  0  0  0  0  0  0  0  0
  -12.3792    0.0854    1.1972 O   0  0  0  0  0  0  0  0  0  0  0  0
  -10.7916   -1.2412    0.1481 N   0  0  0  0  0  0  0  0  0  0  0  0
  -10.1663   -1.2546   -1.1776 C   0  0  2  0  0  0  0  0  0  0  0  0
  -11.2382   -1.3758   -2.2648 C   0  0  0  0  0  0  0  0  0  0  0  0
   -9.1916   -2.3984   -1.2662 C   0  0  0  0  0  0  0  0  0  0  0  0
   -8.0358   -2.2095   -1.7254 O   0  0  0  0  0  0  0  0  0  0  0  0
   -9.5828   -3.7056   -0.8519 N   0  0  0  0  0  0  0  0  0  0  0  0
   -9.8452   -4.7495   -1.8347 C   0  0  2  0  0  0  0  0  0  0  0  0
  -10.9338   -5.6889   -1.3232 C   0  0  0  0  0  0  0  0  0  0  0  0
   -8.5725   -5.4938   -2.1265 C   0  0  0  0  0  0  0  0  0  0  0  0
   -8.1241   -5.5237   -3.3046 O   0  0  0  0  0  0  0  0  0  0  0  0
   -7.8601   -6.1647   -1.0806 N   0  0  0  0  0  0  0  0  0  0  0  0
   -6.5361   -5.7063   -0.6263 C   0  0  1  0  0  0  0  0  0  0  0  0
   -6.0336   -6.6211    0.4643 C   0  0  0  0  0  0  0  0  0  0  0  0
   -5.8515   -8.0129    0.2117 N   0  0  0  0  0  0  0  0  0  0  0  0
   -5.7681   -6.1578    1.6070 O   0  0  0  0  0  0  0  0  0  0  0  0
   -5.5345   -5.6319   -1.7959 C   0  0  0  0  0  0  0  0  0  0  0  0
   -3.7929   -5.3739   -1.2725 S   0  0  0  0  0  0  0  0  0  0  0  0
   -4.0381   -3.7603   -0.4551 C   0  0  0  0  0  0  0  0  0  0  0  0
    4.2029   -8.8476   -2.2688 H   0  0  0  0  0  0  0  0  0  0  0  0
    2.8861   -8.5406   -1.0774 H   0  0  0  0  0  0  0  0  0  0  0  0
    4.5874   -8.8090   -0.5053 H   0  0  0  0  0  0  0  0  0  0  0  0
    4.3068   -5.0166   -0.3699 H   0  0  0  0  0  0  0  0  0  0  0  0
    3.0346   -7.4232    0.9974 H   0  0  0  0  0  0  0  0  0  0  0  0
    3.2312   -4.4648    1.8049 H   0  0  0  0  0  0  0  0  0  0  0  0
    2.3683   -5.7538    2.7267 H   0  0  0  0  0  0  0  0  0  0  0  0
    0.0694   -4.1478    2.5894 H   0  0  0  0  0  0  0  0  0  0  0  0
    1.3446   -3.0847    1.9046 H   0  0  0  0  0  0  0  0  0  0  0  0
   -2.0381   -4.5693    1.1850 H   0  0  0  0  0  0  0  0  0  0  0  0
   -3.0530   -1.5607   -1.7047 H   0  0  0  0  0  0  0  0  0  0  0  0
    0.8134   -1.5131    0.1858 H   0  0  0  0  0  0  0  0  0  0  0  0
   -0.4606   -0.6115   -2.7021 H   0  0  0  0  0  0  0  0  0  0  0  0
    0.2763    0.2375   -1.3117 H   0  0  0  0  0  0  0  0  0  0  0  0
   -1.2531    1.0613    0.5444 H   0  0  0  0  0  0  0  0  0  0  0  0
   -2.9155    1.6555    0.3047 H   0  0  0  0  0  0  0  0  0  0  0  0
   -1.6044    3.5193    1.0233 H   0  0  0  0  0  0  0  0  0  0  0  0
    0.5458    2.4521   -0.7319 H   0  0  0  0  0  0  0  0  0  0  0  0
   -0.2881    5.7601    0.4375 H   0  0  0  0  0  0  0  0  0  0  0  0
    0.3328    5.5991    2.8306 H   0  0  0  0  0  0  0  0  0  0  0  0
    2.0702    5.8984    2.4148 H   0  0  0  0  0  0  0  0  0  0  0  0
    0.8280    7.1739    2.0974 H   0  0  0  0  0  0  0  0  0  0  0  0
    1.2299    7.0395   -0.7347 H   0  0  0  0  0  0  0  0  0  0  0  0
    4.7961    6.8342   -1.2156 H   0  0  0  0  0  0  0  0  0  0  0  0
    2.9267    8.3269   -1.8950 H   0  0  0  0  0  0  0  0  0  0  0  0
    4.2330    9.2055   -1.0088 H   0  0  0  0  0  0  0  0  0  0  0  0
    2.6925    8.8176   -0.1526 H   0  0  0  0  0  0  0  0  0  0  0  0
    4.0302    7.4937    1.6646 H   0  0  0  0  0  0  0  0  0  0  0  0
    6.7413    6.1058   -0.4045 H   0  0  0  0  0  0  0  0  0  0  0  0
    6.5549    8.3718   -1.4812 H   0  0  0  0  0  0  0  0  0  0  0  0
    7.8387    9.0043   -0.3860 H   0  0  0  0  0  0  0  0  0  0  0  0
    8.2282    7.7401   -1.6134 H   0  0  0  0  0  0  0  0  0  0  0  0
    8.7420    7.3150    1.5460 H   0  0  0  0  0  0  0  0  0  0  0  0
    8.4408    5.1498   -1.3953 H   0  0  0  0  0  0  0  0  0  0  0  0
   10.8384    5.8545   -1.3861 H   0  0  0  0  0  0  0  0  0  0  0  0
   11.2968    4.2601   -0.6676 H   0  0  0  0  0  0  0  0  0  0  0  0
   10.5314    4.3551   -2.3161 H   0  0  0  0  0  0  0  0  0  0  0  0
    7.7522    3.1771    0.0084 H   0  0  0  0  0  0  0  0  0  0  0  0
   10.3974    0.4139    0.2867 H   0  0  0  0  0  0  0  0  0  0  0  0
    9.4380    0.6515    2.5205 H   0  0  0  0  0  0  0  0  0  0  0  0
   10.1970    2.2047    2.0176 H   0  0  0  0  0  0  0  0  0  0  0  0
    8.3971    2.0218    2.0021 H   0  0  0  0  0  0  0  0  0  0  0  0
    7.3544    0.5213    0.1129 H   0  0  0  0  0  0  0  0  0  0  0  0
    8.1305   -2.8425   -1.1486 H   0  0  0  0  0  0  0  0  0  0  0  0
   10.3941   -0.8500   -1.7309 H   0  0  0  0  0  0  0  0  0  0  0  0
    8.7289   -0.8210   -2.4440 H   0  0  0  0  0  0  0  0  0  0  0  0
    9.8363   -2.2022   -2.7767 H   0  0  0  0  0  0  0  0  0  0  0  0
   10.9018   -2.5742    0.1101 H   0  0  0  0  0  0  0  0  0  0  0  0
    7.8974   -4.7310   -0.0155 H   0  0  0  0  0  0  0  0  0  0  0  0
    9.4465   -6.3449   -2.1432 H   0  0  0  0  0  0  0  0  0  0  0  0
    8.4596   -4.8600   -2.4377 H   0  0  0  0  0  0  0  0  0  0  0  0
    7.6621   -6.3699   -1.8642 H   0  0  0  0  0  0  0  0  0  0  0  0
    9.5284   -7.2756    0.2011 H   0  0  0  0  0  0  0  0  0  0  0  0
    7.0856   -6.7683    3.3922 H   0  0  0  0  0  0  0  0  0  0  0  0
    6.1729   -4.5187    3.4422 H   0  0  0  0  0  0  0  0  0  0  0  0
    7.0822   -4.0398    1.9741 H   0  0  0  0  0  0  0  0  0  0  0  0
    7.9700   -4.3883    3.5207 H   0  0  0  0  0  0  0  0  0  0  0  0
    6.3416   -6.4640    0.4958 H   0  0  0  0  0  0  0  0  0  0  0  0
   -4.0403    4.2394   -1.7732 H   0  0  0  0  0  0  0  0  0  0  0  0
   -4.8807    5.7759   -0.3340 H   0  0  0  0  0  0  0  0  0  0  0  0
   -2.5848    6.6923    0.0572 H   0  0  0  0  0  0  0  0  0  0  0  0
   -3.7146    6.8532    1.4444 H   0  0  0  0  0  0  0  0  0  0  0  0
   -2.4363    5.6019    1.4980 H   0  0  0  0  0  0  0  0  0  0  0  0
   -6.5444    3.6015    2.1959 H   0  0  0  0  0  0  0  0  0  0  0  0
   -6.9611    5.1937   -0.2720 H   0  0  0  0  0  0  0  0  0  0  0  0
   -6.1270    7.0335    1.1726 H   0  0  0  0  0  0  0  0  0  0  0  0
   -7.8859    7.2075    0.9166 H   0  0  0  0  0  0  0  0  0  0  0  0
   -7.2610    6.5560    2.4833 H   0  0  0  0  0  0  0  0  0  0  0  0
  -10.2290    4.0268   -0.2387 H   0  0  0  0  0  0  0  0  0  0  0  0
   -7.6397    3.3494   -1.3990 H   0  0  0  0  0  0  0  0  0  0  0  0
   -9.6487    3.2134   -2.7238 H   0  0  0  0  0  0  0  0  0  0  0  0
   -8.8657    1.5930   -2.6396 H   0  0  0  0  0  0  0  0  0  0  0  0
  -10.3517    1.9419   -1.6671 H   0  0  0  0  0  0  0  0  0  0  0  0
   -8.4038   -0.0580    1.0560 H   0  0  0  0  0  0  0  0  0  0  0  0
  -10.6147    1.9929    0.6432 H   0  0  0  0  0  0  0  0  0  0  0  0
   -9.9469    0.4060    3.1819 H   0  0  0  0  0  0  0  0  0  0  0  0
  -11.1463    1.7476    2.9937 H   0  0  0  0  0  0  0  0  0  0  0  0
   -9.3847    2.0881    2.8857 H   0  0  0  0  0  0  0  0  0  0  0  0
  -11.3054   -2.1051    0.4329 H   0  0  0  0  0  0  0  0  0  0  0  0
   -9.6170   -0.3209   -1.3664 H   0  0  0  0  0  0  0  0  0  0  0  0
  -11.9155   -0.4954   -2.2298 H   0  0  0  0  0  0  0  0  0  0  0  0
  -11.8424   -2.2977   -2.1354 H   0  0  0  0  0  0  0  0  0  0  0  0
  -10.7569   -1.4009   -3.2687 H   0  0  0  0  0  0  0  0  0  0  0  0
   -9.4227   -3.9671    0.1439 H   0  0  0  0  0  0  0  0  0  0  0  0
  -10.2247   -4.2889   -2.7717 H   0  0  0  0  0  0  0  0  0  0  0  0
  -11.1059   -6.5116   -2.0523 H   0  0  0  0  0  0  0  0  0  0  0  0
  -11.8827   -5.1243   -1.1963 H   0  0  0  0  0  0  0  0  0  0  0  0
  -10.6668   -6.1220   -0.3316 H   0  0  0  0  0  0  0  0  0  0  0  0
   -8.4108   -6.7749   -0.4352 H   0  0  0  0  0  0  0  0  0  0  0  0
   -6.6597   -4.6802   -0.2075 H   0  0  0  0  0  0  0  0  0  0  0  0
   -6.1375   -8.4186   -0.7021 H   0  0  0  0  0  0  0  0  0  0  0  0
   -5.4394   -8.6315    0.9455 H   0  0  0  0  0  0  0  0  0  0  0  0
   -5.8178   -4.7998   -2.4787 H   0  0  0  0  0  0  0  0  0  0  0  0
   -5.5724   -6.5740   -2.3797 H   0  0  0  0  0  0  0  0  0  0  0  0
   -4.7043   -3.1198   -1.0698 H   0  0  0  0  0  0  0  0  0  0  0  0
   -4.5258   -3.9105    0.5276 H   0  0  0  0  0  0  0  0  0  0  0  0
  1  2  1  0
  2  3  2  0
  2  4  1  0
  4  5  1  0
  5  6  1  0
  6  7  1  0
  7  8  1  0
  8  9  1  0
  9 10  2  0
 10 11  1  0
 11 12  2  0
 12 13  1  0
 13 14  2  0
 13 15  1  0
 15 16  1  0
 16 17  1  0
 17 18  1  0
 18 19  1  0
 19 20  1  0
 20 21  2  0
 20 22  1  0
 22 23  1  0
 22 24  1  0
 24 25  1  0
 25 26  2  0
 25 27  1  0
 27 28  1  0
 27 29  1  0
 29 30  1  0
 30 31  2  0
 30 32  1  0
 32 33  1  0
 32 34  1  0
 34 35  1  0
 35 36  2  0
 35 37  1  0
 37 38  1  0
 37 39  1  0
 39 40  1  0
 40 41  2  0
 40 42  1  0
 42 43  1  0
 42 44  1  0
 44 45  1  0
 45 46  2  0
 45 47  1  0
 47 48  1  0
 47 49  1  0
 49 50  1  0
 50 51  2  0
 50 52  1  0
 52 53  1  0
 52 54  1  0
 54 55  1  0
 55 56  2  0
 55 57  1  0
 57 58  1  0
 57 59  1  0
 59 60  1  0
 60 61  2  0
 18 62  1  0
 62 63  2  0
 62 64  1  0
 64 65  1  0
 65 66  1  0
 65 67  1  0
 67 68  2  0
 67 69  1  0
 69 70  1  0
 70 71  1  0
 70 72  1  0
 72 73  2  0
 72 74  1  0
 74 75  1  0
 75 76  1  0
 75 77  1  0
 77 78  2  0
 77 79  1  0
 79 80  1  0
 80 81  1  0
 80 82  1  0
 82 83  2  0
 82 84  1  0
 84 85  1  0
 85 86  1  0
 85 87  1  0
 87 88  2  0
 87 89  1  0
 89 90  1  0
 90 91  1  0
 90 92  1  0
 92 93  2  0
 92 94  1  0
 94 95  1  0
 95 96  1  0
 96 97  1  0
 96 98  2  0
 95 99  1  0
 99100  1  0
100101  1  0
 60  5  1  0
 14  9  1  0
101 11  1  0
  1102  1  0
  1103  1  0
  1104  1  0
  4105  1  0
  5106  1  6
  6107  1  0
  6108  1  0
  8109  1  0
  8110  1  0
 10111  1  0
 12112  1  0
 14113  1  0
 15114  1  0
 15115  1  0
 17116  1  0
 17117  1  0
 18118  1  1
 19119  1  0
 22120  1  6
 23121  1  0
 23122  1  0
 23123  1  0
 24124  1  0
 27125  1  6
 28126  1  0
 28127  1  0
 28128  1  0
 29129  1  0
 32130  1  6
 33131  1  0
 33132  1  0
 33133  1  0
 34134  1  0
 37135  1  6
 38136  1  0
 38137  1  0
 38138  1  0
 39139  1  0
 42140  1  1
 43141  1  0
 43142  1  0
 43143  1  0
 44144  1  0
 47145  1  6
 48146  1  0
 48147  1  0
 48148  1  0
 49149  1  0
 52150  1  1
 53151  1  0
 53152  1  0
 53153  1  0
 54154  1  0
 57155  1  1
 58156  1  0
 58157  1  0
 58158  1  0
 59159  1  0
 64160  1  0
 65161  1  6
 66162  1  0
 66163  1  0
 66164  1  0
 69165  1  0
 70166  1  6
 71167  1  0
 71168  1  0
 71169  1  0
 74170  1  0
 75171  1  6
 76172  1  0
 76173  1  0
 76174  1  0
 79175  1  0
 80176  1  6
 81177  1  0
 81178  1  0
 81179  1  0
 84180  1  0
 85181  1  6
 86182  1  0
 86183  1  0
 86184  1  0
 89185  1  0
 90186  1  6
 91187  1  0
 91188  1  0
 91189  1  0
 94190  1  0
 95191  1  1
 97192  1  0
 97193  1  0
 99194  1  0
 99195  1  0
101196  1  0
101197  1  0
M  END
