
     RDKit          3D

197199  0  0  0  0  0  0  0  0999 V2000
   -4.7071    3.8045    5.6532 C   0  0  0  0  0  0  0  0  0  0  0  0
   -4.6794    4.5222    4.3421 C   0  0  0  0  0  0  0  0  0  0  0  0
   -4.3136    5.7278    4.3112 O   0  0  0  0  0  0  0  0  0  0  0  0
   -5.0578    3.8463    3.1313 N   0  0  0  0  0  0  0  0  0  0  0  0
   -5.0669    4.4993    1.8185 C   0  0  1  0  0  0  0  0  0  0  0  0
   -4.1409    3.7547    0.8488 C   0  0  0  0  0  0  0  0  0  0  0  0
   -2.4001    3.9802    1.3673 S   0  0  0  0  0  0  0  0  0  0  0  0
   -1.7215    2.8540    0.1034 C   0  0  0  0  0  0  0  0  0  0  0  0
   -0.2440    2.7004    0.3210 C   0  0  0  0  0  0  0  0  0  0  0  0
    0.6257    3.7635    0.0329 C   0  0  0  0  0  0  0  0  0  0  0  0
    2.0076    3.6339    0.2348 C   0  0  0  0  0  0  0  0  0  0  0  0
    2.5145    2.4336    0.7534 C   0  0  0  0  0  0  0  0  0  0  0  0
    1.6584    1.3652    1.0721 C   0  0  0  0  0  0  0  0  0  0  0  0
    0.2791    1.4946    0.8055 C   0  0  0  0  0  0  0  0  0  0  0  0
    2.2694    0.0871    1.5946 C   0  0  0  0  0  0  0  0  0  0  0  0
    1.0795   -1.0045    2.4697 S   0  0  0  0  0  0  0  0  0  0  0  0
    0.7795   -2.1474    1.0671 C   0  0  0  0  0  0  0  0  0  0  0  0
    1.8685   -3.2396    1.0511 C   0  0  1  0  0  0  0  0  0  0  0  0
    1.7763   -4.1099    2.2332 N   0  0  0  0  0  0  0  0  0  0  0  0
    0.6354   -4.8974    2.6315 C   0  0  0  0  0  0  0  0  0  0  0  0
    0.5160   -5.2138    3.8483 O   0  0  0  0  0  0  0  0  0  0  0  0
   -0.3454   -5.4733    1.6365 C   0  0  1  0  0  0  0  0  0  0  0  0
    0.1428   -6.8617    1.1971 C   0  0  0  0  0  0  0  0  0  0  0  0
   -1.6921   -5.5044    2.2192 N   0  0  0  0  0  0  0  0  0  0  0  0
   -2.6748   -6.4788    1.8433 C   0  0  0  0  0  0  0  0  0  0  0  0
   -2.5420   -7.6766    2.2116 O   0  0  0  0  0  0  0  0  0  0  0  0
   -3.8791   -6.0559    1.0494 C   0  0  1  0  0  0  0  0  0  0  0  0
   -4.1340   -7.0416   -0.0943 C   0  0  0  0  0  0  0  0  0  0  0  0
   -5.0481   -5.9835    1.9287 N   0  0  0  0  0  0  0  0  0  0  0  0
   -5.7078   -4.7522    2.2521 C   0  0  0  0  0  0  0  0  0  0  0  0
   -5.8806   -4.4579    3.4647 O   0  0  0  0  0  0  0  0  0  0  0  0
   -6.2660   -3.8252    1.1957 C   0  0  1  0  0  0  0  0  0  0  0  0
   -5.3068   -2.6674    0.8927 C   0  0  0  0  0  0  0  0  0  0  0  0
   -6.6208   -4.5533   -0.0265 N   0  0  0  0  0  0  0  0  0  0  0  0
   -7.6857   -5.5107   -0.0355 C   0  0  0  0  0  0  0  0  0  0  0  0
   -7.4881   -6.6670    0.4311 O   0  0  0  0  0  0  0  0  0  0  0  0
   -9.0474   -5.1516   -0.5623 C   0  0  1  0  0  0  0  0  0  0  0  0
   -9.9692   -4.7798    0.6088 C   0  0  0  0  0  0  0  0  0  0  0  0
   -8.9350   -4.0916   -1.5735 N   0  0  0  0  0  0  0  0  0  0  0  0
   -9.6324   -2.8434   -1.5110 C   0  0  0  0  0  0  0  0  0  0  0  0
  -10.8804   -2.8276   -1.6993 O   0  0  0  0  0  0  0  0  0  0  0  0
   -8.8604   -1.5691   -1.2599 C   0  0  1  0  0  0  0  0  0  0  0  0
   -7.8851   -1.3024   -2.4138 C   0  0  0  0  0  0  0  0  0  0  0  0
   -9.7523   -0.4118   -1.0801 N   0  0  0  0  0  0  0  0  0  0  0  0
   -9.2310    0.8871   -0.7624 C   0  0  0  0  0  0  0  0  0  0  0  0
   -8.3899    1.0061    0.1692 O   0  0  0  0  0  0  0  0  0  0  0  0
   -9.5826    2.1011   -1.5940 C   0  0  1  0  0  0  0  0  0  0  0  0
  -10.5793    1.7878   -2.7200 C   0  0  0  0  0  0  0  0  0  0  0  0
  -10.1269    3.1647   -0.7468 N   0  0  0  0  0  0  0  0  0  0  0  0
  -10.1436    4.5482   -1.1531 C   0  0  0  0  0  0  0  0  0  0  0  0
  -11.1648    5.2419   -0.8956 O   0  0  0  0  0  0  0  0  0  0  0  0
   -8.9762    5.1889   -1.8716 C   0  0  1  0  0  0  0  0  0  0  0  0
   -9.0976    5.0308   -3.3914 C   0  0  0  0  0  0  0  0  0  0  0  0
   -8.9197    6.6247   -1.5541 N   0  0  0  0  0  0  0  0  0  0  0  0
   -7.8883    7.2829   -0.7994 C   0  0  0  0  0  0  0  0  0  0  0  0
   -8.0268    8.5127   -0.5444 O   0  0  0  0  0  0  0  0  0  0  0  0
   -6.6869    6.5431   -0.2445 C   0  0  1  0  0  0  0  0  0  0  0  0
   -5.5486    7.5082    0.1202 C   0  0  0  0  0  0  0  0  0  0  0  0
   -7.0996    5.7661    0.9289 N   0  0  0  0  0  0  0  0  0  0  0  0
   -6.4744    4.5280    1.2882 C   0  0  0  0  0  0  0  0  0  0  0  0
   -7.1383    3.4609    1.2152 O   0  0  0  0  0  0  0  0  0  0  0  0
    1.9367   -4.0455   -0.2215 C   0  0  0  0  0  0  0  0  0  0  0  0
    1.0016   -4.0063   -1.0618 O   0  0  0  0  0  0  0  0  0  0  0  0
    3.0935   -4.8389   -0.5020 N   0  0  0  0  0  0  0  0  0  0  0  0
    4.3249   -4.1968   -0.9645 C   0  0  2  0  0  0  0  0  0  0  0  0
    4.1739   -3.8357   -2.4483 C   0  0  0  0  0  0  0  0  0  0  0  0
    5.5107   -5.1260   -0.7771 C   0  0  0  0  0  0  0  0  0  0  0  0
    5.5280   -6.1987   -1.4334 O   0  0  0  0  0  0  0  0  0  0  0  0
    6.6411   -4.8235    0.0630 N   0  0  0  0  0  0  0  0  0  0  0  0
    6.7686   -3.7924    1.1077 C   0  0  2  0  0  0  0  0  0  0  0  0
    5.7065   -3.9699    2.1959 C   0  0  0  0  0  0  0  0  0  0  0  0
    6.8240   -2.3827    0.5573 C   0  0  0  0  0  0  0  0  0  0  0  0
    6.8189   -1.4061    1.3547 O   0  0  0  0  0  0  0  0  0  0  0  0
    6.9836   -2.1322   -0.8429 N   0  0  0  0  0  0  0  0  0  0  0  0
    8.2670   -1.7035   -1.3948 C   0  0  2  0  0  0  0  0  0  0  0  0
    8.1072   -1.2943   -2.8646 C   0  0  0  0  0  0  0  0  0  0  0  0
    9.2728   -2.8213   -1.2815 C   0  0  0  0  0  0  0  0  0  0  0  0
    8.9705   -3.9615   -1.7247 O   0  0  0  0  0  0  0  0  0  0  0  0
   10.5511   -2.6330   -0.6619 N   0  0  0  0  0  0  0  0  0  0  0  0
   11.3512   -1.4166   -0.8491 C   0  0  2  0  0  0  0  0  0  0  0  0
   12.8440   -1.7516   -0.7540 C   0  0  0  0  0  0  0  0  0  0  0  0
   11.0124   -0.3858    0.2032 C   0  0  0  0  0  0  0  0  0  0  0  0
   10.8729   -0.7683    1.3964 O   0  0  0  0  0  0  0  0  0  0  0  0
   10.9418    1.0245   -0.0829 N   0  0  0  0  0  0  0  0  0  0  0  0
   10.7189    1.6074   -1.4144 C   0  0  2  0  0  0  0  0  0  0  0  0
   12.0634    1.8595   -2.1011 C   0  0  0  0  0  0  0  0  0  0  0  0
    9.9144    2.8855   -1.3339 C   0  0  0  0  0  0  0  0  0  0  0  0
    9.6466    3.5163   -2.3961 O   0  0  0  0  0  0  0  0  0  0  0  0
    9.4007    3.3788   -0.0886 N   0  0  0  0  0  0  0  0  0  0  0  0
    8.0181    3.1738    0.3568 C   0  0  2  0  0  0  0  0  0  0  0  0
    7.9819    2.1064    1.4561 C   0  0  0  0  0  0  0  0  0  0  0  0
    7.1066    2.8080   -0.8018 C   0  0  0  0  0  0  0  0  0  0  0  0
    6.9651    1.5980   -1.1205 O   0  0  0  0  0  0  0  0  0  0  0  0
    6.4856    3.8086   -1.6251 N   0  0  0  0  0  0  0  0  0  0  0  0
    6.1377    5.1570   -1.1637 C   0  0  1  0  0  0  0  0  0  0  0  0
    7.2917    6.0921   -1.4228 C   0  0  0  0  0  0  0  0  0  0  0  0
    7.8497    6.8643   -0.3577 N   0  0  0  0  0  0  0  0  0  0  0  0
    7.7705    6.1994   -2.5835 O   0  0  0  0  0  0  0  0  0  0  0  0
    4.8708    5.6644   -1.8793 C   0  0  0  0  0  0  0  0  0  0  0  0
    3.5224    4.4252   -1.8644 S   0  0  0  0  0  0  0  0  0  0  0  0
    2.9481    4.7351   -0.1622 C   0  0  0  0  0  0  0  0  0  0  0  0
   -3.6855    3.7859    6.0890 H   0  0  0  0  0  0  0  0  0  0  0  0
   -5.3882    4.3406    6.3454 H   0  0  0  0  0  0  0  0  0  0  0  0
   -5.0677    2.7637    5.5285 H   0  0  0  0  0  0  0  0  0  0  0  0
   -5.3384    2.8365    3.1866 H   0  0  0  0  0  0  0  0  0  0  0  0
   -4.7032    5.5407    1.9162 H   0  0  0  0  0  0  0  0  0  0  0  0
   -4.2650    4.1601   -0.1803 H   0  0  0  0  0  0  0  0  0  0  0  0
   -4.3949    2.6714    0.8420 H   0  0  0  0  0  0  0  0  0  0  0  0
   -2.2315    1.8690    0.1831 H   0  0  0  0  0  0  0  0  0  0  0  0
   -1.9164    3.2616   -0.9114 H   0  0  0  0  0  0  0  0  0  0  0  0
    0.2271    4.6861   -0.3732 H   0  0  0  0  0  0  0  0  0  0  0  0
    3.5843    2.3202    0.8902 H   0  0  0  0  0  0  0  0  0  0  0  0
   -0.3938    0.6708    0.9805 H   0  0  0  0  0  0  0  0  0  0  0  0
    3.0601    0.3421    2.3324 H   0  0  0  0  0  0  0  0  0  0  0  0
    2.7784   -0.4303    0.7564 H   0  0  0  0  0  0  0  0  0  0  0  0
   -0.2240   -2.5953    1.1897 H   0  0  0  0  0  0  0  0  0  0  0  0
    0.7809   -1.5834    0.1110 H   0  0  0  0  0  0  0  0  0  0  0  0
    2.8318   -2.6980    1.1080 H   0  0  0  0  0  0  0  0  0  0  0  0
    2.5482   -4.0262    2.9345 H   0  0  0  0  0  0  0  0  0  0  0  0
   -0.4012   -4.8324    0.7423 H   0  0  0  0  0  0  0  0  0  0  0  0
    1.1770   -6.7972    0.8006 H   0  0  0  0  0  0  0  0  0  0  0  0
   -0.5031   -7.2593    0.3898 H   0  0  0  0  0  0  0  0  0  0  0  0
    0.1388   -7.5692    2.0523 H   0  0  0  0  0  0  0  0  0  0  0  0
   -2.0586   -4.5994    2.5945 H   0  0  0  0  0  0  0  0  0  0  0  0
   -3.6625   -5.0687    0.5976 H   0  0  0  0  0  0  0  0  0  0  0  0
   -4.9601   -6.6699   -0.7365 H   0  0  0  0  0  0  0  0  0  0  0  0
   -4.4097   -8.0456    0.2949 H   0  0  0  0  0  0  0  0  0  0  0  0
   -3.2232   -7.1322   -0.7292 H   0  0  0  0  0  0  0  0  0  0  0  0
   -5.2593   -6.8124    2.5265 H   0  0  0  0  0  0  0  0  0  0  0  0
   -7.1932   -3.3733    1.6081 H   0  0  0  0  0  0  0  0  0  0  0  0
   -5.8273   -1.9077    0.2681 H   0  0  0  0  0  0  0  0  0  0  0  0
   -4.9749   -2.1732    1.8322 H   0  0  0  0  0  0  0  0  0  0  0  0
   -4.4098   -3.0071    0.3343 H   0  0  0  0  0  0  0  0  0  0  0  0
   -6.2602   -4.2166   -0.9478 H   0  0  0  0  0  0  0  0  0  0  0  0
   -9.4785   -6.0497   -1.0598 H   0  0  0  0  0  0  0  0  0  0  0  0
  -10.0289   -5.6218    1.3290 H   0  0  0  0  0  0  0  0  0  0  0  0
   -9.5897   -3.8824    1.1406 H   0  0  0  0  0  0  0  0  0  0  0  0
  -10.9975   -4.5817    0.2396 H   0  0  0  0  0  0  0  0  0  0  0  0
   -8.3143   -4.2596   -2.3962 H   0  0  0  0  0  0  0  0  0  0  0  0
   -8.2768   -1.7182   -0.3234 H   0  0  0  0  0  0  0  0  0  0  0  0
   -8.4440   -1.1510   -3.3622 H   0  0  0  0  0  0  0  0  0  0  0  0
   -7.1810   -2.1518   -2.5353 H   0  0  0  0  0  0  0  0  0  0  0  0
   -7.2804   -0.3946   -2.2077 H   0  0  0  0  0  0  0  0  0  0  0  0
  -10.7636   -0.4808   -1.3292 H   0  0  0  0  0  0  0  0  0  0  0  0
   -8.6319    2.4378   -2.0561 H   0  0  0  0  0  0  0  0  0  0  0  0
  -10.7902    2.6957   -3.3179 H   0  0  0  0  0  0  0  0  0  0  0  0
  -11.5490    1.4401   -2.3000 H   0  0  0  0  0  0  0  0  0  0  0  0
  -10.1658    1.0106   -3.3970 H   0  0  0  0  0  0  0  0  0  0  0  0
  -10.8259    2.8874   -0.0130 H   0  0  0  0  0  0  0  0  0  0  0  0
   -8.0502    4.6791   -1.5440 H   0  0  0  0  0  0  0  0  0  0  0  0
   -8.3742    5.7025   -3.9027 H   0  0  0  0  0  0  0  0  0  0  0  0
   -8.8491    3.9939   -3.7046 H   0  0  0  0  0  0  0  0  0  0  0  0
  -10.1236    5.2855   -3.7439 H   0  0  0  0  0  0  0  0  0  0  0  0
   -9.7089    7.2199   -1.8956 H   0  0  0  0  0  0  0  0  0  0  0  0
   -6.2901    5.8681   -1.0310 H   0  0  0  0  0  0  0  0  0  0  0  0
   -4.5890    6.9610    0.2175 H   0  0  0  0  0  0  0  0  0  0  0  0
   -5.7739    8.0401    1.0684 H   0  0  0  0  0  0  0  0  0  0  0  0
   -5.4015    8.2596   -0.6859 H   0  0  0  0  0  0  0  0  0  0  0  0
   -8.0531    5.9307    1.3281 H   0  0  0  0  0  0  0  0  0  0  0  0
    2.9159   -5.8174   -0.8134 H   0  0  0  0  0  0  0  0  0  0  0  0
    4.4832   -3.2586   -0.4048 H   0  0  0  0  0  0  0  0  0  0  0  0
    5.1338   -3.4699   -2.8705 H   0  0  0  0  0  0  0  0  0  0  0  0
    3.8526   -4.7238   -3.0351 H   0  0  0  0  0  0  0  0  0  0  0  0
    3.4091   -3.0395   -2.5745 H   0  0  0  0  0  0  0  0  0  0  0  0
    7.4436   -5.4904   -0.0045 H   0  0  0  0  0  0  0  0  0  0  0  0
    7.7457   -3.9511    1.6113 H   0  0  0  0  0  0  0  0  0  0  0  0
    4.6995   -3.7042    1.8302 H   0  0  0  0  0  0  0  0  0  0  0  0
    5.6822   -5.0254    2.5437 H   0  0  0  0  0  0  0  0  0  0  0  0
    5.9380   -3.3247    3.0725 H   0  0  0  0  0  0  0  0  0  0  0  0
    6.1153   -1.9803   -1.4026 H   0  0  0  0  0  0  0  0  0  0  0  0
    8.6114   -0.8175   -0.8266 H   0  0  0  0  0  0  0  0  0  0  0  0
    7.7479   -2.1552   -3.4695 H   0  0  0  0  0  0  0  0  0  0  0  0
    7.3720   -0.4645   -2.9525 H   0  0  0  0  0  0  0  0  0  0  0  0
    9.0753   -0.9447   -3.2757 H   0  0  0  0  0  0  0  0  0  0  0  0
   11.0194   -3.4926   -0.2960 H   0  0  0  0  0  0  0  0  0  0  0  0
   11.1779   -1.0293   -1.8731 H   0  0  0  0  0  0  0  0  0  0  0  0
   13.4568   -0.8376   -0.8935 H   0  0  0  0  0  0  0  0  0  0  0  0
   13.0877   -2.1989    0.2377 H   0  0  0  0  0  0  0  0  0  0  0  0
   13.1161   -2.4764   -1.5479 H   0  0  0  0  0  0  0  0  0  0  0  0
   11.1327    1.6679    0.7178 H   0  0  0  0  0  0  0  0  0  0  0  0
   10.1219    0.9127   -2.0359 H   0  0  0  0  0  0  0  0  0  0  0  0
   12.5915    0.8995   -2.2760 H   0  0  0  0  0  0  0  0  0  0  0  0
   11.9171    2.3396   -3.0945 H   0  0  0  0  0  0  0  0  0  0  0  0
   12.7100    2.5119   -1.4731 H   0  0  0  0  0  0  0  0  0  0  0  0
   10.0870    3.7560    0.6033 H   0  0  0  0  0  0  0  0  0  0  0  0
    7.6736    4.1159    0.8275 H   0  0  0  0  0  0  0  0  0  0  0  0
    6.9434    1.9781    1.8240 H   0  0  0  0  0  0  0  0  0  0  0  0
    8.6216    2.4198    2.3073 H   0  0  0  0  0  0  0  0  0  0  0  0
    8.3572    1.1341    1.0727 H   0  0  0  0  0  0  0  0  0  0  0  0
    6.2758    3.5543   -2.6176 H   0  0  0  0  0  0  0  0  0  0  0  0
    5.9237    5.1310   -0.0803 H   0  0  0  0  0  0  0  0  0  0  0  0
    8.6453    7.5172   -0.5435 H   0  0  0  0  0  0  0  0  0  0  0  0
    7.5030    6.7679    0.6229 H   0  0  0  0  0  0  0  0  0  0  0  0
    5.1064    5.8574   -2.9507 H   0  0  0  0  0  0  0  0  0  0  0  0
    4.5213    6.6193   -1.4290 H   0  0  0  0  0  0  0  0  0  0  0  0
    3.7970    4.7634    0.5514 H   0  0  0  0  0  0  0  0  0  0  0  0
    2.4359    5.7200   -0.1172 H   0  0  0  0  0  0  0  0  0  0  0  0
  1  2  1  0
  2  3  2  0
  2  4  1  0
  4  5  1  0
  5  6  1  0
  6  7  1  0
  7  8  1  0
  8  9  1  0
  9 10  2  0
 10 11  1  0
 11 12  2  0
 12 13  1  0
 13 14  2  0
 13 15  1  0
 15 16  1  0
 16 17  1  0
 17 18  1  0
 18 19  1  0
 19 20  1  0
 20 21  2  0
 20 22  1  0
 22 23  1  0
 22 24  1  0
 24 25  1  0
 25 26  2  0
 25 27  1  0
 27 28  1  0
 27 29  1  0
 29 30  1  0
 30 31  2  0
 30 32  1  0
 32 33  1  0
 32 34  1  0
 34 35  1  0
 35 36  2  0
 35 37  1  0
 37 38  1  0
 37 39  1  0
 39 40  1  0
 40 41  2  0
 40 42  1  0
 42 43  1  0
 42 44  1  0
 44 45  1  0
 45 46  2  0
 45 47  1  0
 47 48  1  0
 47 49  1  0
 49 50  1  0
 50 51  2  0
 50 52  1  0
 52 53  1  0
 52 54  1  0
 54 55  1  0
 55 56  2  0
 55 57  1  0
 57 58  1  0
 57 59  1  0
 59 60  1  0
 60 61  2  0
 18 62  1  0
 62 63  2  0
 62 64  1  0
 64 65  1  0
 65 66  1  0
 65 67  1  0
 67 68  2  0
 67 69  1  0
 69 70  1  0
 70 71  1  0
 70 72  1  0
 72 73  2  0
 72 74  1  0
 74 75  1  0
 75 76  1  0
 75 77  1  0
 77 78  2  0
 77 79  1  0
 79 80  1  0
 80 81  1  0
 80 82  1  0
 82 83  2  0
 82 84  1  0
 84 85  1  0
 85 86  1  0
 85 87  1  0
 87 88  2  0
 87 89  1  0
 89 90  1  0
 90 91  1  0
 90 92  1  0
 92 93  2  0
 92 94  1  0
 94 95  1  0
 95 96  1  0
 96 97  1  0
 96 98  2  0
 95 99  1  0
 99100  1  0
100101  1  0
 60  5  1  0
 14  9  1  0
101 11  1  0
  1102  1  0
  1103  1  0
  1104  1  0
  4105  1  0
  5106  1  1
  6107  1  0
  6108  1  0
  8109  1  0
  8110  1  0
 10111  1  0
 12112  1  0
 14113  1  0
 15114  1  0
 15115  1  0
 17116  1  0
 17117  1  0
 18118  1  1
 19119  1  0
 22120  1  6
 23121  1  0
 23122  1  0
 23123  1  0
 24124  1  0
 27125  1  6
 28126  1  0
 28127  1  0
 28128  1  0
 29129  1  0
 32130  1  1
 33131  1  0
 33132  1  0
 33133  1  0
 34134  1  0
 37135  1  6
 38136  1  0
 38137  1  0
 38138  1  0
 39139  1  0
 42140  1  1
 43141  1  0
 43142  1  0
 43143  1  0
 44144  1  0
 47145  1  6
 48146  1  0
 48147  1  0
 48148  1  0
 49149  1  0
 52150  1  1
 53151  1  0
 53152  1  0
 53153  1  0
 54154  1  0
 57155  1  6
 58156  1  0
 58157  1  0
 58158  1  0
 59159  1  0
 64160  1  0
 65161  1  1
 66162  1  0
 66163  1  0
 66164  1  0
 69165  1  0
 70166  1  1
 71167  1  0
 71168  1  0
 71169  1  0
 74170  1  0
 75171  1  1
 76172  1  0
 76173  1  0
 76174  1  0
 79175  1  0
 80176  1  6
 81177  1  0
 81178  1  0
 81179  1  0
 84180  1  0
 85181  1  6
 86182  1  0
 86183  1  0
 86184  1  0
 89185  1  0
 90186  1  1
 91187  1  0
 91188  1  0
 91189  1  0
 94190  1  0
 95191  1  1
 97192  1  0
 97193  1  0
 99194  1  0
 99195  1  0
101196  1  0
101197  1  0
M  END
