
     RDKit          3D

207209  0  0  0  0  0  0  0  0999 V2000
   -3.5948   10.4229    0.2108 C   0  0  0  0  0  0  0  0  0  0  0  0
   -3.6930    9.2960   -0.7651 C   0  0  0  0  0  0  0  0  0  0  0  0
   -3.2721    9.4608   -1.9449 O   0  0  0  0  0  0  0  0  0  0  0  0
   -4.2530    8.0410   -0.3467 N   0  0  0  0  0  0  0  0  0  0  0  0
   -4.1487    6.8113   -1.1325 C   0  0  1  0  0  0  0  0  0  0  0  0
   -2.9318    5.9986   -0.6448 C   0  0  0  0  0  0  0  0  0  0  0  0
   -3.0701    5.5639    1.1317 S   0  0  0  0  0  0  0  0  0  0  0  0
   -1.2787    5.5545    1.5002 C   0  0  0  0  0  0  0  0  0  0  0  0
   -0.5663    4.3310    0.9693 C   0  0  0  0  0  0  0  0  0  0  0  0
    0.6952    4.4665    0.3664 C   0  0  0  0  0  0  0  0  0  0  0  0
    1.4429    3.3331    0.0111 C   0  0  0  0  0  0  0  0  0  0  0  0
    0.8946    2.0625    0.1995 C   0  0  0  0  0  0  0  0  0  0  0  0
   -0.4037    1.9067    0.7207 C   0  0  0  0  0  0  0  0  0  0  0  0
   -1.1000    3.0459    1.1545 C   0  0  0  0  0  0  0  0  0  0  0  0
   -0.9961    0.5366    0.9220 C   0  0  0  0  0  0  0  0  0  0  0  0
   -0.4983   -0.6255   -0.4105 S   0  0  0  0  0  0  0  0  0  0  0  0
   -0.3776   -2.0892    0.6740 C   0  0  0  0  0  0  0  0  0  0  0  0
    0.1551   -3.3384   -0.0633 C   0  0  1  0  0  0  0  0  0  0  0  0
   -0.4471   -3.5075   -1.3970 N   0  0  0  0  0  0  0  0  0  0  0  0
   -1.7707   -4.0173   -1.6189 C   0  0  0  0  0  0  0  0  0  0  0  0
   -1.9189   -4.9804   -2.4145 O   0  0  0  0  0  0  0  0  0  0  0  0
   -2.9845   -3.4066   -0.9398 C   0  0  1  0  0  0  0  0  0  0  0  0
   -4.2493   -3.4524   -1.8065 C   0  0  0  0  0  0  0  0  0  0  0  0
   -3.2260   -3.9840    0.3911 N   0  0  0  0  0  0  0  0  0  0  0  0
   -3.0212   -5.3570    0.7546 C   0  0  0  0  0  0  0  0  0  0  0  0
   -2.3722   -5.6160    1.8011 O   0  0  0  0  0  0  0  0  0  0  0  0
   -3.7324   -6.4661    0.0254 C   0  0  1  0  0  0  0  0  0  0  0  0
   -2.9322   -7.7756    0.0607 C   0  0  0  0  0  0  0  0  0  0  0  0
   -5.0538   -6.6640    0.6141 N   0  0  0  0  0  0  0  0  0  0  0  0
   -6.0974   -5.6991    0.4197 C   0  0  0  0  0  0  0  0  0  0  0  0
   -6.0827   -4.6214    1.0813 O   0  0  0  0  0  0  0  0  0  0  0  0
   -7.2710   -5.9912   -0.4755 C   0  0  1  0  0  0  0  0  0  0  0  0
   -6.8993   -6.9866   -1.5845 C   0  0  0  0  0  0  0  0  0  0  0  0
   -8.3697   -6.5241    0.3300 N   0  0  0  0  0  0  0  0  0  0  0  0
   -9.6078   -5.8399    0.5949 C   0  0  0  0  0  0  0  0  0  0  0  0
  -10.2736   -6.1867    1.6136 O   0  0  0  0  0  0  0  0  0  0  0  0
  -10.1527   -4.7453   -0.3070 C   0  0  1  0  0  0  0  0  0  0  0  0
  -10.4196   -5.2769   -1.7171 C   0  0  0  0  0  0  0  0  0  0  0  0
  -11.4022   -4.1993    0.2389 N   0  0  0  0  0  0  0  0  0  0  0  0
  -11.8233   -2.8706   -0.0974 C   0  0  0  0  0  0  0  0  0  0  0  0
  -12.6683   -2.7080   -1.0227 O   0  0  0  0  0  0  0  0  0  0  0  0
  -11.4039   -1.6686    0.7186 C   0  0  1  0  0  0  0  0  0  0  0  0
  -10.1890   -1.9288    1.6185 C   0  0  0  0  0  0  0  0  0  0  0  0
  -11.1071   -0.5477   -0.1830 N   0  0  0  0  0  0  0  0  0  0  0  0
  -11.7734    0.7231   -0.0851 C   0  0  0  0  0  0  0  0  0  0  0  0
  -12.3716    1.0465    0.9798 O   0  0  0  0  0  0  0  0  0  0  0  0
  -11.8335    1.6389   -1.2864 C   0  0  1  0  0  0  0  0  0  0  0  0
  -13.1675    1.4270   -2.0131 C   0  0  0  0  0  0  0  0  0  0  0  0
  -11.7040    3.0437   -0.8666 N   0  0  0  0  0  0  0  0  0  0  0  0
  -10.4978    3.6140   -0.3292 C   0  0  0  0  0  0  0  0  0  0  0  0
  -10.5923    4.6463    0.3838 O   0  0  0  0  0  0  0  0  0  0  0  0
   -9.1264    3.0269   -0.6238 C   0  0  1  0  0  0  0  0  0  0  0  0
   -8.6098    3.4231   -2.0132 C   0  0  0  0  0  0  0  0  0  0  0  0
   -8.1634    3.3188    0.4528 N   0  0  0  0  0  0  0  0  0  0  0  0
   -7.3289    4.4847    0.6148 C   0  0  0  0  0  0  0  0  0  0  0  0
   -6.2630    4.3589    1.2827 O   0  0  0  0  0  0  0  0  0  0  0  0
   -7.7253    5.8744    0.1524 C   0  0  1  0  0  0  0  0  0  0  0  0
   -8.1937    6.6878    1.3676 C   0  0  0  0  0  0  0  0  0  0  0  0
   -6.6261    6.5955   -0.5026 N   0  0  0  0  0  0  0  0  0  0  0  0
   -5.4350    6.0066   -1.0544 C   0  0  0  0  0  0  0  0  0  0  0  0
   -5.4808    4.8673   -1.5930 O   0  0  0  0  0  0  0  0  0  0  0  0
    1.6580   -3.2483   -0.1579 C   0  0  0  0  0  0  0  0  0  0  0  0
    2.1988   -2.3281   -0.8403 O   0  0  0  0  0  0  0  0  0  0  0  0
    2.4898   -4.1454    0.5796 N   0  0  0  0  0  0  0  0  0  0  0  0
    2.5898   -5.5607    0.2328 C   0  0  2  0  0  0  0  0  0  0  0  0
    2.1630   -6.4121    1.4292 C   0  0  0  0  0  0  0  0  0  0  0  0
    4.0014   -5.9306   -0.1864 C   0  0  0  0  0  0  0  0  0  0  0  0
    4.2266   -7.1180   -0.5644 O   0  0  0  0  0  0  0  0  0  0  0  0
    5.0822   -4.9832   -0.1640 N   0  0  0  0  0  0  0  0  0  0  0  0
    6.4693   -5.4100    0.0450 C   0  0  2  0  0  0  0  0  0  0  0  0
    6.6668   -5.8300    1.5056 C   0  0  0  0  0  0  0  0  0  0  0  0
    7.4309   -4.2931   -0.3024 C   0  0  0  0  0  0  0  0  0  0  0  0
    7.2404   -3.1404    0.1715 O   0  0  0  0  0  0  0  0  0  0  0  0
    8.5296   -4.5042   -1.2021 N   0  0  0  0  0  0  0  0  0  0  0  0
    9.6761   -5.3794   -0.9120 C   0  0  2  0  0  0  0  0  0  0  0  0
    9.3238   -6.8515   -1.1545 C   0  0  0  0  0  0  0  0  0  0  0  0
   10.2170   -5.1224    0.4817 C   0  0  0  0  0  0  0  0  0  0  0  0
   10.2860   -6.0614    1.3172 O   0  0  0  0  0  0  0  0  0  0  0  0
   10.6501   -3.8152    0.8824 N   0  0  0  0  0  0  0  0  0  0  0  0
   11.3092   -2.8714   -0.0292 C   0  0  2  0  0  0  0  0  0  0  0  0
   12.7104   -3.3863   -0.3799 C   0  0  0  0  0  0  0  0  0  0  0  0
   11.4020   -1.5118    0.6142 C   0  0  0  0  0  0  0  0  0  0  0  0
   12.0677   -1.3606    1.6727 O   0  0  0  0  0  0  0  0  0  0  0  0
   10.6736   -0.4036    0.0688 N   0  0  0  0  0  0  0  0  0  0  0  0
   11.2948    0.6811   -0.7121 C   0  0  2  0  0  0  0  0  0  0  0  0
   12.2498    0.1214   -1.7766 C   0  0  0  0  0  0  0  0  0  0  0  0
   12.0118    1.6754    0.1820 C   0  0  0  0  0  0  0  0  0  0  0  0
   12.4831    1.2816    1.2830 O   0  0  0  0  0  0  0  0  0  0  0  0
   12.2289    3.0463   -0.1902 N   0  0  0  0  0  0  0  0  0  0  0  0
   11.7403    3.6899   -1.4147 C   0  0  2  0  0  0  0  0  0  0  0  0
   12.8117    4.6630   -1.9155 C   0  0  0  0  0  0  0  0  0  0  0  0
   10.4479    4.4306   -1.1732 C   0  0  0  0  0  0  0  0  0  0  0  0
    9.9217    5.0564   -2.1330 O   0  0  0  0  0  0  0  0  0  0  0  0
    9.7915    4.4136    0.1111 N   0  0  0  0  0  0  0  0  0  0  0  0
    8.9617    5.5366    0.5572 C   0  0  2  0  0  0  0  0  0  0  0  0
    9.8529    6.6694    1.0657 C   0  0  0  0  0  0  0  0  0  0  0  0
    7.9986    5.0916    1.6267 C   0  0  0  0  0  0  0  0  0  0  0  0
    8.3791    4.3449    2.5715 O   0  0  0  0  0  0  0  0  0  0  0  0
    6.6489    5.5628    1.6014 N   0  0  0  0  0  0  0  0  0  0  0  0
    5.5107    4.6512    1.7023 C   0  0  1  0  0  0  0  0  0  0  0  0
    4.2397    5.4358    1.9399 C   0  0  0  0  0  0  0  0  0  0  0  0
    3.8100    6.4360    1.0252 N   0  0  0  0  0  0  0  0  0  0  0  0
    3.5137    5.1709    2.9437 O   0  0  0  0  0  0  0  0  0  0  0  0
    5.4074    3.8004    0.4221 C   0  0  0  0  0  0  0  0  0  0  0  0
    4.0312    2.5930    0.5372 S   0  0  0  0  0  0  0  0  0  0  0  0
    2.8338    3.4609   -0.5508 C   0  0  0  0  0  0  0  0  0  0  0  0
   -3.0223   11.2820   -0.2108 H   0  0  0  0  0  0  0  0  0  0  0  0
   -3.0805   10.0656    1.1371 H   0  0  0  0  0  0  0  0  0  0  0  0
   -4.6160   10.7754    0.4819 H   0  0  0  0  0  0  0  0  0  0  0  0
   -4.5937    7.9663    0.6453 H   0  0  0  0  0  0  0  0  0  0  0  0
   -3.9918    7.0690   -2.2075 H   0  0  0  0  0  0  0  0  0  0  0  0
   -2.8460    5.0643   -1.2340 H   0  0  0  0  0  0  0  0  0  0  0  0
   -2.0186    6.5965   -0.8334 H   0  0  0  0  0  0  0  0  0  0  0  0
   -0.8265    6.4923    1.1169 H   0  0  0  0  0  0  0  0  0  0  0  0
   -1.1614    5.5716    2.6023 H   0  0  0  0  0  0  0  0  0  0  0  0
    1.1136    5.4518    0.2161 H   0  0  0  0  0  0  0  0  0  0  0  0
    1.4854    1.1960   -0.0565 H   0  0  0  0  0  0  0  0  0  0  0  0
   -2.0651    2.9236    1.6262 H   0  0  0  0  0  0  0  0  0  0  0  0
   -0.6768    0.1751    1.9198 H   0  0  0  0  0  0  0  0  0  0  0  0
   -2.1029    0.5986    0.9236 H   0  0  0  0  0  0  0  0  0  0  0  0
    0.2880   -1.8647    1.5325 H   0  0  0  0  0  0  0  0  0  0  0  0
   -1.3756   -2.2891    1.1083 H   0  0  0  0  0  0  0  0  0  0  0  0
   -0.0967   -4.2269    0.5548 H   0  0  0  0  0  0  0  0  0  0  0  0
    0.2024   -3.5517   -2.2148 H   0  0  0  0  0  0  0  0  0  0  0  0
   -2.7773   -2.3256   -0.7991 H   0  0  0  0  0  0  0  0  0  0  0  0
   -4.4552   -4.4666   -2.2047 H   0  0  0  0  0  0  0  0  0  0  0  0
   -5.1294   -3.1120   -1.2155 H   0  0  0  0  0  0  0  0  0  0  0  0
   -4.1325   -2.7677   -2.6735 H   0  0  0  0  0  0  0  0  0  0  0  0
   -3.3832   -3.3177    1.1805 H   0  0  0  0  0  0  0  0  0  0  0  0
   -3.8467   -6.2097   -1.0383 H   0  0  0  0  0  0  0  0  0  0  0  0
   -3.4881   -8.5674   -0.4795 H   0  0  0  0  0  0  0  0  0  0  0  0
   -1.9524   -7.6362   -0.4433 H   0  0  0  0  0  0  0  0  0  0  0  0
   -2.7589   -8.1140    1.1050 H   0  0  0  0  0  0  0  0  0  0  0  0
   -5.2316   -7.4588    1.2766 H   0  0  0  0  0  0  0  0  0  0  0  0
   -7.5527   -5.0399   -0.9655 H   0  0  0  0  0  0  0  0  0  0  0  0
   -6.1013   -6.5619   -2.2194 H   0  0  0  0  0  0  0  0  0  0  0  0
   -6.5524   -7.9523   -1.1486 H   0  0  0  0  0  0  0  0  0  0  0  0
   -7.7812   -7.1941   -2.2203 H   0  0  0  0  0  0  0  0  0  0  0  0
   -8.2012   -7.4149    0.8530 H   0  0  0  0  0  0  0  0  0  0  0  0
   -9.4044   -3.9257   -0.3703 H   0  0  0  0  0  0  0  0  0  0  0  0
  -11.0403   -6.2038   -1.6772 H   0  0  0  0  0  0  0  0  0  0  0  0
  -10.9557   -4.5129   -2.3286 H   0  0  0  0  0  0  0  0  0  0  0  0
   -9.4700   -5.5092   -2.2427 H   0  0  0  0  0  0  0  0  0  0  0  0
  -12.1724   -4.8879    0.4199 H   0  0  0  0  0  0  0  0  0  0  0  0
  -12.2578   -1.4183    1.3828 H   0  0  0  0  0  0  0  0  0  0  0  0
  -10.0325   -1.0537    2.2876 H   0  0  0  0  0  0  0  0  0  0  0  0
  -10.3530   -2.8287    2.2503 H   0  0  0  0  0  0  0  0  0  0  0  0
   -9.2715   -2.0631    1.0112 H   0  0  0  0  0  0  0  0  0  0  0  0
  -10.4184   -0.6913   -0.9591 H   0  0  0  0  0  0  0  0  0  0  0  0
  -11.0250    1.3894   -2.0060 H   0  0  0  0  0  0  0  0  0  0  0  0
  -13.2379    0.3819   -2.3779 H   0  0  0  0  0  0  0  0  0  0  0  0
  -13.2434    2.1174   -2.8792 H   0  0  0  0  0  0  0  0  0  0  0  0
  -14.0234    1.6228   -1.3337 H   0  0  0  0  0  0  0  0  0  0  0  0
  -12.5731    3.6251   -0.7917 H   0  0  0  0  0  0  0  0  0  0  0  0
   -9.2394    1.9270   -0.6437 H   0  0  0  0  0  0  0  0  0  0  0  0
   -7.5351    3.1730   -2.1069 H   0  0  0  0  0  0  0  0  0  0  0  0
   -8.7732    4.4970   -2.2379 H   0  0  0  0  0  0  0  0  0  0  0  0
   -9.1601    2.8525   -2.7920 H   0  0  0  0  0  0  0  0  0  0  0  0
   -7.9407    2.5140    1.0827 H   0  0  0  0  0  0  0  0  0  0  0  0
   -8.5772    5.8391   -0.5537 H   0  0  0  0  0  0  0  0  0  0  0  0
   -9.0716    6.2101    1.8383 H   0  0  0  0  0  0  0  0  0  0  0  0
   -7.3746    6.7657    2.1178 H   0  0  0  0  0  0  0  0  0  0  0  0
   -8.4745    7.7089    1.0429 H   0  0  0  0  0  0  0  0  0  0  0  0
   -6.8148    7.5988   -0.7567 H   0  0  0  0  0  0  0  0  0  0  0  0
    3.0840   -3.7605    1.3467 H   0  0  0  0  0  0  0  0  0  0  0  0
    1.9141   -5.7808   -0.6247 H   0  0  0  0  0  0  0  0  0  0  0  0
    2.2042   -7.4906    1.1707 H   0  0  0  0  0  0  0  0  0  0  0  0
    2.8335   -6.2244    2.2934 H   0  0  0  0  0  0  0  0  0  0  0  0
    1.1183   -6.1622    1.7179 H   0  0  0  0  0  0  0  0  0  0  0  0
    4.8668   -3.9715   -0.2974 H   0  0  0  0  0  0  0  0  0  0  0  0
    6.6745   -6.2729   -0.6184 H   0  0  0  0  0  0  0  0  0  0  0  0
    7.7095   -6.1699    1.6802 H   0  0  0  0  0  0  0  0  0  0  0  0
    5.9836   -6.6659    1.7555 H   0  0  0  0  0  0  0  0  0  0  0  0
    6.4521   -4.9774    2.1806 H   0  0  0  0  0  0  0  0  0  0  0  0
    8.6564   -3.7980   -1.9619 H   0  0  0  0  0  0  0  0  0  0  0  0
   10.4811   -5.1293   -1.6334 H   0  0  0  0  0  0  0  0  0  0  0  0
    8.7955   -6.9602   -2.1240 H   0  0  0  0  0  0  0  0  0  0  0  0
   10.2553   -7.4564   -1.1937 H   0  0  0  0  0  0  0  0  0  0  0  0
    8.6865   -7.2606   -0.3445 H   0  0  0  0  0  0  0  0  0  0  0  0
   10.7144   -3.6315    1.9109 H   0  0  0  0  0  0  0  0  0  0  0  0
   10.7212   -2.7816   -0.9631 H   0  0  0  0  0  0  0  0  0  0  0  0
   12.6502   -4.3518   -0.9130 H   0  0  0  0  0  0  0  0  0  0  0  0
   13.3071   -3.5362    0.5435 H   0  0  0  0  0  0  0  0  0  0  0  0
   13.2444   -2.6684   -1.0336 H   0  0  0  0  0  0  0  0  0  0  0  0
    9.7314   -0.2060    0.4917 H   0  0  0  0  0  0  0  0  0  0  0  0
   10.4683    1.2094   -1.2399 H   0  0  0  0  0  0  0  0  0  0  0  0
   13.1374   -0.3381   -1.2956 H   0  0  0  0  0  0  0  0  0  0  0  0
   12.6050    0.9281   -2.4510 H   0  0  0  0  0  0  0  0  0  0  0  0
   11.7278   -0.6399   -2.3933 H   0  0  0  0  0  0  0  0  0  0  0  0
   12.6869    3.6559    0.5245 H   0  0  0  0  0  0  0  0  0  0  0  0
   11.5715    2.9446   -2.2174 H   0  0  0  0  0  0  0  0  0  0  0  0
   12.5160    5.0888   -2.9025 H   0  0  0  0  0  0  0  0  0  0  0  0
   12.9569    5.4981   -1.1926 H   0  0  0  0  0  0  0  0  0  0  0  0
   13.7779    4.1267   -2.0422 H   0  0  0  0  0  0  0  0  0  0  0  0
   10.0560    3.6780    0.8079 H   0  0  0  0  0  0  0  0  0  0  0  0
    8.3634    5.9163   -0.3027 H   0  0  0  0  0  0  0  0  0  0  0  0
   10.5354    6.3008    1.8663 H   0  0  0  0  0  0  0  0  0  0  0  0
   10.4758    7.0540    0.2329 H   0  0  0  0  0  0  0  0  0  0  0  0
    9.2335    7.5022    1.4585 H   0  0  0  0  0  0  0  0  0  0  0  0
    6.5157    6.6014    1.7052 H   0  0  0  0  0  0  0  0  0  0  0  0
    5.6626    3.9551    2.5689 H   0  0  0  0  0  0  0  0  0  0  0  0
    4.3760    6.6837    0.1787 H   0  0  0  0  0  0  0  0  0  0  0  0
    2.9169    6.9537    1.1942 H   0  0  0  0  0  0  0  0  0  0  0  0
    5.3256    4.4483   -0.4836 H   0  0  0  0  0  0  0  0  0  0  0  0
    6.3416    3.2102    0.3050 H   0  0  0  0  0  0  0  0  0  0  0  0
    2.8678    2.9794   -1.5499 H   0  0  0  0  0  0  0  0  0  0  0  0
    3.0995    4.5292   -0.6944 H   0  0  0  0  0  0  0  0  0  0  0  0
  1  2  1  0
  2  3  2  0
  2  4  1  0
  4  5  1  0
  5  6  1  0
  6  7  1  0
  7  8  1  0
  8  9  1  0
  9 10  2  0
 10 11  1  0
 11 12  2  0
 12 13  1  0
 13 14  2  0
 13 15  1  0
 15 16  1  0
 16 17  1  0
 17 18  1  0
 18 19  1  0
 19 20  1  0
 20 21  2  0
 20 22  1  0
 22 23  1  0
 22 24  1  0
 24 25  1  0
 25 26  2  0
 25 27  1  0
 27 28  1  0
 27 29  1  0
 29 30  1  0
 30 31  2  0
 30 32  1  0
 32 33  1  0
 32 34  1  0
 34 35  1  0
 35 36  2  0
 35 37  1  0
 37 38  1  0
 37 39  1  0
 39 40  1  0
 40 41  2  0
 40 42  1  0
 42 43  1  0
 42 44  1  0
 44 45  1  0
 45 46  2  0
 45 47  1  0
 47 48  1  0
 47 49  1  0
 49 50  1  0
 50 51  2  0
 50 52  1  0
 52 53  1  0
 52 54  1  0
 54 55  1  0
 55 56  2  0
 55 57  1  0
 57 58  1  0
 57 59  1  0
 59 60  1  0
 60 61  2  0
 18 62  1  0
 62 63  2  0
 62 64  1  0
 64 65  1  0
 65 66  1  0
 65 67  1  0
 67 68  2  0
 67 69  1  0
 69 70  1  0
 70 71  1  0
 70 72  1  0
 72 73  2  0
 72 74  1  0
 74 75  1  0
 75 76  1  0
 75 77  1  0
 77 78  2  0
 77 79  1  0
 79 80  1  0
 80 81  1  0
 80 82  1  0
 82 83  2  0
 82 84  1  0
 84 85  1  0
 85 86  1  0
 85 87  1  0
 87 88  2  0
 87 89  1  0
 89 90  1  0
 90 91  1  0
 90 92  1  0
 92 93  2  0
 92 94  1  0
 94 95  1  0
 95 96  1  0
 95 97  1  0
 97 98  2  0
 97 99  1  0
 99100  1  0
100101  1  0
101102  1  0
101103  2  0
100104  1  0
104105  1  0
105106  1  0
 60  5  1  0
 14  9  1  0
106 11  1  0
  1107  1  0
  1108  1  0
  1109  1  0
  4110  1  0
  5111  1  6
  6112  1  0
  6113  1  0
  8114  1  0
  8115  1  0
 10116  1  0
 12117  1  0
 14118  1  0
 15119  1  0
 15120  1  0
 17121  1  0
 17122  1  0
 18123  1  1
 19124  1  0
 22125  1  1
 23126  1  0
 23127  1  0
 23128  1  0
 24129  1  0
 27130  1  6
 28131  1  0
 28132  1  0
 28133  1  0
 29134  1  0
 32135  1  6
 33136  1  0
 33137  1  0
 33138  1  0
 34139  1  0
 37140  1  6
 38141  1  0
 38142  1  0
 38143  1  0
 39144  1  0
 42145  1  1
 43146  1  0
 43147  1  0
 43148  1  0
 44149  1  0
 47150  1  6
 48151  1  0
 48152  1  0
 48153  1  0
 49154  1  0
 52155  1  6
 53156  1  0
 53157  1  0
 53158  1  0
 54159  1  0
 57160  1  6
 58161  1  0
 58162  1  0
 58163  1  0
 59164  1  0
 64165  1  0
 65166  1  6
 66167  1  0
 66168  1  0
 66169  1  0
 69170  1  0
 70171  1  6
 71172  1  0
 71173  1  0
 71174  1  0
 74175  1  0
 75176  1  6
 76177  1  0
 76178  1  0
 76179  1  0
 79180  1  0
 80181  1  6
 81182  1  0
 81183  1  0
 81184  1  0
 84185  1  0
 85186  1  6
 86187  1  0
 86188  1  0
 86189  1  0
 89190  1  0
 90191  1  6
 91192  1  0
 91193  1  0
 91194  1  0
 94195  1  0
 95196  1  6
 96197  1  0
 96198  1  0
 96199  1  0
 99200  1  0
100201  1  1
102202  1  0
102203  1  0
104204  1  0
104205  1  0
106206  1  0
106207  1  0
M  END
