
     RDKit          3D

217219  0  0  0  0  0  0  0  0999 V2000
    4.2365   -9.3600    0.6166 C   0  0  0  0  0  0  0  0  0  0  0  0
    3.4679   -8.5699   -0.3992 C   0  0  0  0  0  0  0  0  0  0  0  0
    2.4634   -9.0871   -0.9575 O   0  0  0  0  0  0  0  0  0  0  0  0
    3.8584   -7.2338   -0.7824 N   0  0  0  0  0  0  0  0  0  0  0  0
    4.5218   -6.2412    0.0759 C   0  0  1  0  0  0  0  0  0  0  0  0
    3.7071   -5.9672    1.3822 C   0  0  0  0  0  0  0  0  0  0  0  0
    2.7628   -4.3714    1.3349 S   0  0  0  0  0  0  0  0  0  0  0  0
    1.4106   -4.9663    0.2393 C   0  0  0  0  0  0  0  0  0  0  0  0
    0.5386   -3.8471   -0.2863 C   0  0  0  0  0  0  0  0  0  0  0  0
   -0.1840   -4.0970   -1.4581 C   0  0  0  0  0  0  0  0  0  0  0  0
   -1.2988   -3.3063   -1.7707 C   0  0  0  0  0  0  0  0  0  0  0  0
   -1.4403   -2.0552   -1.1590 C   0  0  0  0  0  0  0  0  0  0  0  0
   -0.7069   -1.7489   -0.0125 C   0  0  0  0  0  0  0  0  0  0  0  0
    0.2284   -2.6819    0.4647 C   0  0  0  0  0  0  0  0  0  0  0  0
   -1.1737   -0.5626    0.8100 C   0  0  0  0  0  0  0  0  0  0  0  0
    0.1411    0.1941    1.8571 S   0  0  0  0  0  0  0  0  0  0  0  0
    0.0243    1.9262    1.2164 C   0  0  0  0  0  0  0  0  0  0  0  0
   -0.1893    2.9266    2.3861 C   0  0  1  0  0  0  0  0  0  0  0  0
    0.2914    4.2937    2.1055 N   0  0  0  0  0  0  0  0  0  0  0  0
    1.6061    4.6174    1.6611 C   0  0  0  0  0  0  0  0  0  0  0  0
    2.5057    4.8622    2.5091 O   0  0  0  0  0  0  0  0  0  0  0  0
    1.9960    4.7423    0.1756 C   0  0  1  0  0  0  0  0  0  0  0  0
    0.8040    4.6193   -0.7988 C   0  0  0  0  0  0  0  0  0  0  0  0
    2.6425    6.0430   -0.0248 N   0  0  0  0  0  0  0  0  0  0  0  0
    3.3966    6.3074   -1.1950 C   0  0  0  0  0  0  0  0  0  0  0  0
    3.0807    7.2960   -1.9158 O   0  0  0  0  0  0  0  0  0  0  0  0
    4.5990    5.4331   -1.5576 C   0  0  1  0  0  0  0  0  0  0  0  0
    5.4757    6.1275   -2.6140 C   0  0  0  0  0  0  0  0  0  0  0  0
    5.3779    5.1387   -0.3500 N   0  0  0  0  0  0  0  0  0  0  0  0
    6.1082    6.1542    0.3255 C   0  0  0  0  0  0  0  0  0  0  0  0
    5.5051    7.0107    1.0203 O   0  0  0  0  0  0  0  0  0  0  0  0
    7.6284    6.1039    0.2573 C   0  0  1  0  0  0  0  0  0  0  0  0
    8.2652    7.4860    0.5548 C   0  0  0  0  0  0  0  0  0  0  0  0
    8.1100    5.0903    1.1958 N   0  0  0  0  0  0  0  0  0  0  0  0
    9.4285    4.5458    1.2004 C   0  0  0  0  0  0  0  0  0  0  0  0
    9.7812    3.8515    2.2089 O   0  0  0  0  0  0  0  0  0  0  0  0
   10.3878    4.7073    0.0373 C   0  0  1  0  0  0  0  0  0  0  0  0
   11.7914    5.0903    0.5351 C   0  0  0  0  0  0  0  0  0  0  0  0
   10.4477    3.4882   -0.7721 N   0  0  0  0  0  0  0  0  0  0  0  0
   10.8963    2.2356   -0.2723 C   0  0  0  0  0  0  0  0  0  0  0  0
   12.1159    1.9149   -0.3995 O   0  0  0  0  0  0  0  0  0  0  0  0
    9.8889    1.2006    0.1767 C   0  0  1  0  0  0  0  0  0  0  0  0
    9.5265    0.2993   -1.0049 C   0  0  0  0  0  0  0  0  0  0  0  0
   10.3393    0.4515    1.3734 N   0  0  0  0  0  0  0  0  0  0  0  0
   11.4819   -0.4108    1.4505 C   0  0  0  0  0  0  0  0  0  0  0  0
   12.4143   -0.1319    2.2599 O   0  0  0  0  0  0  0  0  0  0  0  0
   11.5709   -1.6941    0.6450 C   0  0  1  0  0  0  0  0  0  0  0  0
   12.6512   -1.5581   -0.4366 C   0  0  0  0  0  0  0  0  0  0  0  0
   11.8562   -2.8279    1.5180 N   0  0  0  0  0  0  0  0  0  0  0  0
   11.7874   -4.2190    1.1350 C   0  0  0  0  0  0  0  0  0  0  0  0
   12.2748   -5.0798    1.9277 O   0  0  0  0  0  0  0  0  0  0  0  0
   11.2228   -4.6783   -0.1871 C   0  0  1  0  0  0  0  0  0  0  0  0
   12.3209   -5.0040   -1.2248 C   0  0  0  0  0  0  0  0  0  0  0  0
   10.3612   -5.8494    0.0219 N   0  0  0  0  0  0  0  0  0  0  0  0
    8.9894   -5.6843    0.3790 C   0  0  0  0  0  0  0  0  0  0  0  0
    8.6293   -5.9473    1.5660 O   0  0  0  0  0  0  0  0  0  0  0  0
    7.9337   -5.3463   -0.6802 C   0  0  1  0  0  0  0  0  0  0  0  0
    8.5694   -5.1306   -2.0778 C   0  0  0  0  0  0  0  0  0  0  0  0
    6.9288   -6.4196   -0.7807 N   0  0  0  0  0  0  0  0  0  0  0  0
    5.9560   -6.6036    0.2793 C   0  0  0  0  0  0  0  0  0  0  0  0
    6.3350   -7.1982    1.3416 O   0  0  0  0  0  0  0  0  0  0  0  0
   -1.6476    2.9248    2.8722 C   0  0  0  0  0  0  0  0  0  0  0  0
   -1.9239    2.1169    3.8082 O   0  0  0  0  0  0  0  0  0  0  0  0
   -2.7355    3.7179    2.3402 N   0  0  0  0  0  0  0  0  0  0  0  0
   -2.8319    4.5925    1.1367 C   0  0  2  0  0  0  0  0  0  0  0  0
   -2.1634    5.9806    1.3679 C   0  0  0  0  0  0  0  0  0  0  0  0
   -4.2839    4.8073    0.7242 C   0  0  0  0  0  0  0  0  0  0  0  0
   -5.0636    3.8111    0.6718 O   0  0  0  0  0  0  0  0  0  0  0  0
   -4.7167    6.0700    0.2415 N   0  0  0  0  0  0  0  0  0  0  0  0
   -5.6229    6.9697    1.0059 C   0  0  2  0  0  0  0  0  0  0  0  0
   -4.9177    7.5369    2.2623 C   0  0  0  0  0  0  0  0  0  0  0  0
   -6.9007    6.2380    1.3470 C   0  0  0  0  0  0  0  0  0  0  0  0
   -7.3641    6.2342    2.5270 O   0  0  0  0  0  0  0  0  0  0  0  0
   -7.5487    5.4810    0.3364 N   0  0  0  0  0  0  0  0  0  0  0  0
   -8.6200    6.0236   -0.5092 C   0  0  2  0  0  0  0  0  0  0  0  0
   -8.4104    7.4888   -0.8917 C   0  0  0  0  0  0  0  0  0  0  0  0
   -9.9606    5.8376    0.2070 C   0  0  0  0  0  0  0  0  0  0  0  0
  -10.1766    6.5314    1.2350 O   0  0  0  0  0  0  0  0  0  0  0  0
  -10.9046    4.8403   -0.1746 N   0  0  0  0  0  0  0  0  0  0  0  0
  -10.9917    4.1929   -1.5012 C   0  0  2  0  0  0  0  0  0  0  0  0
  -11.4396    5.2240   -2.5423 C   0  0  0  0  0  0  0  0  0  0  0  0
  -11.9666    3.0097   -1.4369 C   0  0  0  0  0  0  0  0  0  0  0  0
  -12.9958    3.0067   -2.1674 O   0  0  0  0  0  0  0  0  0  0  0  0
  -11.7603    1.9091   -0.5333 N   0  0  0  0  0  0  0  0  0  0  0  0
  -10.4768    1.5299    0.0598 C   0  0  2  0  0  0  0  0  0  0  0  0
   -9.5794    0.8752   -1.0107 C   0  0  0  0  0  0  0  0  0  0  0  0
  -10.6886    0.6286    1.2538 C   0  0  0  0  0  0  0  0  0  0  0  0
  -11.1091    1.1581    2.3226 O   0  0  0  0  0  0  0  0  0  0  0  0
  -10.3855   -0.7673    1.2394 N   0  0  0  0  0  0  0  0  0  0  0  0
  -11.2253   -1.7624    0.5565 C   0  0  2  0  0  0  0  0  0  0  0  0
  -12.6590   -1.7347    1.1137 C   0  0  0  0  0  0  0  0  0  0  0  0
  -10.6591   -3.1642    0.7585 C   0  0  0  0  0  0  0  0  0  0  0  0
  -10.5115   -3.6218    1.9244 O   0  0  0  0  0  0  0  0  0  0  0  0
  -10.4639   -4.0130   -0.3541 N   0  0  0  0  0  0  0  0  0  0  0  0
   -9.1884   -4.0795   -1.1010 C   0  0  2  0  0  0  0  0  0  0  0  0
   -8.9678   -2.7911   -1.8993 C   0  0  0  0  0  0  0  0  0  0  0  0
   -9.2399   -5.2458   -2.0468 C   0  0  0  0  0  0  0  0  0  0  0  0
  -10.1110   -5.2409   -2.9727 O   0  0  0  0  0  0  0  0  0  0  0  0
   -8.3594   -6.3939   -1.9566 N   0  0  0  0  0  0  0  0  0  0  0  0
   -7.4513   -6.7504   -0.8718 C   0  0  2  0  0  0  0  0  0  0  0  0
   -8.1408   -6.7154    0.5206 C   0  0  0  0  0  0  0  0  0  0  0  0
   -6.1710   -5.9707   -0.9183 C   0  0  0  0  0  0  0  0  0  0  0  0
   -6.0163   -5.0196   -1.7403 O   0  0  0  0  0  0  0  0  0  0  0  0
   -5.0285   -6.4634   -0.2127 N   0  0  0  0  0  0  0  0  0  0  0  0
   -4.0817   -5.5803    0.4470 C   0  0  1  0  0  0  0  0  0  0  0  0
   -3.9267   -6.0029    1.8792 C   0  0  0  0  0  0  0  0  0  0  0  0
   -3.2066   -7.2056    2.2264 N   0  0  0  0  0  0  0  0  0  0  0  0
   -4.3373   -5.2574    2.8032 O   0  0  0  0  0  0  0  0  0  0  0  0
   -2.7100   -5.5502   -0.2532 C   0  0  0  0  0  0  0  0  0  0  0  0
   -2.8044   -5.6358   -2.1044 S   0  0  0  0  0  0  0  0  0  0  0  0
   -2.4742   -3.8697   -2.5219 C   0  0  0  0  0  0  0  0  0  0  0  0
    3.7761  -10.3667    0.7387 H   0  0  0  0  0  0  0  0  0  0  0  0
    4.2543   -8.8638    1.6127 H   0  0  0  0  0  0  0  0  0  0  0  0
    5.2787   -9.4832    0.2400 H   0  0  0  0  0  0  0  0  0  0  0  0
    3.6186   -6.9183   -1.7647 H   0  0  0  0  0  0  0  0  0  0  0  0
    4.5537   -5.2848   -0.4905 H   0  0  0  0  0  0  0  0  0  0  0  0
    3.0413   -6.8207    1.6358 H   0  0  0  0  0  0  0  0  0  0  0  0
    4.3952   -5.8779    2.2465 H   0  0  0  0  0  0  0  0  0  0  0  0
    1.8689   -5.4980   -0.6356 H   0  0  0  0  0  0  0  0  0  0  0  0
    0.7621   -5.7090    0.7733 H   0  0  0  0  0  0  0  0  0  0  0  0
   -0.0549   -5.0693   -1.9510 H   0  0  0  0  0  0  0  0  0  0  0  0
   -2.2326   -1.3931   -1.5139 H   0  0  0  0  0  0  0  0  0  0  0  0
    0.7250   -2.5057    1.4094 H   0  0  0  0  0  0  0  0  0  0  0  0
   -1.6463    0.1679    0.1282 H   0  0  0  0  0  0  0  0  0  0  0  0
   -1.9857   -0.8966    1.4690 H   0  0  0  0  0  0  0  0  0  0  0  0
   -0.7605    2.0795    0.4475 H   0  0  0  0  0  0  0  0  0  0  0  0
    1.0097    2.1177    0.7447 H   0  0  0  0  0  0  0  0  0  0  0  0
    0.4268    2.5494    3.2230 H   0  0  0  0  0  0  0  0  0  0  0  0
   -0.0343    4.9533    2.8767 H   0  0  0  0  0  0  0  0  0  0  0  0
    2.6589    3.9030   -0.0768 H   0  0  0  0  0  0  0  0  0  0  0  0
    1.0753    4.1731   -1.7648 H   0  0  0  0  0  0  0  0  0  0  0  0
    0.3243    5.6307   -1.0270 H   0  0  0  0  0  0  0  0  0  0  0  0
    0.0519    3.8939   -0.3991 H   0  0  0  0  0  0  0  0  0  0  0  0
    2.1582    6.8734    0.4050 H   0  0  0  0  0  0  0  0  0  0  0  0
    4.2301    4.4815   -1.9848 H   0  0  0  0  0  0  0  0  0  0  0  0
    5.9446    7.0475   -2.2141 H   0  0  0  0  0  0  0  0  0  0  0  0
    6.2837    5.4235   -2.9534 H   0  0  0  0  0  0  0  0  0  0  0  0
    4.8848    6.4046   -3.5097 H   0  0  0  0  0  0  0  0  0  0  0  0
    4.9691    4.4218    0.2938 H   0  0  0  0  0  0  0  0  0  0  0  0
    7.8889    5.8131   -0.7983 H   0  0  0  0  0  0  0  0  0  0  0  0
    9.3069    7.3792    0.9304 H   0  0  0  0  0  0  0  0  0  0  0  0
    8.2706    8.1188   -0.3637 H   0  0  0  0  0  0  0  0  0  0  0  0
    7.6920    8.0369    1.3298 H   0  0  0  0  0  0  0  0  0  0  0  0
    7.4456    4.7239    1.9299 H   0  0  0  0  0  0  0  0  0  0  0  0
   10.0640    5.5311   -0.6229 H   0  0  0  0  0  0  0  0  0  0  0  0
   11.7451    6.1069    0.9793 H   0  0  0  0  0  0  0  0  0  0  0  0
   12.1601    4.3716    1.2952 H   0  0  0  0  0  0  0  0  0  0  0  0
   12.4986    5.0946   -0.3176 H   0  0  0  0  0  0  0  0  0  0  0  0
   10.5826    3.6283   -1.8078 H   0  0  0  0  0  0  0  0  0  0  0  0
    8.9526    1.7415    0.4616 H   0  0  0  0  0  0  0  0  0  0  0  0
    8.8383   -0.5086   -0.6962 H   0  0  0  0  0  0  0  0  0  0  0  0
   10.4367   -0.1415   -1.4663 H   0  0  0  0  0  0  0  0  0  0  0  0
    9.0290    0.9116   -1.7859 H   0  0  0  0  0  0  0  0  0  0  0  0
   10.0245    0.8522    2.2872 H   0  0  0  0  0  0  0  0  0  0  0  0
   10.5811   -1.8451    0.1604 H   0  0  0  0  0  0  0  0  0  0  0  0
   13.6282   -1.9226   -0.0565 H   0  0  0  0  0  0  0  0  0  0  0  0
   12.8158   -0.4969   -0.7524 H   0  0  0  0  0  0  0  0  0  0  0  0
   12.3857   -2.1425   -1.3442 H   0  0  0  0  0  0  0  0  0  0  0  0
   12.3289   -2.6377    2.4252 H   0  0  0  0  0  0  0  0  0  0  0  0
   10.6151   -3.8567   -0.6057 H   0  0  0  0  0  0  0  0  0  0  0  0
   13.3247   -4.6108   -0.9035 H   0  0  0  0  0  0  0  0  0  0  0  0
   12.0654   -4.5516   -2.2092 H   0  0  0  0  0  0  0  0  0  0  0  0
   12.4198   -6.1091   -1.3777 H   0  0  0  0  0  0  0  0  0  0  0  0
   10.8172   -6.7392    0.3324 H   0  0  0  0  0  0  0  0  0  0  0  0
    7.4311   -4.4025   -0.3917 H   0  0  0  0  0  0  0  0  0  0  0  0
    7.7907   -5.0740   -2.8615 H   0  0  0  0  0  0  0  0  0  0  0  0
    9.2591   -5.9634   -2.3281 H   0  0  0  0  0  0  0  0  0  0  0  0
    9.1102   -4.1714   -2.1310 H   0  0  0  0  0  0  0  0  0  0  0  0
    6.4061   -6.3237   -1.6835 H   0  0  0  0  0  0  0  0  0  0  0  0
   -3.6152    3.6540    2.9103 H   0  0  0  0  0  0  0  0  0  0  0  0
   -2.3300    4.0440    0.2832 H   0  0  0  0  0  0  0  0  0  0  0  0
   -1.1167    5.8692    1.0193 H   0  0  0  0  0  0  0  0  0  0  0  0
   -1.9520    6.1201    2.4423 H   0  0  0  0  0  0  0  0  0  0  0  0
   -2.4694    6.9036    0.7373 H   0  0  0  0  0  0  0  0  0  0  0  0
   -4.7832    6.1785   -0.8087 H   0  0  0  0  0  0  0  0  0  0  0  0
   -5.8678    7.8304    0.3679 H   0  0  0  0  0  0  0  0  0  0  0  0
   -5.6151    8.1859    2.8278 H   0  0  0  0  0  0  0  0  0  0  0  0
   -4.5738    6.7263    2.9315 H   0  0  0  0  0  0  0  0  0  0  0  0
   -4.0533    8.1753    1.9834 H   0  0  0  0  0  0  0  0  0  0  0  0
   -7.6771    4.4737    0.5774 H   0  0  0  0  0  0  0  0  0  0  0  0
   -8.6039    5.4465   -1.4679 H   0  0  0  0  0  0  0  0  0  0  0  0
   -8.3166    8.1320    0.0175 H   0  0  0  0  0  0  0  0  0  0  0  0
   -9.2761    7.8643   -1.4836 H   0  0  0  0  0  0  0  0  0  0  0  0
   -7.4889    7.6027   -1.5100 H   0  0  0  0  0  0  0  0  0  0  0  0
  -11.6909    4.6716    0.4965 H   0  0  0  0  0  0  0  0  0  0  0  0
   -9.9954    3.7996   -1.7782 H   0  0  0  0  0  0  0  0  0  0  0  0
  -12.3715    5.7304   -2.1977 H   0  0  0  0  0  0  0  0  0  0  0  0
  -10.6530    5.9967   -2.6991 H   0  0  0  0  0  0  0  0  0  0  0  0
  -11.6150    4.7599   -3.5292 H   0  0  0  0  0  0  0  0  0  0  0  0
  -12.5701    1.2607   -0.4163 H   0  0  0  0  0  0  0  0  0  0  0  0
   -9.9491    2.4354    0.4257 H   0  0  0  0  0  0  0  0  0  0  0  0
  -10.1533    0.1466   -1.6189 H   0  0  0  0  0  0  0  0  0  0  0  0
   -8.7253    0.3677   -0.5223 H   0  0  0  0  0  0  0  0  0  0  0  0
   -9.1619    1.6404   -1.6872 H   0  0  0  0  0  0  0  0  0  0  0  0
   -9.7635   -1.1020    2.0186 H   0  0  0  0  0  0  0  0  0  0  0  0
  -11.2505   -1.5488   -0.5324 H   0  0  0  0  0  0  0  0  0  0  0  0
  -12.6537   -1.9191    2.2046 H   0  0  0  0  0  0  0  0  0  0  0  0
  -13.2810   -2.5153    0.6086 H   0  0  0  0  0  0  0  0  0  0  0  0
  -13.1225   -0.7444    0.9301 H   0  0  0  0  0  0  0  0  0  0  0  0
  -11.0982   -4.8423   -0.4004 H   0  0  0  0  0  0  0  0  0  0  0  0
   -8.3500   -4.1632   -0.3756 H   0  0  0  0  0  0  0  0  0  0  0  0
   -8.8235   -1.9443   -1.1982 H   0  0  0  0  0  0  0  0  0  0  0  0
   -9.8542   -2.5849   -2.5501 H   0  0  0  0  0  0  0  0  0  0  0  0
   -8.0546   -2.8772   -2.5250 H   0  0  0  0  0  0  0  0  0  0  0  0
   -8.5265   -7.1334   -2.6759 H   0  0  0  0  0  0  0  0  0  0  0  0
   -7.1728   -7.8206   -1.0326 H   0  0  0  0  0  0  0  0  0  0  0  0
   -7.8350   -5.8203    1.1062 H   0  0  0  0  0  0  0  0  0  0  0  0
   -7.8539   -7.6182    1.0967 H   0  0  0  0  0  0  0  0  0  0  0  0
   -9.2460   -6.7264    0.4165 H   0  0  0  0  0  0  0  0  0  0  0  0
   -4.9461   -7.4918   -0.0496 H   0  0  0  0  0  0  0  0  0  0  0  0
   -4.4792   -4.5268    0.4624 H   0  0  0  0  0  0  0  0  0  0  0  0
   -2.9267   -7.8859    1.4752 H   0  0  0  0  0  0  0  0  0  0  0  0
   -2.4337   -6.9833    2.8991 H   0  0  0  0  0  0  0  0  0  0  0  0
   -2.1498   -4.6789    0.1558 H   0  0  0  0  0  0  0  0  0  0  0  0
   -2.0814   -6.4326    0.0294 H   0  0  0  0  0  0  0  0  0  0  0  0
   -2.2940   -3.7953   -3.6112 H   0  0  0  0  0  0  0  0  0  0  0  0
   -3.3961   -3.2864   -2.2824 H   0  0  0  0  0  0  0  0  0  0  0  0
  1  2  1  0
  2  3  2  0
  2  4  1  0
  4  5  1  0
  5  6  1  0
  6  7  1  0
  7  8  1  0
  8  9  1  0
  9 10  2  0
 10 11  1  0
 11 12  2  0
 12 13  1  0
 13 14  2  0
 13 15  1  0
 15 16  1  0
 16 17  1  0
 17 18  1  0
 18 19  1  0
 19 20  1  0
 20 21  2  0
 20 22  1  0
 22 23  1  0
 22 24  1  0
 24 25  1  0
 25 26  2  0
 25 27  1  0
 27 28  1  0
 27 29  1  0
 29 30  1  0
 30 31  2  0
 30 32  1  0
 32 33  1  0
 32 34  1  0
 34 35  1  0
 35 36  2  0
 35 37  1  0
 37 38  1  0
 37 39  1  0
 39 40  1  0
 40 41  2  0
 40 42  1  0
 42 43  1  0
 42 44  1  0
 44 45  1  0
 45 46  2  0
 45 47  1  0
 47 48  1  0
 47 49  1  0
 49 50  1  0
 50 51  2  0
 50 52  1  0
 52 53  1  0
 52 54  1  0
 54 55  1  0
 55 56  2  0
 55 57  1  0
 57 58  1  0
 57 59  1  0
 59 60  1  0
 60 61  2  0
 18 62  1  0
 62 63  2  0
 62 64  1  0
 64 65  1  0
 65 66  1  0
 65 67  1  0
 67 68  2  0
 67 69  1  0
 69 70  1  0
 70 71  1  0
 70 72  1  0
 72 73  2  0
 72 74  1  0
 74 75  1  0
 75 76  1  0
 75 77  1  0
 77 78  2  0
 77 79  1  0
 79 80  1  0
 80 81  1  0
 80 82  1  0
 82 83  2  0
 82 84  1  0
 84 85  1  0
 85 86  1  0
 85 87  1  0
 87 88  2  0
 87 89  1  0
 89 90  1  0
 90 91  1  0
 90 92  1  0
 92 93  2  0
 92 94  1  0
 94 95  1  0
 95 96  1  0
 95 97  1  0
 97 98  2  0
 97 99  1  0
 99100  1  0
100101  1  0
100102  1  0
102103  2  0
102104  1  0
104105  1  0
105106  1  0
106107  1  0
106108  2  0
105109  1  0
109110  1  0
110111  1  0
 60  5  1  0
 14  9  1  0
111 11  1  0
  1112  1  0
  1113  1  0
  1114  1  0
  4115  1  0
  5116  1  6
  6117  1  0
  6118  1  0
  8119  1  0
  8120  1  0
 10121  1  0
 12122  1  0
 14123  1  0
 15124  1  0
 15125  1  0
 17126  1  0
 17127  1  0
 18128  1  1
 19129  1  0
 22130  1  6
 23131  1  0
 23132  1  0
 23133  1  0
 24134  1  0
 27135  1  6
 28136  1  0
 28137  1  0
 28138  1  0
 29139  1  0
 32140  1  6
 33141  1  0
 33142  1  0
 33143  1  0
 34144  1  0
 37145  1  6
 38146  1  0
 38147  1  0
 38148  1  0
 39149  1  0
 42150  1  1
 43151  1  0
 43152  1  0
 43153  1  0
 44154  1  0
 47155  1  6
 48156  1  0
 48157  1  0
 48158  1  0
 49159  1  0
 52160  1  6
 53161  1  0
 53162  1  0
 53163  1  0
 54164  1  0
 57165  1  1
 58166  1  0
 58167  1  0
 58168  1  0
 59169  1  0
 64170  1  0
 65171  1  6
 66172  1  0
 66173  1  0
 66174  1  0
 69175  1  0
 70176  1  6
 71177  1  0
 71178  1  0
 71179  1  0
 74180  1  0
 75181  1  6
 76182  1  0
 76183  1  0
 76184  1  0
 79185  1  0
 80186  1  6
 81187  1  0
 81188  1  0
 81189  1  0
 84190  1  0
 85191  1  1
 86192  1  0
 86193  1  0
 86194  1  0
 89195  1  0
 90196  1  6
 91197  1  0
 91198  1  0
 91199  1  0
 94200  1  0
 95201  1  1
 96202  1  0
 96203  1  0
 96204  1  0
 99205  1  0
100206  1  6
101207  1  0
101208  1  0
101209  1  0
104210  1  0
105211  1  1
107212  1  0
107213  1  0
109214  1  0
109215  1  0
111216  1  0
111217  1  0
M  END
