
     RDKit          3D

197199  0  0  0  0  0  0  0  0999 V2000
    2.4465    9.8646   -1.2034 C   0  0  0  0  0  0  0  0  0  0  0  0
    3.3913    9.1015   -0.3305 C   0  0  0  0  0  0  0  0  0  0  0  0
    3.7647    9.5982    0.7661 O   0  0  0  0  0  0  0  0  0  0  0  0
    3.8932    7.8305   -0.7563 N   0  0  0  0  0  0  0  0  0  0  0  0
    3.5984    6.5780   -0.0491 C   0  0  2  0  0  0  0  0  0  0  0  0
    2.1013    6.2458   -0.1305 C   0  0  0  0  0  0  0  0  0  0  0  0
    1.6102    6.0018   -1.8740 S   0  0  0  0  0  0  0  0  0  0  0  0
   -0.1876    5.9794   -1.5698 C   0  0  0  0  0  0  0  0  0  0  0  0
   -0.6050    4.7319   -0.8427 C   0  0  0  0  0  0  0  0  0  0  0  0
   -0.4864    3.4754   -1.4621 C   0  0  0  0  0  0  0  0  0  0  0  0
   -0.9383    2.3089   -0.8219 C   0  0  0  0  0  0  0  0  0  0  0  0
   -1.5527    2.4181    0.4367 C   0  0  0  0  0  0  0  0  0  0  0  0
   -1.7042    3.6660    1.0562 C   0  0  0  0  0  0  0  0  0  0  0  0
   -1.1999    4.8137    0.4258 C   0  0  0  0  0  0  0  0  0  0  0  0
   -2.4682    3.7762    2.3544 C   0  0  0  0  0  0  0  0  0  0  0  0
   -3.8653    4.9697    2.2777 S   0  0  0  0  0  0  0  0  0  0  0  0
   -4.6073    4.3727    0.7102 C   0  0  0  0  0  0  0  0  0  0  0  0
   -6.0953    4.7364    0.6135 C   0  0  1  0  0  0  0  0  0  0  0  0
   -6.3267    6.2132    0.7985 C   0  0  0  0  0  0  0  0  0  0  0  0
   -5.7864    7.1591   -0.1315 N   0  0  0  0  0  0  0  0  0  0  0  0
   -7.0015    6.6237    1.7838 O   0  0  0  0  0  0  0  0  0  0  0  0
   -6.6364    4.3039   -0.6830 N   0  0  0  0  0  0  0  0  0  0  0  0
   -8.0290    4.0904   -0.9714 C   0  0  0  0  0  0  0  0  0  0  0  0
   -8.3485    3.7216   -2.1346 O   0  0  0  0  0  0  0  0  0  0  0  0
   -9.1330    4.3230    0.0378 C   0  0  1  0  0  0  0  0  0  0  0  0
   -9.9297    5.5751   -0.3467 C   0  0  0  0  0  0  0  0  0  0  0  0
  -10.0128    3.1499    0.0881 N   0  0  0  0  0  0  0  0  0  0  0  0
   -9.6247    1.9351    0.7472 C   0  0  0  0  0  0  0  0  0  0  0  0
   -8.4545    1.8130    1.2070 O   0  0  0  0  0  0  0  0  0  0  0  0
  -10.5972    0.7919    0.8853 C   0  0  1  0  0  0  0  0  0  0  0  0
  -11.8920    1.2798    1.5557 C   0  0  0  0  0  0  0  0  0  0  0  0
  -10.8667    0.2062   -0.4402 N   0  0  0  0  0  0  0  0  0  0  0  0
  -11.4152   -1.1070   -0.6857 C   0  0  0  0  0  0  0  0  0  0  0  0
  -11.4115   -1.5446   -1.8663 O   0  0  0  0  0  0  0  0  0  0  0  0
  -12.0777   -1.9385    0.3880 C   0  0  1  0  0  0  0  0  0  0  0  0
  -13.5906   -1.6936    0.3484 C   0  0  0  0  0  0  0  0  0  0  0  0
  -11.8053   -3.3662    0.1603 N   0  0  0  0  0  0  0  0  0  0  0  0
  -10.5428   -4.0206    0.3967 C   0  0  0  0  0  0  0  0  0  0  0  0
  -10.4498   -5.2523    0.1371 O   0  0  0  0  0  0  0  0  0  0  0  0
   -9.3220   -3.2873    0.9143 C   0  0  1  0  0  0  0  0  0  0  0  0
   -8.6999   -4.0143    2.1095 C   0  0  0  0  0  0  0  0  0  0  0  0
   -8.3406   -3.0575   -0.1551 N   0  0  0  0  0  0  0  0  0  0  0  0
   -7.9743   -4.0342   -1.1378 C   0  0  0  0  0  0  0  0  0  0  0  0
   -8.3468   -3.8618   -2.3318 O   0  0  0  0  0  0  0  0  0  0  0  0
   -7.1318   -5.2333   -0.7625 C   0  0  1  0  0  0  0  0  0  0  0  0
   -6.8293   -6.1725   -1.9421 C   0  0  0  0  0  0  0  0  0  0  0  0
   -5.8935   -4.8038   -0.0982 N   0  0  0  0  0  0  0  0  0  0  0  0
   -4.7468   -4.2614   -0.7920 C   0  0  0  0  0  0  0  0  0  0  0  0
   -4.8716   -3.8428   -1.9707 O   0  0  0  0  0  0  0  0  0  0  0  0
   -3.3752   -4.2117   -0.1466 C   0  0  1  0  0  0  0  0  0  0  0  0
   -3.3095   -4.9672    1.1875 C   0  0  0  0  0  0  0  0  0  0  0  0
   -2.3955   -4.7946   -1.0677 N   0  0  0  0  0  0  0  0  0  0  0  0
   -1.1778   -4.1807   -1.5514 C   0  0  0  0  0  0  0  0  0  0  0  0
   -0.6775   -4.6163   -2.6231 O   0  0  0  0  0  0  0  0  0  0  0  0
   -0.4480   -3.0623   -0.8433 C   0  0  1  0  0  0  0  0  0  0  0  0
   -0.9903   -1.7051   -1.3170 C   0  0  0  0  0  0  0  0  0  0  0  0
   -0.0775   -0.3052   -0.5595 S   0  0  0  0  0  0  0  0  0  0  0  0
   -0.9283    0.9871   -1.5443 C   0  0  0  0  0  0  0  0  0  0  0  0
   -0.5177   -3.1981    0.6191 N   0  0  0  0  0  0  0  0  0  0  0  0
    0.3868   -3.9570    1.4548 C   0  0  0  0  0  0  0  0  0  0  0  0
    0.4362   -3.6707    2.6821 O   0  0  0  0  0  0  0  0  0  0  0  0
    1.2097   -5.1427    0.9856 C   0  0  1  0  0  0  0  0  0  0  0  0
    0.3197   -6.3491    0.6496 C   0  0  0  0  0  0  0  0  0  0  0  0
    2.1066   -4.7763   -0.1164 N   0  0  0  0  0  0  0  0  0  0  0  0
    2.7512   -5.7668   -0.9273 C   0  0  0  0  0  0  0  0  0  0  0  0
    2.3736   -5.9300   -2.1175 O   0  0  0  0  0  0  0  0  0  0  0  0
    3.9113   -6.5604   -0.3835 C   0  0  1  0  0  0  0  0  0  0  0  0
    3.7037   -8.0610   -0.6027 C   0  0  0  0  0  0  0  0  0  0  0  0
    5.1578   -6.1349   -1.0284 N   0  0  0  0  0  0  0  0  0  0  0  0
    6.4521   -6.4755   -0.5019 C   0  0  0  0  0  0  0  0  0  0  0  0
    7.3828   -6.7513   -1.3076 O   0  0  0  0  0  0  0  0  0  0  0  0
    6.7137   -6.5000    0.9950 C   0  0  1  0  0  0  0  0  0  0  0  0
    8.0272   -7.1818    1.3978 C   0  0  0  0  0  0  0  0  0  0  0  0
    6.5984   -5.1561    1.5817 N   0  0  0  0  0  0  0  0  0  0  0  0
    7.4909   -4.0363    1.4041 C   0  0  0  0  0  0  0  0  0  0  0  0
    7.3832   -3.0558    2.1892 O   0  0  0  0  0  0  0  0  0  0  0  0
    8.5245   -3.9602    0.3105 C   0  0  1  0  0  0  0  0  0  0  0  0
    8.1571   -2.8503   -0.6891 C   0  0  0  0  0  0  0  0  0  0  0  0
    9.8581   -3.8021    0.9058 N   0  0  0  0  0  0  0  0  0  0  0  0
   10.8176   -2.8047    0.5266 C   0  0  0  0  0  0  0  0  0  0  0  0
   11.8348   -3.1462   -0.1335 O   0  0  0  0  0  0  0  0  0  0  0  0
   10.6732   -1.3844    0.9936 C   0  0  1  0  0  0  0  0  0  0  0  0
   11.6086   -1.1330    2.1884 C   0  0  0  0  0  0  0  0  0  0  0  0
   10.8742   -0.4725   -0.1432 N   0  0  0  0  0  0  0  0  0  0  0  0
   11.6496    0.7447   -0.1747 C   0  0  0  0  0  0  0  0  0  0  0  0
   12.6377    0.9080    0.5918 O   0  0  0  0  0  0  0  0  0  0  0  0
   11.3252    1.8169   -1.1785 C   0  0  1  0  0  0  0  0  0  0  0  0
   11.9217    1.4580   -2.5395 C   0  0  0  0  0  0  0  0  0  0  0  0
    9.8720    1.9751   -1.2872 N   0  0  0  0  0  0  0  0  0  0  0  0
    9.1146    2.5334   -0.2088 C   0  0  0  0  0  0  0  0  0  0  0  0
    8.2554    1.8170    0.3653 O   0  0  0  0  0  0  0  0  0  0  0  0
    9.3127    3.9775    0.1931 C   0  0  1  0  0  0  0  0  0  0  0  0
    8.9621    4.9037   -0.9839 C   0  0  0  0  0  0  0  0  0  0  0  0
    8.5511    4.2786    1.4158 N   0  0  0  0  0  0  0  0  0  0  0  0
    7.6133    5.3569    1.5608 C   0  0  0  0  0  0  0  0  0  0  0  0
    7.9743    6.3991    2.1647 O   0  0  0  0  0  0  0  0  0  0  0  0
    6.2184    5.2798    0.9730 C   0  0  1  0  0  0  0  0  0  0  0  0
    5.7483    3.8257    0.7956 C   0  0  0  0  0  0  0  0  0  0  0  0
    5.2666    5.9765    1.8470 N   0  0  0  0  0  0  0  0  0  0  0  0
    4.0719    6.6332    1.3947 C   0  0  0  0  0  0  0  0  0  0  0  0
    3.3725    7.2496    2.2404 O   0  0  0  0  0  0  0  0  0  0  0  0
    2.1804   10.8325   -0.7326 H   0  0  0  0  0  0  0  0  0  0  0  0
    2.9212   10.0626   -2.1872 H   0  0  0  0  0  0  0  0  0  0  0  0
    1.5214    9.2741   -1.3620 H   0  0  0  0  0  0  0  0  0  0  0  0
    4.2360    7.7589   -1.7407 H   0  0  0  0  0  0  0  0  0  0  0  0
    4.1186    5.7588   -0.5817 H   0  0  0  0  0  0  0  0  0  0  0  0
    1.8963    5.3120    0.4291 H   0  0  0  0  0  0  0  0  0  0  0  0
    1.5049    7.0676    0.3250 H   0  0  0  0  0  0  0  0  0  0  0  0
   -0.7158    6.0239   -2.5460 H   0  0  0  0  0  0  0  0  0  0  0  0
   -0.4733    6.8990   -1.0116 H   0  0  0  0  0  0  0  0  0  0  0  0
   -0.0736    3.4149   -2.4590 H   0  0  0  0  0  0  0  0  0  0  0  0
   -1.9588    1.5308    0.9109 H   0  0  0  0  0  0  0  0  0  0  0  0
   -1.3214    5.7858    0.8963 H   0  0  0  0  0  0  0  0  0  0  0  0
   -1.7688    4.1179    3.1484 H   0  0  0  0  0  0  0  0  0  0  0  0
   -2.8720    2.7878    2.6690 H   0  0  0  0  0  0  0  0  0  0  0  0
   -4.5196    3.2687    0.6507 H   0  0  0  0  0  0  0  0  0  0  0  0
   -4.0537    4.8226   -0.1389 H   0  0  0  0  0  0  0  0  0  0  0  0
   -6.6009    4.1721    1.4280 H   0  0  0  0  0  0  0  0  0  0  0  0
   -5.2196    6.8412   -0.9528 H   0  0  0  0  0  0  0  0  0  0  0  0
   -5.9461    8.1829    0.0074 H   0  0  0  0  0  0  0  0  0  0  0  0
   -5.9656    4.1764   -1.4760 H   0  0  0  0  0  0  0  0  0  0  0  0
   -8.7336    4.5022    1.0560 H   0  0  0  0  0  0  0  0  0  0  0  0
   -9.2766    6.4768   -0.3069 H   0  0  0  0  0  0  0  0  0  0  0  0
  -10.7698    5.7206    0.3659 H   0  0  0  0  0  0  0  0  0  0  0  0
  -10.3520    5.4760   -1.3712 H   0  0  0  0  0  0  0  0  0  0  0  0
  -10.9562    3.2013   -0.3536 H   0  0  0  0  0  0  0  0  0  0  0  0
  -10.1254    0.0245    1.5373 H   0  0  0  0  0  0  0  0  0  0  0  0
  -12.4206    0.4352    2.0270 H   0  0  0  0  0  0  0  0  0  0  0  0
  -11.6694    2.0102    2.3624 H   0  0  0  0  0  0  0  0  0  0  0  0
  -12.5627    1.7536    0.8109 H   0  0  0  0  0  0  0  0  0  0  0  0
  -10.5006    0.7068   -1.2767 H   0  0  0  0  0  0  0  0  0  0  0  0
  -11.7253   -1.6639    1.4015 H   0  0  0  0  0  0  0  0  0  0  0  0
  -14.0853   -2.2544    1.1739 H   0  0  0  0  0  0  0  0  0  0  0  0
  -14.0227   -2.0289   -0.6214 H   0  0  0  0  0  0  0  0  0  0  0  0
  -13.8217   -0.6151    0.4742 H   0  0  0  0  0  0  0  0  0  0  0  0
  -12.5650   -3.9624   -0.2424 H   0  0  0  0  0  0  0  0  0  0  0  0
   -9.6151   -2.2957    1.3076 H   0  0  0  0  0  0  0  0  0  0  0  0
   -8.4908   -5.0799    1.8908 H   0  0  0  0  0  0  0  0  0  0  0  0
   -9.4069   -3.9827    2.9675 H   0  0  0  0  0  0  0  0  0  0  0  0
   -7.7556   -3.5154    2.4169 H   0  0  0  0  0  0  0  0  0  0  0  0
   -8.1509   -2.0594   -0.4050 H   0  0  0  0  0  0  0  0  0  0  0  0
   -7.7183   -5.8367   -0.0416 H   0  0  0  0  0  0  0  0  0  0  0  0
   -7.7634   -6.6868   -2.2546 H   0  0  0  0  0  0  0  0  0  0  0  0
   -6.4345   -5.6203   -2.8199 H   0  0  0  0  0  0  0  0  0  0  0  0
   -6.0890   -6.9416   -1.6396 H   0  0  0  0  0  0  0  0  0  0  0  0
   -5.9309   -4.7396    0.9498 H   0  0  0  0  0  0  0  0  0  0  0  0
   -3.1444   -3.1497    0.0592 H   0  0  0  0  0  0  0  0  0  0  0  0
   -3.6332   -6.0203    1.0564 H   0  0  0  0  0  0  0  0  0  0  0  0
   -3.9327   -4.4685    1.9583 H   0  0  0  0  0  0  0  0  0  0  0  0
   -2.2734   -4.9663    1.5713 H   0  0  0  0  0  0  0  0  0  0  0  0
   -2.6125   -5.7435   -1.4469 H   0  0  0  0  0  0  0  0  0  0  0  0
    0.6195   -3.0854   -1.1528 H   0  0  0  0  0  0  0  0  0  0  0  0
   -0.8751   -1.6415   -2.4210 H   0  0  0  0  0  0  0  0  0  0  0  0
   -2.0693   -1.6060   -1.0765 H   0  0  0  0  0  0  0  0  0  0  0  0
   -1.9835    0.6994   -1.7454 H   0  0  0  0  0  0  0  0  0  0  0  0
   -0.4130    1.0756   -2.5268 H   0  0  0  0  0  0  0  0  0  0  0  0
   -1.1530   -2.5434    1.1313 H   0  0  0  0  0  0  0  0  0  0  0  0
    1.8553   -5.4537    1.8345 H   0  0  0  0  0  0  0  0  0  0  0  0
   -0.1776   -6.2315   -0.3275 H   0  0  0  0  0  0  0  0  0  0  0  0
    0.9260   -7.2744    0.6208 H   0  0  0  0  0  0  0  0  0  0  0  0
   -0.4450   -6.4917    1.4400 H   0  0  0  0  0  0  0  0  0  0  0  0
    2.6161   -3.8709   -0.0349 H   0  0  0  0  0  0  0  0  0  0  0  0
    3.9694   -6.3638    0.7082 H   0  0  0  0  0  0  0  0  0  0  0  0
    3.5773   -8.2872   -1.6852 H   0  0  0  0  0  0  0  0  0  0  0  0
    4.5852   -8.6314   -0.2311 H   0  0  0  0  0  0  0  0  0  0  0  0
    2.8099   -8.4160   -0.0513 H   0  0  0  0  0  0  0  0  0  0  0  0
    5.1211   -5.9021   -2.0464 H   0  0  0  0  0  0  0  0  0  0  0  0
    5.9235   -7.1415    1.4473 H   0  0  0  0  0  0  0  0  0  0  0  0
    8.9201   -6.6416    1.0291 H   0  0  0  0  0  0  0  0  0  0  0  0
    8.0537   -8.2162    0.9919 H   0  0  0  0  0  0  0  0  0  0  0  0
    8.0903   -7.2497    2.5063 H   0  0  0  0  0  0  0  0  0  0  0  0
    5.8175   -5.0179    2.2636 H   0  0  0  0  0  0  0  0  0  0  0  0
    8.5443   -4.8877   -0.2775 H   0  0  0  0  0  0  0  0  0  0  0  0
    7.1887   -3.0911   -1.1770 H   0  0  0  0  0  0  0  0  0  0  0  0
    8.0512   -1.8682   -0.1843 H   0  0  0  0  0  0  0  0  0  0  0  0
    8.9298   -2.7757   -1.4844 H   0  0  0  0  0  0  0  0  0  0  0  0
   10.2242   -4.6043    1.4674 H   0  0  0  0  0  0  0  0  0  0  0  0
    9.6342   -1.2410    1.3678 H   0  0  0  0  0  0  0  0  0  0  0  0
   12.6735   -1.2542    1.8892 H   0  0  0  0  0  0  0  0  0  0  0  0
   11.4331   -0.1173    2.6024 H   0  0  0  0  0  0  0  0  0  0  0  0
   11.3925   -1.8641    2.9955 H   0  0  0  0  0  0  0  0  0  0  0  0
   10.2699   -0.6563   -0.9723 H   0  0  0  0  0  0  0  0  0  0  0  0
   11.7789    2.7802   -0.8588 H   0  0  0  0  0  0  0  0  0  0  0  0
   11.6584    2.2386   -3.2873 H   0  0  0  0  0  0  0  0  0  0  0  0
   11.5343    0.4768   -2.8958 H   0  0  0  0  0  0  0  0  0  0  0  0
   13.0322    1.4033   -2.4695 H   0  0  0  0  0  0  0  0  0  0  0  0
    9.3566    1.3460   -1.9430 H   0  0  0  0  0  0  0  0  0  0  0  0
   10.3857    4.1325    0.4287 H   0  0  0  0  0  0  0  0  0  0  0  0
    9.0704    5.9653   -0.6779 H   0  0  0  0  0  0  0  0  0  0  0  0
    7.9260    4.7257   -1.3429 H   0  0  0  0  0  0  0  0  0  0  0  0
    9.6643    4.7272   -1.8251 H   0  0  0  0  0  0  0  0  0  0  0  0
    8.8848    3.8319    2.2984 H   0  0  0  0  0  0  0  0  0  0  0  0
    6.2522    5.7875   -0.0159 H   0  0  0  0  0  0  0  0  0  0  0  0
    6.2904    3.3484   -0.0465 H   0  0  0  0  0  0  0  0  0  0  0  0
    5.9005    3.2455    1.7287 H   0  0  0  0  0  0  0  0  0  0  0  0
    4.6694    3.7905    0.5472 H   0  0  0  0  0  0  0  0  0  0  0  0
    5.4051    5.9008    2.8807 H   0  0  0  0  0  0  0  0  0  0  0  0
  1  2  1  0
  2  3  2  0
  2  4  1  0
  4  5  1  0
  5  6  1  0
  6  7  1  0
  7  8  1  0
  8  9  1  0
  9 10  2  0
 10 11  1  0
 11 12  2  0
 12 13  1  0
 13 14  2  0
 13 15  1  0
 15 16  1  0
 16 17  1  0
 17 18  1  0
 18 19  1  0
 19 20  1  0
 19 21  2  0
 18 22  1  0
 22 23  1  0
 23 24  2  0
 23 25  1  0
 25 26  1  0
 25 27  1  0
 27 28  1  0
 28 29  2  0
 28 30  1  0
 30 31  1  0
 30 32  1  0
 32 33  1  0
 33 34  2  0
 33 35  1  0
 35 36  1  0
 35 37  1  0
 37 38  1  0
 38 39  2  0
 38 40  1  0
 40 41  1  0
 40 42  1  0
 42 43  1  0
 43 44  2  0
 43 45  1  0
 45 46  1  0
 45 47  1  0
 47 48  1  0
 48 49  2  0
 48 50  1  0
 50 51  1  0
 50 52  1  0
 52 53  1  0
 53 54  2  0
 53 55  1  0
 55 56  1  0
 56 57  1  0
 57 58  1  0
 55 59  1  0
 59 60  1  0
 60 61  2  0
 60 62  1  0
 62 63  1  0
 62 64  1  0
 64 65  1  0
 65 66  2  0
 65 67  1  0
 67 68  1  0
 67 69  1  0
 69 70  1  0
 70 71  2  0
 70 72  1  0
 72 73  1  0
 72 74  1  0
 74 75  1  0
 75 76  2  0
 75 77  1  0
 77 78  1  0
 77 79  1  0
 79 80  1  0
 80 81  2  0
 80 82  1  0
 82 83  1  0
 82 84  1  0
 84 85  1  0
 85 86  2  0
 85 87  1  0
 87 88  1  0
 87 89  1  0
 89 90  1  0
 90 91  2  0
 90 92  1  0
 92 93  1  0
 92 94  1  0
 94 95  1  0
 95 96  2  0
 95 97  1  0
 97 98  1  0
 97 99  1  0
 99100  1  0
100101  2  0
100  5  1  0
 14  9  1  0
 58 11  1  0
  1102  1  0
  1103  1  0
  1104  1  0
  4105  1  0
  5106  1  6
  6107  1  0
  6108  1  0
  8109  1  0
  8110  1  0
 10111  1  0
 12112  1  0
 14113  1  0
 15114  1  0
 15115  1  0
 17116  1  0
 17117  1  0
 18118  1  1
 20119  1  0
 20120  1  0
 22121  1  0
 25122  1  1
 26123  1  0
 26124  1  0
 26125  1  0
 27126  1  0
 30127  1  1
 31128  1  0
 31129  1  0
 31130  1  0
 32131  1  0
 35132  1  1
 36133  1  0
 36134  1  0
 36135  1  0
 37136  1  0
 40137  1  1
 41138  1  0
 41139  1  0
 41140  1  0
 42141  1  0
 45142  1  1
 46143  1  0
 46144  1  0
 46145  1  0
 47146  1  0
 50147  1  1
 51148  1  0
 51149  1  0
 51150  1  0
 52151  1  0
 55152  1  6
 56153  1  0
 56154  1  0
 58155  1  0
 58156  1  0
 59157  1  0
 62158  1  1
 63159  1  0
 63160  1  0
 63161  1  0
 64162  1  0
 67163  1  1
 68164  1  0
 68165  1  0
 68166  1  0
 69167  1  0
 72168  1  1
 73169  1  0
 73170  1  0
 73171  1  0
 74172  1  0
 77173  1  6
 78174  1  0
 78175  1  0
 78176  1  0
 79177  1  0
 82178  1  1
 83179  1  0
 83180  1  0
 83181  1  0
 84182  1  0
 87183  1  1
 88184  1  0
 88185  1  0
 88186  1  0
 89187  1  0
 92188  1  1
 93189  1  0
 93190  1  0
 93191  1  0
 94192  1  0
 97193  1  6
 98194  1  0
 98195  1  0
 98196  1  0
 99197  1  0
M  END
