
     RDKit          3D

197199  0  0  0  0  0  0  0  0999 V2000
   -2.3207   -8.4776    0.2280 C   0  0  0  0  0  0  0  0  0  0  0  0
   -3.0331   -7.2139   -0.1218 C   0  0  0  0  0  0  0  0  0  0  0  0
   -3.2145   -6.9246   -1.3333 O   0  0  0  0  0  0  0  0  0  0  0  0
   -3.5004   -6.3420    0.9255 N   0  0  0  0  0  0  0  0  0  0  0  0
   -4.2053   -5.0663    0.7263 C   0  0  1  0  0  0  0  0  0  0  0  0
   -3.2093   -3.8866    0.6669 C   0  0  0  0  0  0  0  0  0  0  0  0
   -1.9628   -4.0685   -0.6702 S   0  0  0  0  0  0  0  0  0  0  0  0
   -0.5324   -4.5467    0.3671 C   0  0  0  0  0  0  0  0  0  0  0  0
    0.4549   -3.4093    0.4234 C   0  0  0  0  0  0  0  0  0  0  0  0
    0.1108   -2.2081    1.0566 C   0  0  0  0  0  0  0  0  0  0  0  0
    0.9917   -1.1195    1.0505 C   0  0  0  0  0  0  0  0  0  0  0  0
    2.2397   -1.2472    0.4229 C   0  0  0  0  0  0  0  0  0  0  0  0
    2.6208   -2.4578   -0.1821 C   0  0  0  0  0  0  0  0  0  0  0  0
    1.7156   -3.5324   -0.1843 C   0  0  0  0  0  0  0  0  0  0  0  0
    3.9127   -2.5673   -0.9518 C   0  0  0  0  0  0  0  0  0  0  0  0
    5.3123   -1.7983   -0.0461 S   0  0  0  0  0  0  0  0  0  0  0  0
    6.2104   -3.3362    0.4008 C   0  0  0  0  0  0  0  0  0  0  0  0
    7.0472   -3.8940   -0.7701 C   0  0  1  0  0  0  0  0  0  0  0  0
    7.9996   -2.8651   -1.3291 C   0  0  0  0  0  0  0  0  0  0  0  0
    8.4577   -2.9682   -2.6787 N   0  0  0  0  0  0  0  0  0  0  0  0
    8.4192   -1.9258   -0.6031 O   0  0  0  0  0  0  0  0  0  0  0  0
    7.7531   -5.1042   -0.3261 N   0  0  0  0  0  0  0  0  0  0  0  0
    9.1287   -5.3878   -0.6180 C   0  0  0  0  0  0  0  0  0  0  0  0
    9.4038   -6.1955   -1.5462 O   0  0  0  0  0  0  0  0  0  0  0  0
   10.2262   -4.8547    0.2712 C   0  0  1  0  0  0  0  0  0  0  0  0
   10.6526   -5.9545    1.2476 C   0  0  0  0  0  0  0  0  0  0  0  0
   11.3830   -4.4312   -0.5357 N   0  0  0  0  0  0  0  0  0  0  0  0
   12.3327   -3.4116   -0.1516 C   0  0  0  0  0  0  0  0  0  0  0  0
   13.5054   -3.4798   -0.6087 O   0  0  0  0  0  0  0  0  0  0  0  0
   11.9804   -2.2750    0.7846 C   0  0  1  0  0  0  0  0  0  0  0  0
   12.3126   -2.6460    2.2305 C   0  0  0  0  0  0  0  0  0  0  0  0
   12.7281   -1.0580    0.4222 N   0  0  0  0  0  0  0  0  0  0  0  0
   12.1521    0.2522    0.2542 C   0  0  0  0  0  0  0  0  0  0  0  0
   12.9057    1.2606    0.3104 O   0  0  0  0  0  0  0  0  0  0  0  0
   10.6742    0.4548    0.0266 C   0  0  1  0  0  0  0  0  0  0  0  0
    9.8992    0.5091    1.3549 C   0  0  0  0  0  0  0  0  0  0  0  0
   10.4193    1.6380   -0.8059 N   0  0  0  0  0  0  0  0  0  0  0  0
   10.0745    2.9269   -0.2746 C   0  0  0  0  0  0  0  0  0  0  0  0
   10.7399    3.4070    0.6824 O   0  0  0  0  0  0  0  0  0  0  0  0
    8.9569    3.7382   -0.8771 C   0  0  1  0  0  0  0  0  0  0  0  0
    9.4709    4.5839   -2.0424 C   0  0  0  0  0  0  0  0  0  0  0  0
    7.8711    2.8647   -1.3327 N   0  0  0  0  0  0  0  0  0  0  0  0
    6.6413    2.7147   -0.6128 C   0  0  0  0  0  0  0  0  0  0  0  0
    6.4382    1.6477    0.0280 O   0  0  0  0  0  0  0  0  0  0  0  0
    5.5548    3.7654   -0.6652 C   0  0  1  0  0  0  0  0  0  0  0  0
    5.9184    4.9736    0.1993 C   0  0  0  0  0  0  0  0  0  0  0  0
    5.3009    4.1797   -2.0523 N   0  0  0  0  0  0  0  0  0  0  0  0
    4.0548    4.7066   -2.5473 C   0  0  0  0  0  0  0  0  0  0  0  0
    3.9016    4.8208   -3.7950 O   0  0  0  0  0  0  0  0  0  0  0  0
    2.9524    5.2063   -1.6390 C   0  0  1  0  0  0  0  0  0  0  0  0
    2.9903    6.7365   -1.5767 C   0  0  0  0  0  0  0  0  0  0  0  0
    1.6462    4.7602   -2.1336 N   0  0  0  0  0  0  0  0  0  0  0  0
    1.2230    3.4035   -1.9664 C   0  0  0  0  0  0  0  0  0  0  0  0
    1.4121    2.5867   -2.9126 O   0  0  0  0  0  0  0  0  0  0  0  0
    0.4522    2.9853   -0.7326 C   0  0  1  0  0  0  0  0  0  0  0  0
    0.1855    1.4715   -0.7011 C   0  0  0  0  0  0  0  0  0  0  0  0
   -0.7705    0.9950    0.7883 S   0  0  0  0  0  0  0  0  0  0  0  0
    0.5948    0.1816    1.7008 C   0  0  0  0  0  0  0  0  0  0  0  0
    1.1939    3.3820    0.4670 N   0  0  0  0  0  0  0  0  0  0  0  0
    0.7714    4.3900    1.4042 C   0  0  0  0  0  0  0  0  0  0  0  0
    1.5986    4.7931    2.2649 O   0  0  0  0  0  0  0  0  0  0  0  0
   -0.6251    4.9843    1.3699 C   0  0  1  0  0  0  0  0  0  0  0  0
   -0.9447    5.7686    2.6473 C   0  0  0  0  0  0  0  0  0  0  0  0
   -0.7616    5.8685    0.2092 N   0  0  0  0  0  0  0  0  0  0  0  0
   -1.9223    5.9018   -0.6364 C   0  0  0  0  0  0  0  0  0  0  0  0
   -1.7703    6.1804   -1.8607 O   0  0  0  0  0  0  0  0  0  0  0  0
   -3.3211    5.7493   -0.0829 C   0  0  1  0  0  0  0  0  0  0  0  0
   -3.9180    7.1338    0.1872 C   0  0  0  0  0  0  0  0  0  0  0  0
   -4.1689    5.0277   -1.0356 N   0  0  0  0  0  0  0  0  0  0  0  0
   -4.8918    3.8545   -0.6527 C   0  0  0  0  0  0  0  0  0  0  0  0
   -4.3252    2.7323   -0.7364 O   0  0  0  0  0  0  0  0  0  0  0  0
   -6.2909    3.9394   -0.0809 C   0  0  1  0  0  0  0  0  0  0  0  0
   -6.2197    4.0535    1.4438 C   0  0  0  0  0  0  0  0  0  0  0  0
   -7.0414    5.0753   -0.6409 N   0  0  0  0  0  0  0  0  0  0  0  0
   -8.4402    5.3275   -0.4106 C   0  0  0  0  0  0  0  0  0  0  0  0
   -8.8464    6.5223   -0.4565 O   0  0  0  0  0  0  0  0  0  0  0  0
   -9.4609    4.2261   -0.2150 C   0  0  1  0  0  0  0  0  0  0  0  0
  -10.2558    4.4884    1.0705 C   0  0  0  0  0  0  0  0  0  0  0  0
  -10.3664    4.1909   -1.3738 N   0  0  0  0  0  0  0  0  0  0  0  0
  -11.1962    3.0819   -1.7710 C   0  0  0  0  0  0  0  0  0  0  0  0
  -11.8335    3.1713   -2.8554 O   0  0  0  0  0  0  0  0  0  0  0  0
  -11.3979    1.8461   -0.9184 C   0  0  1  0  0  0  0  0  0  0  0  0
  -12.7945    1.8757   -0.2891 C   0  0  0  0  0  0  0  0  0  0  0  0
  -11.2656    0.6414   -1.7472 N   0  0  0  0  0  0  0  0  0  0  0  0
  -10.8803   -0.6396   -1.2231 C   0  0  0  0  0  0  0  0  0  0  0  0
  -11.4603   -1.6696   -1.6598 O   0  0  0  0  0  0  0  0  0  0  0  0
   -9.8244   -0.7776   -0.1482 C   0  0  1  0  0  0  0  0  0  0  0  0
  -10.4594   -0.8682    1.2401 C   0  0  0  0  0  0  0  0  0  0  0  0
   -8.9366   -1.9188   -0.4171 N   0  0  0  0  0  0  0  0  0  0  0  0
   -9.3672   -3.2869   -0.4650 C   0  0  0  0  0  0  0  0  0  0  0  0
   -9.4323   -3.8668   -1.5822 O   0  0  0  0  0  0  0  0  0  0  0  0
   -9.5163   -4.0948    0.8017 C   0  0  1  0  0  0  0  0  0  0  0  0
  -10.6810   -5.0931    0.6659 C   0  0  0  0  0  0  0  0  0  0  0  0
   -8.2226   -4.7265    1.1069 N   0  0  0  0  0  0  0  0  0  0  0  0
   -7.9954   -6.1314    1.2977 C   0  0  0  0  0  0  0  0  0  0  0  0
   -8.7304   -6.7821    2.0919 O   0  0  0  0  0  0  0  0  0  0  0  0
   -6.7805   -6.7858    0.6901 C   0  0  1  0  0  0  0  0  0  0  0  0
   -7.0860   -8.2092    0.2244 C   0  0  0  0  0  0  0  0  0  0  0  0
   -6.3106   -5.9987   -0.4555 N   0  0  0  0  0  0  0  0  0  0  0  0
   -5.1723   -5.1202   -0.4430 C   0  0  0  0  0  0  0  0  0  0  0  0
   -4.9752   -4.3821   -1.4505 O   0  0  0  0  0  0  0  0  0  0  0  0
   -2.0367   -9.0347   -0.6916 H   0  0  0  0  0  0  0  0  0  0  0  0
   -1.3978   -8.2353    0.7970 H   0  0  0  0  0  0  0  0  0  0  0  0
   -2.9811   -9.1197    0.8498 H   0  0  0  0  0  0  0  0  0  0  0  0
   -3.2954   -6.6196    1.9128 H   0  0  0  0  0  0  0  0  0  0  0  0
   -4.8233   -4.8716    1.6303 H   0  0  0  0  0  0  0  0  0  0  0  0
   -2.7278   -3.7656    1.6602 H   0  0  0  0  0  0  0  0  0  0  0  0
   -3.7683   -2.9468    0.4863 H   0  0  0  0  0  0  0  0  0  0  0  0
   -0.0714   -5.4429   -0.1011 H   0  0  0  0  0  0  0  0  0  0  0  0
   -0.8194   -4.8474    1.3950 H   0  0  0  0  0  0  0  0  0  0  0  0
   -0.8617   -2.1074    1.5254 H   0  0  0  0  0  0  0  0  0  0  0  0
    2.9134   -0.3977    0.3935 H   0  0  0  0  0  0  0  0  0  0  0  0
    1.9812   -4.4569   -0.6844 H   0  0  0  0  0  0  0  0  0  0  0  0
    3.7888   -2.0357   -1.9189 H   0  0  0  0  0  0  0  0  0  0  0  0
    4.1328   -3.6331   -1.1867 H   0  0  0  0  0  0  0  0  0  0  0  0
    6.8879   -3.0969    1.2500 H   0  0  0  0  0  0  0  0  0  0  0  0
    5.4865   -4.1034    0.7591 H   0  0  0  0  0  0  0  0  0  0  0  0
    6.3485   -4.1853   -1.5819 H   0  0  0  0  0  0  0  0  0  0  0  0
    8.0700   -3.6965   -3.3160 H   0  0  0  0  0  0  0  0  0  0  0  0
    9.1671   -2.2972   -3.0431 H   0  0  0  0  0  0  0  0  0  0  0  0
    7.1628   -5.9169   -0.0353 H   0  0  0  0  0  0  0  0  0  0  0  0
    9.8194   -4.0051    0.8523 H   0  0  0  0  0  0  0  0  0  0  0  0
    9.7993   -6.2370    1.9014 H   0  0  0  0  0  0  0  0  0  0  0  0
   11.4861   -5.6047    1.8891 H   0  0  0  0  0  0  0  0  0  0  0  0
   10.9961   -6.8576    0.6984 H   0  0  0  0  0  0  0  0  0  0  0  0
   11.7110   -5.0944   -1.2716 H   0  0  0  0  0  0  0  0  0  0  0  0
   10.8959   -2.0948    0.7170 H   0  0  0  0  0  0  0  0  0  0  0  0
   13.3559   -3.0245    2.3105 H   0  0  0  0  0  0  0  0  0  0  0  0
   11.6090   -3.4162    2.6074 H   0  0  0  0  0  0  0  0  0  0  0  0
   12.2138   -1.7509    2.8829 H   0  0  0  0  0  0  0  0  0  0  0  0
   13.7719   -1.1095    0.4495 H   0  0  0  0  0  0  0  0  0  0  0  0
   10.3078   -0.4135   -0.5521 H   0  0  0  0  0  0  0  0  0  0  0  0
    9.9722   -0.4487    1.9097 H   0  0  0  0  0  0  0  0  0  0  0  0
   10.2994    1.3027    2.0200 H   0  0  0  0  0  0  0  0  0  0  0  0
    8.8233    0.7034    1.1595 H   0  0  0  0  0  0  0  0  0  0  0  0
   10.2995    1.4853   -1.8330 H   0  0  0  0  0  0  0  0  0  0  0  0
    8.5862    4.4260   -0.0909 H   0  0  0  0  0  0  0  0  0  0  0  0
    8.6399    5.1910   -2.4590 H   0  0  0  0  0  0  0  0  0  0  0  0
   10.2702    5.2737   -1.6963 H   0  0  0  0  0  0  0  0  0  0  0  0
    9.8834    3.9342   -2.8450 H   0  0  0  0  0  0  0  0  0  0  0  0
    8.0699    2.1690   -2.0870 H   0  0  0  0  0  0  0  0  0  0  0  0
    4.6343    3.2937   -0.2510 H   0  0  0  0  0  0  0  0  0  0  0  0
    5.0188    5.5758    0.4313 H   0  0  0  0  0  0  0  0  0  0  0  0
    6.6435    5.6306   -0.3270 H   0  0  0  0  0  0  0  0  0  0  0  0
    6.3580    4.6446    1.1649 H   0  0  0  0  0  0  0  0  0  0  0  0
    6.0547    4.0396   -2.7621 H   0  0  0  0  0  0  0  0  0  0  0  0
    3.0851    4.8340   -0.6090 H   0  0  0  0  0  0  0  0  0  0  0  0
    2.8099    7.1774   -2.5800 H   0  0  0  0  0  0  0  0  0  0  0  0
    3.9781    7.0861   -1.2081 H   0  0  0  0  0  0  0  0  0  0  0  0
    2.2083    7.1082   -0.8844 H   0  0  0  0  0  0  0  0  0  0  0  0
    1.2285    5.2772   -2.9412 H   0  0  0  0  0  0  0  0  0  0  0  0
   -0.5336    3.4851   -0.7822 H   0  0  0  0  0  0  0  0  0  0  0  0
   -0.4296    1.2001   -1.5840 H   0  0  0  0  0  0  0  0  0  0  0  0
    1.1396    0.9163   -0.7871 H   0  0  0  0  0  0  0  0  0  0  0  0
    1.4613    0.8724    1.7851 H   0  0  0  0  0  0  0  0  0  0  0  0
    0.2480   -0.0269    2.7351 H   0  0  0  0  0  0  0  0  0  0  0  0
    2.1353    2.9549    0.6144 H   0  0  0  0  0  0  0  0  0  0  0  0
   -1.3476    4.1418    1.3018 H   0  0  0  0  0  0  0  0  0  0  0  0
   -0.8532    5.1079    3.5372 H   0  0  0  0  0  0  0  0  0  0  0  0
   -1.9838    6.1624    2.6124 H   0  0  0  0  0  0  0  0  0  0  0  0
   -0.2504    6.6322    2.7599 H   0  0  0  0  0  0  0  0  0  0  0  0
    0.0791    6.4039   -0.1067 H   0  0  0  0  0  0  0  0  0  0  0  0
   -3.2997    5.1958    0.8762 H   0  0  0  0  0  0  0  0  0  0  0  0
   -3.3116    7.6660    0.9522 H   0  0  0  0  0  0  0  0  0  0  0  0
   -3.9401    7.7397   -0.7431 H   0  0  0  0  0  0  0  0  0  0  0  0
   -4.9556    7.0323    0.5715 H   0  0  0  0  0  0  0  0  0  0  0  0
   -4.3146    5.4111   -1.9973 H   0  0  0  0  0  0  0  0  0  0  0  0
   -6.8007    2.9871   -0.3446 H   0  0  0  0  0  0  0  0  0  0  0  0
   -5.5978    3.2346    1.8660 H   0  0  0  0  0  0  0  0  0  0  0  0
   -5.7819    5.0314    1.7403 H   0  0  0  0  0  0  0  0  0  0  0  0
   -7.2346    3.9751    1.8830 H   0  0  0  0  0  0  0  0  0  0  0  0
   -6.5118    5.8678   -1.0660 H   0  0  0  0  0  0  0  0  0  0  0  0
   -8.9469    3.2512   -0.1246 H   0  0  0  0  0  0  0  0  0  0  0  0
   -9.5661    4.6417    1.9266 H   0  0  0  0  0  0  0  0  0  0  0  0
  -10.8944    5.3905    0.9579 H   0  0  0  0  0  0  0  0  0  0  0  0
  -10.9084    3.6293    1.3155 H   0  0  0  0  0  0  0  0  0  0  0  0
  -10.4013    5.0296   -1.9975 H   0  0  0  0  0  0  0  0  0  0  0  0
  -10.6568    1.8224   -0.1026 H   0  0  0  0  0  0  0  0  0  0  0  0
  -12.9227    2.7863    0.3341 H   0  0  0  0  0  0  0  0  0  0  0  0
  -12.9399    0.9857    0.3608 H   0  0  0  0  0  0  0  0  0  0  0  0
  -13.5775    1.8644   -1.0792 H   0  0  0  0  0  0  0  0  0  0  0  0
  -11.7805    0.6254   -2.6578 H   0  0  0  0  0  0  0  0  0  0  0  0
   -9.1893    0.1324   -0.1636 H   0  0  0  0  0  0  0  0  0  0  0  0
  -11.2340   -1.6633    1.2715 H   0  0  0  0  0  0  0  0  0  0  0  0
   -9.6773   -1.0732    2.0036 H   0  0  0  0  0  0  0  0  0  0  0  0
  -10.9425    0.0952    1.5085 H   0  0  0  0  0  0  0  0  0  0  0  0
   -8.0293   -1.7028   -0.8909 H   0  0  0  0  0  0  0  0  0  0  0  0
   -9.7624   -3.4208    1.6446 H   0  0  0  0  0  0  0  0  0  0  0  0
  -10.4394   -5.8901   -0.0714 H   0  0  0  0  0  0  0  0  0  0  0  0
  -11.5944   -4.5600    0.3234 H   0  0  0  0  0  0  0  0  0  0  0  0
  -10.9172   -5.5533    1.6469 H   0  0  0  0  0  0  0  0  0  0  0  0
   -7.3836   -4.1025    1.1055 H   0  0  0  0  0  0  0  0  0  0  0  0
   -6.0037   -6.8553    1.4767 H   0  0  0  0  0  0  0  0  0  0  0  0
   -7.9047   -8.2045   -0.5295 H   0  0  0  0  0  0  0  0  0  0  0  0
   -6.1782   -8.6560   -0.2339 H   0  0  0  0  0  0  0  0  0  0  0  0
   -7.3880   -8.8448    1.0838 H   0  0  0  0  0  0  0  0  0  0  0  0
   -6.9195   -5.9754   -1.3049 H   0  0  0  0  0  0  0  0  0  0  0  0
  1  2  1  0
  2  3  2  0
  2  4  1  0
  4  5  1  0
  5  6  1  0
  6  7  1  0
  7  8  1  0
  8  9  1  0
  9 10  2  0
 10 11  1  0
 11 12  2  0
 12 13  1  0
 13 14  2  0
 13 15  1  0
 15 16  1  0
 16 17  1  0
 17 18  1  0
 18 19  1  0
 19 20  1  0
 19 21  2  0
 18 22  1  0
 22 23  1  0
 23 24  2  0
 23 25  1  0
 25 26  1  0
 25 27  1  0
 27 28  1  0
 28 29  2  0
 28 30  1  0
 30 31  1  0
 30 32  1  0
 32 33  1  0
 33 34  2  0
 33 35  1  0
 35 36  1  0
 35 37  1  0
 37 38  1  0
 38 39  2  0
 38 40  1  0
 40 41  1  0
 40 42  1  0
 42 43  1  0
 43 44  2  0
 43 45  1  0
 45 46  1  0
 45 47  1  0
 47 48  1  0
 48 49  2  0
 48 50  1  0
 50 51  1  0
 50 52  1  0
 52 53  1  0
 53 54  2  0
 53 55  1  0
 55 56  1  0
 56 57  1  0
 57 58  1  0
 55 59  1  0
 59 60  1  0
 60 61  2  0
 60 62  1  0
 62 63  1  0
 62 64  1  0
 64 65  1  0
 65 66  2  0
 65 67  1  0
 67 68  1  0
 67 69  1  0
 69 70  1  0
 70 71  2  0
 70 72  1  0
 72 73  1  0
 72 74  1  0
 74 75  1  0
 75 76  2  0
 75 77  1  0
 77 78  1  0
 77 79  1  0
 79 80  1  0
 80 81  2  0
 80 82  1  0
 82 83  1  0
 82 84  1  0
 84 85  1  0
 85 86  2  0
 85 87  1  0
 87 88  1  0
 87 89  1  0
 89 90  1  0
 90 91  2  0
 90 92  1  0
 92 93  1  0
 92 94  1  0
 94 95  1  0
 95 96  2  0
 95 97  1  0
 97 98  1  0
 97 99  1  0
 99100  1  0
100101  2  0
100  5  1  0
 14  9  1  0
 58 11  1  0
  1102  1  0
  1103  1  0
  1104  1  0
  4105  1  0
  5106  1  1
  6107  1  0
  6108  1  0
  8109  1  0
  8110  1  0
 10111  1  0
 12112  1  0
 14113  1  0
 15114  1  0
 15115  1  0
 17116  1  0
 17117  1  0
 18118  1  6
 20119  1  0
 20120  1  0
 22121  1  0
 25122  1  1
 26123  1  0
 26124  1  0
 26125  1  0
 27126  1  0
 30127  1  1
 31128  1  0
 31129  1  0
 31130  1  0
 32131  1  0
 35132  1  6
 36133  1  0
 36134  1  0
 36135  1  0
 37136  1  0
 40137  1  1
 41138  1  0
 41139  1  0
 41140  1  0
 42141  1  0
 45142  1  1
 46143  1  0
 46144  1  0
 46145  1  0
 47146  1  0
 50147  1  1
 51148  1  0
 51149  1  0
 51150  1  0
 52151  1  0
 55152  1  1
 56153  1  0
 56154  1  0
 58155  1  0
 58156  1  0
 59157  1  0
 62158  1  6
 63159  1  0
 63160  1  0
 63161  1  0
 64162  1  0
 67163  1  1
 68164  1  0
 68165  1  0
 68166  1  0
 69167  1  0
 72168  1  1
 73169  1  0
 73170  1  0
 73171  1  0
 74172  1  0
 77173  1  1
 78174  1  0
 78175  1  0
 78176  1  0
 79177  1  0
 82178  1  1
 83179  1  0
 83180  1  0
 83181  1  0
 84182  1  0
 87183  1  1
 88184  1  0
 88185  1  0
 88186  1  0
 89187  1  0
 92188  1  1
 93189  1  0
 93190  1  0
 93191  1  0
 94192  1  0
 97193  1  1
 98194  1  0
 98195  1  0
 98196  1  0
 99197  1  0
M  END
