
     RDKit          3D

207209  0  0  0  0  0  0  0  0999 V2000
    2.1516    8.3446    0.5652 C   0  0  0  0  0  0  0  0  0  0  0  0
    2.5795    8.8006   -0.7966 C   0  0  0  0  0  0  0  0  0  0  0  0
    1.8985    9.6966   -1.3632 O   0  0  0  0  0  0  0  0  0  0  0  0
    3.7404    8.2822   -1.4707 N   0  0  0  0  0  0  0  0  0  0  0  0
    4.3956    6.9986   -1.1546 C   0  0  1  0  0  0  0  0  0  0  0  0
    3.4719    5.8270   -1.5420 C   0  0  0  0  0  0  0  0  0  0  0  0
    4.0800    4.2478   -0.8283 S   0  0  0  0  0  0  0  0  0  0  0  0
    2.9056    4.1772    0.5722 C   0  0  0  0  0  0  0  0  0  0  0  0
    1.5880    3.6052    0.1176 C   0  0  0  0  0  0  0  0  0  0  0  0
    1.4795    2.2319   -0.1400 C   0  0  0  0  0  0  0  0  0  0  0  0
    0.2379    1.6641   -0.4667 C   0  0  0  0  0  0  0  0  0  0  0  0
   -0.9003    2.4789   -0.5236 C   0  0  0  0  0  0  0  0  0  0  0  0
   -0.8010    3.8606   -0.3148 C   0  0  0  0  0  0  0  0  0  0  0  0
    0.4463    4.4131    0.0212 C   0  0  0  0  0  0  0  0  0  0  0  0
   -2.0307    4.7210   -0.3174 C   0  0  0  0  0  0  0  0  0  0  0  0
   -2.6171    4.9148    1.4024 S   0  0  0  0  0  0  0  0  0  0  0  0
   -4.2351    4.0516    1.2166 C   0  0  0  0  0  0  0  0  0  0  0  0
   -5.4067    4.9259    0.6818 C   0  0  1  0  0  0  0  0  0  0  0  0
   -5.0927    6.4071    0.5928 C   0  0  0  0  0  0  0  0  0  0  0  0
   -4.9644    7.0822   -0.6633 N   0  0  0  0  0  0  0  0  0  0  0  0
   -4.9258    7.0644    1.6545 O   0  0  0  0  0  0  0  0  0  0  0  0
   -5.8844    4.4000   -0.6058 N   0  0  0  0  0  0  0  0  0  0  0  0
   -7.2440    4.0682   -0.9364 C   0  0  0  0  0  0  0  0  0  0  0  0
   -7.5410    3.8903   -2.1507 O   0  0  0  0  0  0  0  0  0  0  0  0
   -8.3356    3.9544    0.1079 C   0  0  1  0  0  0  0  0  0  0  0  0
   -8.8729    5.3441    0.4643 C   0  0  0  0  0  0  0  0  0  0  0  0
   -9.3958    3.0411   -0.3547 N   0  0  0  0  0  0  0  0  0  0  0  0
  -10.7186    3.4448   -0.7260 C   0  0  0  0  0  0  0  0  0  0  0  0
  -10.9758    3.6690   -1.9402 O   0  0  0  0  0  0  0  0  0  0  0  0
  -11.8200    3.5122    0.3014 C   0  0  1  0  0  0  0  0  0  0  0  0
  -12.4499    4.9128    0.3332 C   0  0  0  0  0  0  0  0  0  0  0  0
  -12.8530    2.5153   -0.0124 N   0  0  0  0  0  0  0  0  0  0  0  0
  -12.7111    1.0882    0.1310 C   0  0  0  0  0  0  0  0  0  0  0  0
  -13.6406    0.3485   -0.2908 O   0  0  0  0  0  0  0  0  0  0  0  0
  -11.5068    0.4361    0.7698 C   0  0  1  0  0  0  0  0  0  0  0  0
  -11.9501   -0.2905    2.0521 C   0  0  0  0  0  0  0  0  0  0  0  0
  -10.8863   -0.4702   -0.2042 N   0  0  0  0  0  0  0  0  0  0  0  0
  -10.3474   -1.7556    0.1286 C   0  0  0  0  0  0  0  0  0  0  0  0
   -9.3176   -1.8278    0.8518 O   0  0  0  0  0  0  0  0  0  0  0  0
  -11.0376   -3.0248   -0.3076 C   0  0  1  0  0  0  0  0  0  0  0  0
  -12.1534   -2.7741   -1.3267 C   0  0  0  0  0  0  0  0  0  0  0  0
  -10.0547   -3.9460   -0.8794 N   0  0  0  0  0  0  0  0  0  0  0  0
  -10.0282   -5.3208   -0.4873 C   0  0  0  0  0  0  0  0  0  0  0  0
  -10.7655   -6.1478   -1.0862 O   0  0  0  0  0  0  0  0  0  0  0  0
   -9.1779   -5.7612    0.6767 C   0  0  1  0  0  0  0  0  0  0  0  0
  -10.0083   -5.8156    1.9605 C   0  0  0  0  0  0  0  0  0  0  0  0
   -8.6042   -7.0829    0.4010 N   0  0  0  0  0  0  0  0  0  0  0  0
   -7.2091   -7.3698    0.1855 C   0  0  0  0  0  0  0  0  0  0  0  0
   -6.8270   -8.5674    0.2690 O   0  0  0  0  0  0  0  0  0  0  0  0
   -6.1763   -6.3107   -0.1456 C   0  0  1  0  0  0  0  0  0  0  0  0
   -6.6264   -5.4298   -1.3287 C   0  0  0  0  0  0  0  0  0  0  0  0
   -5.8558   -5.5085    1.0452 N   0  0  0  0  0  0  0  0  0  0  0  0
   -4.7519   -4.5906    1.1665 C   0  0  0  0  0  0  0  0  0  0  0  0
   -4.6433   -3.9205    2.2281 O   0  0  0  0  0  0  0  0  0  0  0  0
   -3.7116   -4.4045    0.0890 C   0  0  1  0  0  0  0  0  0  0  0  0
   -3.8752   -3.0307   -0.5711 C   0  0  0  0  0  0  0  0  0  0  0  0
   -2.3740   -4.6005    0.6658 N   0  0  0  0  0  0  0  0  0  0  0  0
   -1.4977   -3.5338    1.0306 C   0  0  0  0  0  0  0  0  0  0  0  0
   -1.6529   -2.9659    2.1476 O   0  0  0  0  0  0  0  0  0  0  0  0
   -0.4157   -3.0935    0.0742 C   0  0  1  0  0  0  0  0  0  0  0  0
    0.6669   -2.1908    0.7084 C   0  0  0  0  0  0  0  0  0  0  0  0
    0.0283   -0.5209    1.1113 S   0  0  0  0  0  0  0  0  0  0  0  0
    0.1101    0.1726   -0.5781 C   0  0  0  0  0  0  0  0  0  0  0  0
    0.1912   -4.2561   -0.5930 N   0  0  0  0  0  0  0  0  0  0  0  0
    0.7388   -5.4286    0.0433 C   0  0  0  0  0  0  0  0  0  0  0  0
    0.8333   -6.4837   -0.6405 O   0  0  0  0  0  0  0  0  0  0  0  0
    1.2621   -5.4157    1.4681 C   0  0  1  0  0  0  0  0  0  0  0  0
    1.2310   -6.7964    2.1329 C   0  0  0  0  0  0  0  0  0  0  0  0
    2.6140   -4.8395    1.5424 N   0  0  0  0  0  0  0  0  0  0  0  0
    3.6021   -4.9282    0.5045 C   0  0  0  0  0  0  0  0  0  0  0  0
    4.1436   -3.8651    0.0938 O   0  0  0  0  0  0  0  0  0  0  0  0
    4.1060   -6.2651    0.0136 C   0  0  1  0  0  0  0  0  0  0  0  0
    4.6012   -6.1805   -1.4400 C   0  0  0  0  0  0  0  0  0  0  0  0
    5.1169   -6.7698    0.9551 N   0  0  0  0  0  0  0  0  0  0  0  0
    6.3721   -7.3838    0.6099 C   0  0  0  0  0  0  0  0  0  0  0  0
    6.4898   -8.6287    0.7639 O   0  0  0  0  0  0  0  0  0  0  0  0
    7.5854   -6.5844    0.1684 C   0  0  1  0  0  0  0  0  0  0  0  0
    8.0134   -7.0113   -1.2471 C   0  0  0  0  0  0  0  0  0  0  0  0
    7.3527   -5.1298    0.2512 N   0  0  0  0  0  0  0  0  0  0  0  0
    8.2018   -4.1248   -0.3184 C   0  0  0  0  0  0  0  0  0  0  0  0
    7.6583   -3.1198   -0.8548 O   0  0  0  0  0  0  0  0  0  0  0  0
    9.7076   -4.2040   -0.2323 C   0  0  1  0  0  0  0  0  0  0  0  0
   10.3611   -3.9200   -1.5957 C   0  0  0  0  0  0  0  0  0  0  0  0
   10.2244   -3.2890    0.7905 N   0  0  0  0  0  0  0  0  0  0  0  0
   10.1983   -1.8585    0.6653 C   0  0  0  0  0  0  0  0  0  0  0  0
    9.1001   -1.2672    0.4897 O   0  0  0  0  0  0  0  0  0  0  0  0
   11.4591   -1.0280    0.7159 C   0  0  1  0  0  0  0  0  0  0  0  0
   12.7190   -1.8573    0.9979 C   0  0  0  0  0  0  0  0  0  0  0  0
   11.6193   -0.3390   -0.5709 N   0  0  0  0  0  0  0  0  0  0  0  0
   11.9097    1.0590   -0.7334 C   0  0  0  0  0  0  0  0  0  0  0  0
   11.8166    1.5641   -1.8842 O   0  0  0  0  0  0  0  0  0  0  0  0
   12.3423    1.9317    0.4342 C   0  0  1  0  0  0  0  0  0  0  0  0
   13.1377    3.1687   -0.0129 C   0  0  0  0  0  0  0  0  0  0  0  0
   11.2098    2.3120    1.2921 N   0  0  0  0  0  0  0  0  0  0  0  0
    9.8773    2.5847    0.8243 C   0  0  0  0  0  0  0  0  0  0  0  0
    8.9352    1.8371    1.1974 O   0  0  0  0  0  0  0  0  0  0  0  0
    9.5744    3.8031   -0.0111 C   0  0  1  0  0  0  0  0  0  0  0  0
    8.8918    3.4076   -1.3224 C   0  0  0  0  0  0  0  0  0  0  0  0
    8.7087    4.7300    0.7215 N   0  0  0  0  0  0  0  0  0  0  0  0
    8.6010    6.0974    0.3394 C   0  0  0  0  0  0  0  0  0  0  0  0
    9.6394    6.7515    0.0419 O   0  0  0  0  0  0  0  0  0  0  0  0
    7.2439    6.7341    0.1625 C   0  0  1  0  0  0  0  0  0  0  0  0
    7.1712    8.0630    0.9182 C   0  0  0  0  0  0  0  0  0  0  0  0
    6.9972    6.9524   -1.2636 N   0  0  0  0  0  0  0  0  0  0  0  0
    5.7111    6.9071   -1.9136 C   0  0  0  0  0  0  0  0  0  0  0  0
    5.6813    6.8555   -3.1754 O   0  0  0  0  0  0  0  0  0  0  0  0
    2.9271    7.7611    1.0976 H   0  0  0  0  0  0  0  0  0  0  0  0
    1.9184    9.2343    1.1937 H   0  0  0  0  0  0  0  0  0  0  0  0
    1.2296    7.7356    0.4815 H   0  0  0  0  0  0  0  0  0  0  0  0
    4.0972    8.8356   -2.2796 H   0  0  0  0  0  0  0  0  0  0  0  0
    4.5918    6.9568   -0.0707 H   0  0  0  0  0  0  0  0  0  0  0  0
    2.4328    6.0311   -1.2122 H   0  0  0  0  0  0  0  0  0  0  0  0
    3.4266    5.7143   -2.6448 H   0  0  0  0  0  0  0  0  0  0  0  0
    3.3368    3.5226    1.3631 H   0  0  0  0  0  0  0  0  0  0  0  0
    2.7781    5.1862    1.0229 H   0  0  0  0  0  0  0  0  0  0  0  0
    2.3508    1.5956   -0.0469 H   0  0  0  0  0  0  0  0  0  0  0  0
   -1.8702    2.0410   -0.7068 H   0  0  0  0  0  0  0  0  0  0  0  0
    0.5165    5.4705    0.2500 H   0  0  0  0  0  0  0  0  0  0  0  0
   -1.7793    5.7266   -0.7194 H   0  0  0  0  0  0  0  0  0  0  0  0
   -2.8035    4.2913   -0.9880 H   0  0  0  0  0  0  0  0  0  0  0  0
   -4.5069    3.6807    2.2305 H   0  0  0  0  0  0  0  0  0  0  0  0
   -4.1038    3.1406    0.5969 H   0  0  0  0  0  0  0  0  0  0  0  0
   -6.2168    4.8547    1.4324 H   0  0  0  0  0  0  0  0  0  0  0  0
   -5.2253    6.6252   -1.5686 H   0  0  0  0  0  0  0  0  0  0  0  0
   -4.6601    8.0851   -0.6852 H   0  0  0  0  0  0  0  0  0  0  0  0
   -5.1813    4.3124   -1.3768 H   0  0  0  0  0  0  0  0  0  0  0  0
   -7.9059    3.5003    1.0285 H   0  0  0  0  0  0  0  0  0  0  0  0
   -9.5426    5.2692    1.3431 H   0  0  0  0  0  0  0  0  0  0  0  0
   -8.0491    6.0382    0.7273 H   0  0  0  0  0  0  0  0  0  0  0  0
   -9.4145    5.7889   -0.3961 H   0  0  0  0  0  0  0  0  0  0  0  0
   -9.1044    2.0790   -0.6450 H   0  0  0  0  0  0  0  0  0  0  0  0
  -11.4123    3.3131    1.3156 H   0  0  0  0  0  0  0  0  0  0  0  0
  -13.2932    4.9275    1.0568 H   0  0  0  0  0  0  0  0  0  0  0  0
  -12.8378    5.1957   -0.6676 H   0  0  0  0  0  0  0  0  0  0  0  0
  -11.7104    5.6653    0.6603 H   0  0  0  0  0  0  0  0  0  0  0  0
  -13.7515    2.8486   -0.4276 H   0  0  0  0  0  0  0  0  0  0  0  0
  -10.7525    1.1906    1.0666 H   0  0  0  0  0  0  0  0  0  0  0  0
  -11.0656   -0.6545    2.6133 H   0  0  0  0  0  0  0  0  0  0  0  0
  -12.6067   -1.1535    1.8029 H   0  0  0  0  0  0  0  0  0  0  0  0
  -12.5075    0.4067    2.7134 H   0  0  0  0  0  0  0  0  0  0  0  0
  -10.7304   -0.1203   -1.1796 H   0  0  0  0  0  0  0  0  0  0  0  0
  -11.5044   -3.4775    0.5926 H   0  0  0  0  0  0  0  0  0  0  0  0
  -12.6083   -3.7413   -1.6338 H   0  0  0  0  0  0  0  0  0  0  0  0
  -11.7555   -2.2699   -2.2317 H   0  0  0  0  0  0  0  0  0  0  0  0
  -12.9528   -2.1491   -0.8770 H   0  0  0  0  0  0  0  0  0  0  0  0
   -9.5455   -3.6718   -1.7477 H   0  0  0  0  0  0  0  0  0  0  0  0
   -8.3852   -5.0064    0.8387 H   0  0  0  0  0  0  0  0  0  0  0  0
  -10.8870   -6.4868    1.8349 H   0  0  0  0  0  0  0  0  0  0  0  0
  -10.3605   -4.8002    2.2371 H   0  0  0  0  0  0  0  0  0  0  0  0
   -9.3805   -6.2035    2.7957 H   0  0  0  0  0  0  0  0  0  0  0  0
   -9.2579   -7.9005    0.4052 H   0  0  0  0  0  0  0  0  0  0  0  0
   -5.2610   -6.8583   -0.4600 H   0  0  0  0  0  0  0  0  0  0  0  0
   -7.1260   -4.5032   -0.9823 H   0  0  0  0  0  0  0  0  0  0  0  0
   -5.7546   -5.1361   -1.9456 H   0  0  0  0  0  0  0  0  0  0  0  0
   -7.3167   -5.9873   -1.9992 H   0  0  0  0  0  0  0  0  0  0  0  0
   -6.4345   -5.6448    1.9052 H   0  0  0  0  0  0  0  0  0  0  0  0
   -3.8254   -5.1652   -0.7062 H   0  0  0  0  0  0  0  0  0  0  0  0
   -3.1559   -2.9230   -1.4108 H   0  0  0  0  0  0  0  0  0  0  0  0
   -3.7184   -2.2106    0.1629 H   0  0  0  0  0  0  0  0  0  0  0  0
   -4.9063   -2.9276   -0.9798 H   0  0  0  0  0  0  0  0  0  0  0  0
   -2.1039   -5.5680    0.9614 H   0  0  0  0  0  0  0  0  0  0  0  0
   -0.9123   -2.4901   -0.7105 H   0  0  0  0  0  0  0  0  0  0  0  0
    1.0200   -2.6270    1.6580 H   0  0  0  0  0  0  0  0  0  0  0  0
    1.5476   -2.1153    0.0337 H   0  0  0  0  0  0  0  0  0  0  0  0
   -0.8128   -0.1006   -1.1373 H   0  0  0  0  0  0  0  0  0  0  0  0
    0.9820   -0.2296   -1.1388 H   0  0  0  0  0  0  0  0  0  0  0  0
    0.0593   -4.3087   -1.6285 H   0  0  0  0  0  0  0  0  0  0  0  0
    0.5892   -4.7935    2.0881 H   0  0  0  0  0  0  0  0  0  0  0  0
    0.1830   -7.1668    2.1861 H   0  0  0  0  0  0  0  0  0  0  0  0
    1.6251   -6.7228    3.1703 H   0  0  0  0  0  0  0  0  0  0  0  0
    1.8425   -7.5463    1.5876 H   0  0  0  0  0  0  0  0  0  0  0  0
    2.7608   -4.0784    2.2471 H   0  0  0  0  0  0  0  0  0  0  0  0
    3.2707   -6.9880   -0.0011 H   0  0  0  0  0  0  0  0  0  0  0  0
    3.7567   -5.8887   -2.1041 H   0  0  0  0  0  0  0  0  0  0  0  0
    4.9764   -7.1660   -1.7814 H   0  0  0  0  0  0  0  0  0  0  0  0
    5.3954   -5.4158   -1.5466 H   0  0  0  0  0  0  0  0  0  0  0  0
    4.7731   -6.9641    1.9249 H   0  0  0  0  0  0  0  0  0  0  0  0
    8.4167   -6.8443    0.8631 H   0  0  0  0  0  0  0  0  0  0  0  0
    9.0561   -6.6946   -1.4502 H   0  0  0  0  0  0  0  0  0  0  0  0
    7.3627   -6.5648   -2.0268 H   0  0  0  0  0  0  0  0  0  0  0  0
    7.9844   -8.1186   -1.3523 H   0  0  0  0  0  0  0  0  0  0  0  0
    6.5034   -4.7693    0.7366 H   0  0  0  0  0  0  0  0  0  0  0  0
   10.0063   -5.2322    0.0629 H   0  0  0  0  0  0  0  0  0  0  0  0
   10.0238   -4.6680   -2.3481 H   0  0  0  0  0  0  0  0  0  0  0  0
   10.0993   -2.9059   -1.9655 H   0  0  0  0  0  0  0  0  0  0  0  0
   11.4636   -3.9882   -1.5064 H   0  0  0  0  0  0  0  0  0  0  0  0
   10.7705   -3.7038    1.5802 H   0  0  0  0  0  0  0  0  0  0  0  0
   11.3401   -0.2969    1.5437 H   0  0  0  0  0  0  0  0  0  0  0  0
   12.6585   -2.3216    2.0022 H   0  0  0  0  0  0  0  0  0  0  0  0
   12.8560   -2.6475    0.2294 H   0  0  0  0  0  0  0  0  0  0  0  0
   13.6109   -1.1948    0.9856 H   0  0  0  0  0  0  0  0  0  0  0  0
   11.5254   -0.9087   -1.4424 H   0  0  0  0  0  0  0  0  0  0  0  0
   13.0527    1.3308    1.0511 H   0  0  0  0  0  0  0  0  0  0  0  0
   12.5880    3.7715   -0.7632 H   0  0  0  0  0  0  0  0  0  0  0  0
   14.0999    2.8520   -0.4692 H   0  0  0  0  0  0  0  0  0  0  0  0
   13.3616    3.8144    0.8645 H   0  0  0  0  0  0  0  0  0  0  0  0
   11.2935    2.0656    2.3057 H   0  0  0  0  0  0  0  0  0  0  0  0
   10.5229    4.3228   -0.2510 H   0  0  0  0  0  0  0  0  0  0  0  0
    8.7106    4.3098   -1.9438 H   0  0  0  0  0  0  0  0  0  0  0  0
    7.9171    2.9132   -1.1203 H   0  0  0  0  0  0  0  0  0  0  0  0
    9.5274    2.7134   -1.9041 H   0  0  0  0  0  0  0  0  0  0  0  0
    8.2514    4.4348    1.6217 H   0  0  0  0  0  0  0  0  0  0  0  0
    6.4868    6.0343    0.5776 H   0  0  0  0  0  0  0  0  0  0  0  0
    7.3283    7.8929    2.0065 H   0  0  0  0  0  0  0  0  0  0  0  0
    7.9418    8.7738    0.5430 H   0  0  0  0  0  0  0  0  0  0  0  0
    6.1725    8.5331    0.7824 H   0  0  0  0  0  0  0  0  0  0  0  0
    7.8180    7.1110   -1.8921 H   0  0  0  0  0  0  0  0  0  0  0  0
  1  2  1  0
  2  3  2  0
  2  4  1  0
  4  5  1  0
  5  6  1  0
  6  7  1  0
  7  8  1  0
  8  9  1  0
  9 10  2  0
 10 11  1  0
 11 12  2  0
 12 13  1  0
 13 14  2  0
 13 15  1  0
 15 16  1  0
 16 17  1  0
 17 18  1  0
 18 19  1  0
 19 20  1  0
 19 21  2  0
 18 22  1  0
 22 23  1  0
 23 24  2  0
 23 25  1  0
 25 26  1  0
 25 27  1  0
 27 28  1  0
 28 29  2  0
 28 30  1  0
 30 31  1  0
 30 32  1  0
 32 33  1  0
 33 34  2  0
 33 35  1  0
 35 36  1  0
 35 37  1  0
 37 38  1  0
 38 39  2  0
 38 40  1  0
 40 41  1  0
 40 42  1  0
 42 43  1  0
 43 44  2  0
 43 45  1  0
 45 46  1  0
 45 47  1  0
 47 48  1  0
 48 49  2  0
 48 50  1  0
 50 51  1  0
 50 52  1  0
 52 53  1  0
 53 54  2  0
 53 55  1  0
 55 56  1  0
 55 57  1  0
 57 58  1  0
 58 59  2  0
 58 60  1  0
 60 61  1  0
 61 62  1  0
 62 63  1  0
 60 64  1  0
 64 65  1  0
 65 66  2  0
 65 67  1  0
 67 68  1  0
 67 69  1  0
 69 70  1  0
 70 71  2  0
 70 72  1  0
 72 73  1  0
 72 74  1  0
 74 75  1  0
 75 76  2  0
 75 77  1  0
 77 78  1  0
 77 79  1  0
 79 80  1  0
 80 81  2  0
 80 82  1  0
 82 83  1  0
 82 84  1  0
 84 85  1  0
 85 86  2  0
 85 87  1  0
 87 88  1  0
 87 89  1  0
 89 90  1  0
 90 91  2  0
 90 92  1  0
 92 93  1  0
 92 94  1  0
 94 95  1  0
 95 96  2  0
 95 97  1  0
 97 98  1  0
 97 99  1  0
 99100  1  0
100101  2  0
100102  1  0
102103  1  0
102104  1  0
104105  1  0
105106  2  0
105  5  1  0
 14  9  1  0
 63 11  1  0
  1107  1  0
  1108  1  0
  1109  1  0
  4110  1  0
  5111  1  1
  6112  1  0
  6113  1  0
  8114  1  0
  8115  1  0
 10116  1  0
 12117  1  0
 14118  1  0
 15119  1  0
 15120  1  0
 17121  1  0
 17122  1  0
 18123  1  1
 20124  1  0
 20125  1  0
 22126  1  0
 25127  1  1
 26128  1  0
 26129  1  0
 26130  1  0
 27131  1  0
 30132  1  1
 31133  1  0
 31134  1  0
 31135  1  0
 32136  1  0
 35137  1  1
 36138  1  0
 36139  1  0
 36140  1  0
 37141  1  0
 40142  1  1
 41143  1  0
 41144  1  0
 41145  1  0
 42146  1  0
 45147  1  1
 46148  1  0
 46149  1  0
 46150  1  0
 47151  1  0
 50152  1  6
 51153  1  0
 51154  1  0
 51155  1  0
 52156  1  0
 55157  1  6
 56158  1  0
 56159  1  0
 56160  1  0
 57161  1  0
 60162  1  6
 61163  1  0
 61164  1  0
 63165  1  0
 63166  1  0
 64167  1  0
 67168  1  1
 68169  1  0
 68170  1  0
 68171  1  0
 69172  1  0
 72173  1  6
 73174  1  0
 73175  1  0
 73176  1  0
 74177  1  0
 77178  1  1
 78179  1  0
 78180  1  0
 78181  1  0
 79182  1  0
 82183  1  1
 83184  1  0
 83185  1  0
 83186  1  0
 84187  1  0
 87188  1  1
 88189  1  0
 88190  1  0
 88191  1  0
 89192  1  0
 92193  1  1
 93194  1  0
 93195  1  0
 93196  1  0
 94197  1  0
 97198  1  6
 98199  1  0
 98200  1  0
 98201  1  0
 99202  1  0
102203  1  1
103204  1  0
103205  1  0
103206  1  0
104207  1  0
M  END
