
     RDKit          3D

207209  0  0  0  0  0  0  0  0999 V2000
   -4.1752  -10.6806    0.2089 C   0  0  0  0  0  0  0  0  0  0  0  0
   -4.6895   -9.8293    1.3306 C   0  0  0  0  0  0  0  0  0  0  0  0
   -5.3162  -10.3781    2.2766 O   0  0  0  0  0  0  0  0  0  0  0  0
   -4.4754   -8.4049    1.3666 N   0  0  0  0  0  0  0  0  0  0  0  0
   -3.9019   -7.6361    0.2552 C   0  0  2  0  0  0  0  0  0  0  0  0
   -3.5952   -6.1890    0.6801 C   0  0  0  0  0  0  0  0  0  0  0  0
   -2.9300   -5.2148   -0.7221 S   0  0  0  0  0  0  0  0  0  0  0  0
   -2.3099   -3.7929    0.2700 C   0  0  0  0  0  0  0  0  0  0  0  0
   -0.9554   -3.2890   -0.1777 C   0  0  0  0  0  0  0  0  0  0  0  0
   -0.0880   -4.0440   -0.9895 C   0  0  0  0  0  0  0  0  0  0  0  0
    1.1929   -3.5782   -1.3013 C   0  0  0  0  0  0  0  0  0  0  0  0
    1.6086   -2.3206   -0.8384 C   0  0  0  0  0  0  0  0  0  0  0  0
    0.7706   -1.5550   -0.0112 C   0  0  0  0  0  0  0  0  0  0  0  0
   -0.4907   -2.0724    0.3505 C   0  0  0  0  0  0  0  0  0  0  0  0
    1.2674   -0.2571    0.5800 C   0  0  0  0  0  0  0  0  0  0  0  0
   -0.0303    1.0370    0.5246 S   0  0  0  0  0  0  0  0  0  0  0  0
    0.9357    2.2812   -0.4040 C   0  0  0  0  0  0  0  0  0  0  0  0
    0.0510    3.5017   -0.7074 C   0  0  1  0  0  0  0  0  0  0  0  0
   -0.1653    4.3358    0.4778 N   0  0  0  0  0  0  0  0  0  0  0  0
   -1.4853    4.5272    1.0070 C   0  0  0  0  0  0  0  0  0  0  0  0
   -2.2338    3.5313    1.1857 O   0  0  0  0  0  0  0  0  0  0  0  0
   -2.0578    5.9116    1.2011 C   0  0  1  0  0  0  0  0  0  0  0  0
   -1.0421    6.8932    1.7930 C   0  0  0  0  0  0  0  0  0  0  0  0
   -2.5355    6.4136   -0.0972 N   0  0  0  0  0  0  0  0  0  0  0  0
   -3.5296    7.4309   -0.2903 C   0  0  0  0  0  0  0  0  0  0  0  0
   -3.8308    7.7627   -1.4707 O   0  0  0  0  0  0  0  0  0  0  0  0
   -4.2391    8.1295    0.8535 C   0  0  1  0  0  0  0  0  0  0  0  0
   -3.7861    9.5936    0.9105 C   0  0  0  0  0  0  0  0  0  0  0  0
   -5.6918    8.0489    0.6574 N   0  0  0  0  0  0  0  0  0  0  0  0
   -6.3569    6.7785    0.5216 C   0  0  0  0  0  0  0  0  0  0  0  0
   -5.8690    5.7575    1.0761 O   0  0  0  0  0  0  0  0  0  0  0  0
   -7.5944    6.6689   -0.3410 C   0  0  1  0  0  0  0  0  0  0  0  0
   -7.2878    7.1665   -1.7629 C   0  0  0  0  0  0  0  0  0  0  0  0
   -8.0899    5.2884   -0.3891 N   0  0  0  0  0  0  0  0  0  0  0  0
   -9.3717    4.9929   -0.9560 C   0  0  0  0  0  0  0  0  0  0  0  0
   -9.4541    4.7806   -2.1981 O   0  0  0  0  0  0  0  0  0  0  0  0
  -10.5992    4.9028   -0.0904 C   0  0  1  0  0  0  0  0  0  0  0  0
  -11.0521    6.2953    0.3537 C   0  0  0  0  0  0  0  0  0  0  0  0
  -11.6893    4.2492   -0.8295 N   0  0  0  0  0  0  0  0  0  0  0  0
  -11.8545    2.8277   -0.9739 C   0  0  0  0  0  0  0  0  0  0  0  0
  -12.7265    2.4007   -1.7820 O   0  0  0  0  0  0  0  0  0  0  0  0
  -11.1012    1.8318   -0.1218 C   0  0  1  0  0  0  0  0  0  0  0  0
  -11.9116    1.5531    1.1576 C   0  0  0  0  0  0  0  0  0  0  0  0
  -10.8284    0.6188   -0.9128 N   0  0  0  0  0  0  0  0  0  0  0  0
  -11.4064   -0.6672   -0.6615 C   0  0  0  0  0  0  0  0  0  0  0  0
  -12.3225   -1.0889   -1.4182 O   0  0  0  0  0  0  0  0  0  0  0  0
  -10.8452   -1.5485    0.4244 C   0  0  1  0  0  0  0  0  0  0  0  0
  -11.9593   -2.2499    1.2121 C   0  0  0  0  0  0  0  0  0  0  0  0
   -9.8946   -2.5226   -0.1262 N   0  0  0  0  0  0  0  0  0  0  0  0
  -10.3182   -3.6591   -0.8934 C   0  0  0  0  0  0  0  0  0  0  0  0
  -10.9149   -3.4924   -1.9924 O   0  0  0  0  0  0  0  0  0  0  0  0
  -10.0123   -5.0373   -0.3822 C   0  0  1  0  0  0  0  0  0  0  0  0
  -11.1552   -6.0141   -0.6815 C   0  0  0  0  0  0  0  0  0  0  0  0
   -8.7690   -5.5213   -0.9721 N   0  0  0  0  0  0  0  0  0  0  0  0
   -7.5747   -5.6113   -0.1944 C   0  0  0  0  0  0  0  0  0  0  0  0
   -6.9405   -4.5509    0.0877 O   0  0  0  0  0  0  0  0  0  0  0  0
   -6.9970   -6.9515    0.1657 C   0  0  1  0  0  0  0  0  0  0  0  0
   -8.0861   -7.9661    0.5259 C   0  0  0  0  0  0  0  0  0  0  0  0
   -6.2064   -7.4643   -0.9650 N   0  0  0  0  0  0  0  0  0  0  0  0
   -4.7881   -7.6966   -0.9750 C   0  0  0  0  0  0  0  0  0  0  0  0
   -4.2452   -7.9987   -2.0705 O   0  0  0  0  0  0  0  0  0  0  0  0
    0.5375    4.3386   -1.8793 C   0  0  0  0  0  0  0  0  0  0  0  0
   -0.2632    4.5040   -2.8431 O   0  0  0  0  0  0  0  0  0  0  0  0
    1.8410    4.9491   -1.9848 N   0  0  0  0  0  0  0  0  0  0  0  0
    2.8423    5.1097   -0.9326 C   0  0  2  0  0  0  0  0  0  0  0  0
    2.8064    6.5538   -0.4226 C   0  0  0  0  0  0  0  0  0  0  0  0
    4.2197    4.7637   -1.4557 C   0  0  0  0  0  0  0  0  0  0  0  0
    4.3415    4.2133   -2.5884 O   0  0  0  0  0  0  0  0  0  0  0  0
    5.3849    4.9652   -0.6501 N   0  0  0  0  0  0  0  0  0  0  0  0
    6.1959    6.1862   -0.7412 C   0  0  2  0  0  0  0  0  0  0  0  0
    6.6925    6.4386   -2.1711 C   0  0  0  0  0  0  0  0  0  0  0  0
    7.3487    6.1278    0.2265 C   0  0  0  0  0  0  0  0  0  0  0  0
    7.4124    6.9752    1.1548 O   0  0  0  0  0  0  0  0  0  0  0  0
    8.3595    5.1138    0.0936 N   0  0  0  0  0  0  0  0  0  0  0  0
    9.4002    4.9028    1.1035 C   0  0  2  0  0  0  0  0  0  0  0  0
   10.3918    6.0801    1.1401 C   0  0  0  0  0  0  0  0  0  0  0  0
   10.1294    3.6145    0.8524 C   0  0  0  0  0  0  0  0  0  0  0  0
    9.9167    2.6256    1.6118 O   0  0  0  0  0  0  0  0  0  0  0  0
   11.0293    3.4836   -0.2649 N   0  0  0  0  0  0  0  0  0  0  0  0
   11.9704    2.3700   -0.3768 C   0  0  2  0  0  0  0  0  0  0  0  0
   13.0361    2.6666   -1.4381 C   0  0  0  0  0  0  0  0  0  0  0  0
   11.2277    1.1012   -0.7124 C   0  0  0  0  0  0  0  0  0  0  0  0
   10.6976    0.9774   -1.8522 O   0  0  0  0  0  0  0  0  0  0  0  0
   10.9930    0.0911    0.2827 N   0  0  0  0  0  0  0  0  0  0  0  0
   11.9859   -0.9143    0.6820 C   0  0  2  0  0  0  0  0  0  0  0  0
   13.3208   -0.2883    1.1080 C   0  0  0  0  0  0  0  0  0  0  0  0
   12.1900   -1.9142   -0.4391 C   0  0  0  0  0  0  0  0  0  0  0  0
   12.7106   -1.5162   -1.5206 O   0  0  0  0  0  0  0  0  0  0  0  0
   11.7914   -3.2954   -0.3415 N   0  0  0  0  0  0  0  0  0  0  0  0
   11.4073   -3.9866    0.8932 C   0  0  2  0  0  0  0  0  0  0  0  0
   12.6438   -4.2705    1.7555 C   0  0  0  0  0  0  0  0  0  0  0  0
   10.6808   -5.2652    0.5687 C   0  0  0  0  0  0  0  0  0  0  0  0
   11.2546   -6.1801   -0.0849 O   0  0  0  0  0  0  0  0  0  0  0  0
    9.3230   -5.4336    1.0047 N   0  0  0  0  0  0  0  0  0  0  0  0
    8.1673   -5.5545    0.1074 C   0  0  2  0  0  0  0  0  0  0  0  0
    8.5323   -5.3729   -1.3760 C   0  0  0  0  0  0  0  0  0  0  0  0
    7.1339   -4.5348    0.5091 C   0  0  0  0  0  0  0  0  0  0  0  0
    7.4732   -3.3212    0.6179 O   0  0  0  0  0  0  0  0  0  0  0  0
    5.7829   -4.9100    0.8124 N   0  0  0  0  0  0  0  0  0  0  0  0
    4.9452   -5.6208   -0.1630 C   0  0  1  0  0  0  0  0  0  0  0  0
    5.2605   -7.0934   -0.1571 C   0  0  0  0  0  0  0  0  0  0  0  0
    5.5301   -7.7782   -1.3803 N   0  0  0  0  0  0  0  0  0  0  0  0
    5.2910   -7.7309    0.9347 O   0  0  0  0  0  0  0  0  0  0  0  0
    3.4552   -5.3914    0.1484 C   0  0  0  0  0  0  0  0  0  0  0  0
    2.4032   -6.0552   -1.1958 S   0  0  0  0  0  0  0  0  0  0  0  0
    2.1404   -4.4629   -2.0715 C   0  0  0  0  0  0  0  0  0  0  0  0
   -4.4196  -11.7470    0.3933 H   0  0  0  0  0  0  0  0  0  0  0  0
   -4.6485  -10.3843   -0.7480 H   0  0  0  0  0  0  0  0  0  0  0  0
   -3.0730  -10.5739    0.1300 H   0  0  0  0  0  0  0  0  0  0  0  0
   -4.7055   -7.9127    2.2629 H   0  0  0  0  0  0  0  0  0  0  0  0
   -2.9194   -8.0915   -0.0022 H   0  0  0  0  0  0  0  0  0  0  0  0
   -4.4921   -5.6666    1.0745 H   0  0  0  0  0  0  0  0  0  0  0  0
   -2.8422   -6.2309    1.4962 H   0  0  0  0  0  0  0  0  0  0  0  0
   -3.0541   -2.9776    0.1583 H   0  0  0  0  0  0  0  0  0  0  0  0
   -2.2494   -4.0394    1.3478 H   0  0  0  0  0  0  0  0  0  0  0  0
   -0.3789   -5.0200   -1.3446 H   0  0  0  0  0  0  0  0  0  0  0  0
    2.6055   -1.9678   -1.0721 H   0  0  0  0  0  0  0  0  0  0  0  0
   -1.1192   -1.5262    1.0476 H   0  0  0  0  0  0  0  0  0  0  0  0
    1.5323   -0.4308    1.6447 H   0  0  0  0  0  0  0  0  0  0  0  0
    2.1921    0.0767    0.0681 H   0  0  0  0  0  0  0  0  0  0  0  0
    1.8186    2.5384    0.2085 H   0  0  0  0  0  0  0  0  0  0  0  0
    1.2746    1.8268   -1.3597 H   0  0  0  0  0  0  0  0  0  0  0  0
   -0.9343    3.0928   -1.0312 H   0  0  0  0  0  0  0  0  0  0  0  0
    0.6019    4.9488    0.8258 H   0  0  0  0  0  0  0  0  0  0  0  0
   -2.9065    5.8087    1.9076 H   0  0  0  0  0  0  0  0  0  0  0  0
   -0.3124    7.2051    1.0179 H   0  0  0  0  0  0  0  0  0  0  0  0
   -1.5560    7.8055    2.1678 H   0  0  0  0  0  0  0  0  0  0  0  0
   -0.4905    6.4351    2.6400 H   0  0  0  0  0  0  0  0  0  0  0  0
   -2.0981    6.0221   -0.9672 H   0  0  0  0  0  0  0  0  0  0  0  0
   -3.9946    7.6738    1.8297 H   0  0  0  0  0  0  0  0  0  0  0  0
   -2.6736    9.6482    0.9081 H   0  0  0  0  0  0  0  0  0  0  0  0
   -4.1571   10.0737    1.8435 H   0  0  0  0  0  0  0  0  0  0  0  0
   -4.1665   10.1582    0.0302 H   0  0  0  0  0  0  0  0  0  0  0  0
   -6.2389    8.9176    0.4595 H   0  0  0  0  0  0  0  0  0  0  0  0
   -8.3667    7.3319    0.1054 H   0  0  0  0  0  0  0  0  0  0  0  0
   -6.4946    6.5396   -2.2287 H   0  0  0  0  0  0  0  0  0  0  0  0
   -8.2014    7.1185   -2.3923 H   0  0  0  0  0  0  0  0  0  0  0  0
   -6.9544    8.2272   -1.7508 H   0  0  0  0  0  0  0  0  0  0  0  0
   -7.3742    4.5344   -0.5105 H   0  0  0  0  0  0  0  0  0  0  0  0
  -10.3670    4.3284    0.8313 H   0  0  0  0  0  0  0  0  0  0  0  0
  -10.3448    6.7084    1.1031 H   0  0  0  0  0  0  0  0  0  0  0  0
  -11.1232    6.9791   -0.5197 H   0  0  0  0  0  0  0  0  0  0  0  0
  -12.0532    6.2283    0.8366 H   0  0  0  0  0  0  0  0  0  0  0  0
  -12.2947    4.8520   -1.4331 H   0  0  0  0  0  0  0  0  0  0  0  0
  -10.1200    2.2481    0.1753 H   0  0  0  0  0  0  0  0  0  0  0  0
  -12.8633    1.0266    0.9189 H   0  0  0  0  0  0  0  0  0  0  0  0
  -11.3228    0.9470    1.8722 H   0  0  0  0  0  0  0  0  0  0  0  0
  -12.1607    2.5080    1.6679 H   0  0  0  0  0  0  0  0  0  0  0  0
  -10.3252    0.7430   -1.8197 H   0  0  0  0  0  0  0  0  0  0  0  0
  -10.2857   -0.9138    1.1440 H   0  0  0  0  0  0  0  0  0  0  0  0
  -12.5751   -2.8913    0.5446 H   0  0  0  0  0  0  0  0  0  0  0  0
  -11.5127   -2.8918    2.0039 H   0  0  0  0  0  0  0  0  0  0  0  0
  -12.6215   -1.4967    1.6989 H   0  0  0  0  0  0  0  0  0  0  0  0
   -8.9343   -2.5443    0.2883 H   0  0  0  0  0  0  0  0  0  0  0  0
   -9.9037   -4.9757    0.7229 H   0  0  0  0  0  0  0  0  0  0  0  0
  -11.2050   -6.2332   -1.7660 H   0  0  0  0  0  0  0  0  0  0  0  0
  -12.1242   -5.5893   -0.3570 H   0  0  0  0  0  0  0  0  0  0  0  0
  -10.9798   -6.9629   -0.1359 H   0  0  0  0  0  0  0  0  0  0  0  0
   -8.7590   -5.8844   -1.9529 H   0  0  0  0  0  0  0  0  0  0  0  0
   -6.3792   -6.8149    1.0667 H   0  0  0  0  0  0  0  0  0  0  0  0
   -8.7405   -8.1731   -0.3489 H   0  0  0  0  0  0  0  0  0  0  0  0
   -8.7070   -7.5821    1.3623 H   0  0  0  0  0  0  0  0  0  0  0  0
   -7.6163   -8.9225    0.8393 H   0  0  0  0  0  0  0  0  0  0  0  0
   -6.7160   -7.5999   -1.8675 H   0  0  0  0  0  0  0  0  0  0  0  0
    2.0310    5.4558   -2.8832 H   0  0  0  0  0  0  0  0  0  0  0  0
    2.6445    4.4612   -0.0628 H   0  0  0  0  0  0  0  0  0  0  0  0
    3.1057    7.2581   -1.2382 H   0  0  0  0  0  0  0  0  0  0  0  0
    3.4907    6.6794    0.4393 H   0  0  0  0  0  0  0  0  0  0  0  0
    1.7898    6.8111   -0.0648 H   0  0  0  0  0  0  0  0  0  0  0  0
    5.5592    4.2740    0.1150 H   0  0  0  0  0  0  0  0  0  0  0  0
    5.5555    7.0532   -0.4649 H   0  0  0  0  0  0  0  0  0  0  0  0
    7.2305    7.4090   -2.1998 H   0  0  0  0  0  0  0  0  0  0  0  0
    5.8336    6.5239   -2.8712 H   0  0  0  0  0  0  0  0  0  0  0  0
    7.3735    5.6305   -2.5156 H   0  0  0  0  0  0  0  0  0  0  0  0
    8.2624    4.4156   -0.6867 H   0  0  0  0  0  0  0  0  0  0  0  0
    8.9125    4.8401    2.1077 H   0  0  0  0  0  0  0  0  0  0  0  0
    9.9212    6.9821    1.5869 H   0  0  0  0  0  0  0  0  0  0  0  0
   11.2732    5.8263    1.7677 H   0  0  0  0  0  0  0  0  0  0  0  0
   10.7403    6.3346    0.1160 H   0  0  0  0  0  0  0  0  0  0  0  0
   11.0638    4.2636   -0.9595 H   0  0  0  0  0  0  0  0  0  0  0  0
   12.4861    2.2604    0.6032 H   0  0  0  0  0  0  0  0  0  0  0  0
   12.5725    2.7725   -2.4444 H   0  0  0  0  0  0  0  0  0  0  0  0
   13.5764    3.6056   -1.2017 H   0  0  0  0  0  0  0  0  0  0  0  0
   13.7748    1.8430   -1.4790 H   0  0  0  0  0  0  0  0  0  0  0  0
    9.9929   -0.1905    0.4102 H   0  0  0  0  0  0  0  0  0  0  0  0
   11.5872   -1.4126    1.5927 H   0  0  0  0  0  0  0  0  0  0  0  0
   13.9964   -1.0792    1.4975 H   0  0  0  0  0  0  0  0  0  0  0  0
   13.1463    0.4514    1.9170 H   0  0  0  0  0  0  0  0  0  0  0  0
   13.8250    0.2042    0.2485 H   0  0  0  0  0  0  0  0  0  0  0  0
   11.8384   -3.8544   -1.2275 H   0  0  0  0  0  0  0  0  0  0  0  0
   10.6999   -3.3604    1.4738 H   0  0  0  0  0  0  0  0  0  0  0  0
   13.4228   -4.7986    1.1616 H   0  0  0  0  0  0  0  0  0  0  0  0
   13.0668   -3.3182    2.1363 H   0  0  0  0  0  0  0  0  0  0  0  0
   12.3741   -4.9016    2.6281 H   0  0  0  0  0  0  0  0  0  0  0  0
    9.1395   -5.3204    2.0306 H   0  0  0  0  0  0  0  0  0  0  0  0
    7.7613   -6.5727    0.2396 H   0  0  0  0  0  0  0  0  0  0  0  0
    9.1858   -6.2075   -1.7097 H   0  0  0  0  0  0  0  0  0  0  0  0
    7.6116   -5.3952   -1.9975 H   0  0  0  0  0  0  0  0  0  0  0  0
    9.0500   -4.4024   -1.5337 H   0  0  0  0  0  0  0  0  0  0  0  0
    5.3198   -4.4030    1.6050 H   0  0  0  0  0  0  0  0  0  0  0  0
    5.1478   -5.2020   -1.1762 H   0  0  0  0  0  0  0  0  0  0  0  0
    5.8294   -8.7799   -1.3749 H   0  0  0  0  0  0  0  0  0  0  0  0
    5.3964   -7.2942   -2.2962 H   0  0  0  0  0  0  0  0  0  0  0  0
    3.2696   -4.3117    0.2949 H   0  0  0  0  0  0  0  0  0  0  0  0
    3.1779   -5.9027    1.0909 H   0  0  0  0  0  0  0  0  0  0  0  0
    3.1145   -3.9673   -2.2455 H   0  0  0  0  0  0  0  0  0  0  0  0
    1.6970   -4.6779   -3.0648 H   0  0  0  0  0  0  0  0  0  0  0  0
  1  2  1  0
  2  3  2  0
  2  4  1  0
  4  5  1  0
  5  6  1  0
  6  7  1  0
  7  8  1  0
  8  9  1  0
  9 10  2  0
 10 11  1  0
 11 12  2  0
 12 13  1  0
 13 14  2  0
 13 15  1  0
 15 16  1  0
 16 17  1  0
 17 18  1  0
 18 19  1  0
 19 20  1  0
 20 21  2  0
 20 22  1  0
 22 23  1  0
 22 24  1  0
 24 25  1  0
 25 26  2  0
 25 27  1  0
 27 28  1  0
 27 29  1  0
 29 30  1  0
 30 31  2  0
 30 32  1  0
 32 33  1  0
 32 34  1  0
 34 35  1  0
 35 36  2  0
 35 37  1  0
 37 38  1  0
 37 39  1  0
 39 40  1  0
 40 41  2  0
 40 42  1  0
 42 43  1  0
 42 44  1  0
 44 45  1  0
 45 46  2  0
 45 47  1  0
 47 48  1  0
 47 49  1  0
 49 50  1  0
 50 51  2  0
 50 52  1  0
 52 53  1  0
 52 54  1  0
 54 55  1  0
 55 56  2  0
 55 57  1  0
 57 58  1  0
 57 59  1  0
 59 60  1  0
 60 61  2  0
 18 62  1  0
 62 63  2  0
 62 64  1  0
 64 65  1  0
 65 66  1  0
 65 67  1  0
 67 68  2  0
 67 69  1  0
 69 70  1  0
 70 71  1  0
 70 72  1  0
 72 73  2  0
 72 74  1  0
 74 75  1  0
 75 76  1  0
 75 77  1  0
 77 78  2  0
 77 79  1  0
 79 80  1  0
 80 81  1  0
 80 82  1  0
 82 83  2  0
 82 84  1  0
 84 85  1  0
 85 86  1  0
 85 87  1  0
 87 88  2  0
 87 89  1  0
 89 90  1  0
 90 91  1  0
 90 92  1  0
 92 93  2  0
 92 94  1  0
 94 95  1  0
 95 96  1  0
 95 97  1  0
 97 98  2  0
 97 99  1  0
 99100  1  0
100101  1  0
101102  1  0
101103  2  0
100104  1  0
104105  1  0
105106  1  0
 60  5  1  0
 14  9  1  0
106 11  1  0
  1107  1  0
  1108  1  0
  1109  1  0
  4110  1  0
  5111  1  6
  6112  1  0
  6113  1  0
  8114  1  0
  8115  1  0
 10116  1  0
 12117  1  0
 14118  1  0
 15119  1  0
 15120  1  0
 17121  1  0
 17122  1  0
 18123  1  6
 19124  1  0
 22125  1  1
 23126  1  0
 23127  1  0
 23128  1  0
 24129  1  0
 27130  1  1
 28131  1  0
 28132  1  0
 28133  1  0
 29134  1  0
 32135  1  1
 33136  1  0
 33137  1  0
 33138  1  0
 34139  1  0
 37140  1  1
 38141  1  0
 38142  1  0
 38143  1  0
 39144  1  0
 42145  1  1
 43146  1  0
 43147  1  0
 43148  1  0
 44149  1  0
 47150  1  1
 48151  1  0
 48152  1  0
 48153  1  0
 49154  1  0
 52155  1  1
 53156  1  0
 53157  1  0
 53158  1  0
 54159  1  0
 57160  1  1
 58161  1  0
 58162  1  0
 58163  1  0
 59164  1  0
 64165  1  0
 65166  1  1
 66167  1  0
 66168  1  0
 66169  1  0
 69170  1  0
 70171  1  1
 71172  1  0
 71173  1  0
 71174  1  0
 74175  1  0
 75176  1  1
 76177  1  0
 76178  1  0
 76179  1  0
 79180  1  0
 80181  1  1
 81182  1  0
 81183  1  0
 81184  1  0
 84185  1  0
 85186  1  1
 86187  1  0
 86188  1  0
 86189  1  0
 89190  1  0
 90191  1  1
 91192  1  0
 91193  1  0
 91194  1  0
 94195  1  0
 95196  1  6
 96197  1  0
 96198  1  0
 96199  1  0
 99200  1  0
100201  1  6
102202  1  0
102203  1  0
104204  1  0
104205  1  0
106206  1  0
106207  1  0
M  END
