
     RDKit          3D

207209  0  0  0  0  0  0  0  0999 V2000
   -3.3785    9.4721   -1.9330 C   0  0  0  0  0  0  0  0  0  0  0  0
   -2.8106    8.3479   -1.1431 C   0  0  0  0  0  0  0  0  0  0  0  0
   -2.0532    8.6015   -0.1675 O   0  0  0  0  0  0  0  0  0  0  0  0
   -3.1421    6.9916   -1.4795 N   0  0  0  0  0  0  0  0  0  0  0  0
   -3.1093    5.9034   -0.4961 C   0  0  2  0  0  0  0  0  0  0  0  0
   -2.1327    4.8131   -0.9291 C   0  0  0  0  0  0  0  0  0  0  0  0
   -0.3687    5.2885   -0.6538 S   0  0  0  0  0  0  0  0  0  0  0  0
   -0.2266    4.8267    1.1212 C   0  0  0  0  0  0  0  0  0  0  0  0
    0.5024    3.5055    1.2590 C   0  0  0  0  0  0  0  0  0  0  0  0
   -0.1248    2.3266    0.8239 C   0  0  0  0  0  0  0  0  0  0  0  0
    0.5557    1.1112    0.7816 C   0  0  0  0  0  0  0  0  0  0  0  0
    1.8586    1.0479    1.3036 C   0  0  0  0  0  0  0  0  0  0  0  0
    2.4927    2.1944    1.8244 C   0  0  0  0  0  0  0  0  0  0  0  0
    1.8155    3.4360    1.7677 C   0  0  0  0  0  0  0  0  0  0  0  0
    3.8436    1.9895    2.4926 C   0  0  0  0  0  0  0  0  0  0  0  0
    4.6819    3.5043    3.0722 S   0  0  0  0  0  0  0  0  0  0  0  0
    5.7007    3.8099    1.5776 C   0  0  0  0  0  0  0  0  0  0  0  0
    5.5504    5.2686    1.1179 C   0  0  1  0  0  0  0  0  0  0  0  0
    6.4188    6.2434    1.8894 C   0  0  0  0  0  0  0  0  0  0  0  0
    6.9246    7.4335    1.2742 N   0  0  0  0  0  0  0  0  0  0  0  0
    6.6405    6.0482    3.1132 O   0  0  0  0  0  0  0  0  0  0  0  0
    5.7160    5.3717   -0.3394 N   0  0  0  0  0  0  0  0  0  0  0  0
    6.9221    5.1823   -1.1094 C   0  0  0  0  0  0  0  0  0  0  0  0
    6.8750    5.3715   -2.3552 O   0  0  0  0  0  0  0  0  0  0  0  0
    8.2037    4.6498   -0.5170 C   0  0  1  0  0  0  0  0  0  0  0  0
    8.3001    3.1577   -0.8336 C   0  0  0  0  0  0  0  0  0  0  0  0
    9.3667    5.3916   -1.0688 N   0  0  0  0  0  0  0  0  0  0  0  0
   10.7697    5.1053   -0.8810 C   0  0  0  0  0  0  0  0  0  0  0  0
   11.5735    5.5063   -1.7614 O   0  0  0  0  0  0  0  0  0  0  0  0
   11.3576    4.4058    0.3252 C   0  0  1  0  0  0  0  0  0  0  0  0
   10.6524    4.7363    1.6438 C   0  0  0  0  0  0  0  0  0  0  0  0
   11.4507    2.9544    0.1144 N   0  0  0  0  0  0  0  0  0  0  0  0
   12.2357    2.4141   -0.9608 C   0  0  0  0  0  0  0  0  0  0  0  0
   13.3594    2.9300   -1.2079 O   0  0  0  0  0  0  0  0  0  0  0  0
   11.7060    1.3116   -1.8388 C   0  0  1  0  0  0  0  0  0  0  0  0
   12.8250    0.4367   -2.4368 C   0  0  0  0  0  0  0  0  0  0  0  0
   10.7092    0.4843   -1.1431 N   0  0  0  0  0  0  0  0  0  0  0  0
   11.0220   -0.3890   -0.0363 C   0  0  0  0  0  0  0  0  0  0  0  0
   12.1647   -0.3395    0.4958 O   0  0  0  0  0  0  0  0  0  0  0  0
   10.0525   -1.4668    0.3594 C   0  0  1  0  0  0  0  0  0  0  0  0
   10.3719   -2.0304    1.7548 C   0  0  0  0  0  0  0  0  0  0  0  0
    8.6620   -0.9695    0.3345 N   0  0  0  0  0  0  0  0  0  0  0  0
    7.7659   -1.1909   -0.7700 C   0  0  0  0  0  0  0  0  0  0  0  0
    7.1538   -0.2009   -1.2477 O   0  0  0  0  0  0  0  0  0  0  0  0
    7.5318   -2.5527   -1.3854 C   0  0  1  0  0  0  0  0  0  0  0  0
    8.5483   -2.8592   -2.4963 C   0  0  0  0  0  0  0  0  0  0  0  0
    7.5505   -3.5965   -0.3509 N   0  0  0  0  0  0  0  0  0  0  0  0
    6.5456   -4.6121   -0.2086 C   0  0  0  0  0  0  0  0  0  0  0  0
    6.2713   -5.0267    0.9455 O   0  0  0  0  0  0  0  0  0  0  0  0
    5.8284   -5.1969   -1.4031 C   0  0  1  0  0  0  0  0  0  0  0  0
    5.9722   -6.7197   -1.4231 C   0  0  0  0  0  0  0  0  0  0  0  0
    4.4091   -4.8157   -1.4613 N   0  0  0  0  0  0  0  0  0  0  0  0
    3.6403   -4.4181   -0.3254 C   0  0  0  0  0  0  0  0  0  0  0  0
    3.4392   -3.1909   -0.1291 O   0  0  0  0  0  0  0  0  0  0  0  0
    3.0334   -5.4445    0.6030 C   0  0  1  0  0  0  0  0  0  0  0  0
    3.2952   -5.1484    2.0845 C   0  0  0  0  0  0  0  0  0  0  0  0
    1.6054   -5.6607    0.2935 N   0  0  0  0  0  0  0  0  0  0  0  0
    0.5575   -4.6784    0.3005 C   0  0  0  0  0  0  0  0  0  0  0  0
   -0.2487   -4.6672   -0.6649 O   0  0  0  0  0  0  0  0  0  0  0  0
    0.2880   -3.7835    1.5048 C   0  0  1  0  0  0  0  0  0  0  0  0
   -0.3084   -2.4385    1.0663 C   0  0  0  0  0  0  0  0  0  0  0  0
    0.8430   -1.5632   -0.0534 S   0  0  0  0  0  0  0  0  0  0  0  0
   -0.0565    0.0188   -0.0572 C   0  0  0  0  0  0  0  0  0  0  0  0
   -0.6334   -4.4432    2.4465 N   0  0  0  0  0  0  0  0  0  0  0  0
   -0.8699   -5.8584    2.5075 C   0  0  0  0  0  0  0  0  0  0  0  0
    0.0989   -6.6434    2.6655 O   0  0  0  0  0  0  0  0  0  0  0  0
   -2.2503   -6.4325    2.2773 C   0  0  1  0  0  0  0  0  0  0  0  0
   -3.3448   -5.3880    2.5596 C   0  0  0  0  0  0  0  0  0  0  0  0
   -2.3605   -6.9149    0.8965 N   0  0  0  0  0  0  0  0  0  0  0  0
   -3.5170   -7.5935    0.4158 C   0  0  0  0  0  0  0  0  0  0  0  0
   -3.7028   -8.8098    0.7188 O   0  0  0  0  0  0  0  0  0  0  0  0
   -4.3894   -6.9245   -0.6109 C   0  0  1  0  0  0  0  0  0  0  0  0
   -4.0483   -7.4303   -2.0151 C   0  0  0  0  0  0  0  0  0  0  0  0
   -5.8060   -7.1807   -0.3220 N   0  0  0  0  0  0  0  0  0  0  0  0
   -6.5784   -6.3208    0.5325 C   0  0  0  0  0  0  0  0  0  0  0  0
   -6.8840   -6.7345    1.6807 O   0  0  0  0  0  0  0  0  0  0  0  0
   -7.1477   -5.0136    0.0347 C   0  0  1  0  0  0  0  0  0  0  0  0
   -6.0819   -4.0089   -0.4065 C   0  0  0  0  0  0  0  0  0  0  0  0
   -8.0766   -5.2735   -1.0658 N   0  0  0  0  0  0  0  0  0  0  0  0
   -9.2589   -4.4958   -1.2702 C   0  0  0  0  0  0  0  0  0  0  0  0
   -9.3028   -3.6741   -2.2205 O   0  0  0  0  0  0  0  0  0  0  0  0
  -10.4560   -4.6877   -0.3607 C   0  0  1  0  0  0  0  0  0  0  0  0
  -10.3703   -3.9420    0.9696 C   0  0  0  0  0  0  0  0  0  0  0  0
  -11.7075   -4.4166   -1.0746 N   0  0  0  0  0  0  0  0  0  0  0  0
  -12.3641   -3.1425   -1.2684 C   0  0  0  0  0  0  0  0  0  0  0  0
  -13.5689   -3.1509   -1.6318 O   0  0  0  0  0  0  0  0  0  0  0  0
  -11.6702   -1.8043   -1.0853 C   0  0  1  0  0  0  0  0  0  0  0  0
  -11.9645   -0.9022   -2.2765 C   0  0  0  0  0  0  0  0  0  0  0  0
  -12.1330   -1.1594    0.1522 N   0  0  0  0  0  0  0  0  0  0  0  0
  -11.2281   -0.4671    1.0105 C   0  0  0  0  0  0  0  0  0  0  0  0
  -10.8309   -1.0208    2.0725 O   0  0  0  0  0  0  0  0  0  0  0  0
  -10.9390    0.9891    0.7864 C   0  0  1  0  0  0  0  0  0  0  0  0
  -11.7830    1.7953    1.7792 C   0  0  0  0  0  0  0  0  0  0  0  0
   -9.4923    1.2746    0.9676 N   0  0  0  0  0  0  0  0  0  0  0  0
   -8.8453    2.5492    0.7610 C   0  0  0  0  0  0  0  0  0  0  0  0
   -7.6551    2.6926    1.1509 O   0  0  0  0  0  0  0  0  0  0  0  0
   -9.5574    3.7453    0.1543 C   0  0  1  0  0  0  0  0  0  0  0  0
   -9.8670    4.7586    1.2739 C   0  0  0  0  0  0  0  0  0  0  0  0
   -8.8027    4.4382   -0.9079 N   0  0  0  0  0  0  0  0  0  0  0  0
   -7.5304    4.0339   -1.4602 C   0  0  0  0  0  0  0  0  0  0  0  0
   -7.2946    2.8095   -1.6408 O   0  0  0  0  0  0  0  0  0  0  0  0
   -6.5023    5.0517   -1.9227 C   0  0  1  0  0  0  0  0  0  0  0  0
   -6.8701    6.5120   -1.5852 C   0  0  0  0  0  0  0  0  0  0  0  0
   -5.1729    4.6924   -1.4168 N   0  0  0  0  0  0  0  0  0  0  0  0
   -4.5100    5.3614   -0.3294 C   0  0  0  0  0  0  0  0  0  0  0  0
   -5.1067    5.5179    0.7754 O   0  0  0  0  0  0  0  0  0  0  0  0
   -2.5710   10.0026   -2.4727 H   0  0  0  0  0  0  0  0  0  0  0  0
   -4.1256    9.1052   -2.6729 H   0  0  0  0  0  0  0  0  0  0  0  0
   -3.8942   10.1848   -1.2482 H   0  0  0  0  0  0  0  0  0  0  0  0
   -3.5573    6.7960   -2.4192 H   0  0  0  0  0  0  0  0  0  0  0  0
   -2.7701    6.2885    0.4912 H   0  0  0  0  0  0  0  0  0  0  0  0
   -2.3734    3.8732   -0.4018 H   0  0  0  0  0  0  0  0  0  0  0  0
   -2.2595    4.6182   -2.0224 H   0  0  0  0  0  0  0  0  0  0  0  0
    0.3586    5.6277    1.6319 H   0  0  0  0  0  0  0  0  0  0  0  0
   -1.2080    4.7634    1.6201 H   0  0  0  0  0  0  0  0  0  0  0  0
   -1.1494    2.3664    0.4764 H   0  0  0  0  0  0  0  0  0  0  0  0
    2.3868    0.1058    1.3292 H   0  0  0  0  0  0  0  0  0  0  0  0
    2.2913    4.3319    2.1248 H   0  0  0  0  0  0  0  0  0  0  0  0
    4.5162    1.4091    1.8246 H   0  0  0  0  0  0  0  0  0  0  0  0
    3.6714    1.3614    3.3927 H   0  0  0  0  0  0  0  0  0  0  0  0
    5.4193    3.1282    0.7554 H   0  0  0  0  0  0  0  0  0  0  0  0
    6.7526    3.5803    1.8443 H   0  0  0  0  0  0  0  0  0  0  0  0
    4.4933    5.5796    1.3361 H   0  0  0  0  0  0  0  0  0  0  0  0
    7.2969    8.1901    1.8863 H   0  0  0  0  0  0  0  0  0  0  0  0
    6.7145    7.6591    0.2817 H   0  0  0  0  0  0  0  0  0  0  0  0
    4.8435    5.5030   -0.8862 H   0  0  0  0  0  0  0  0  0  0  0  0
    8.1955    4.8023    0.5715 H   0  0  0  0  0  0  0  0  0  0  0  0
    7.2896    2.6877   -0.8626 H   0  0  0  0  0  0  0  0  0  0  0  0
    8.7797    2.9919   -1.8241 H   0  0  0  0  0  0  0  0  0  0  0  0
    8.8582    2.6311   -0.0468 H   0  0  0  0  0  0  0  0  0  0  0  0
    9.1712    6.1357   -1.7763 H   0  0  0  0  0  0  0  0  0  0  0  0
   12.3944    4.7833    0.4505 H   0  0  0  0  0  0  0  0  0  0  0  0
   11.3862    4.6704    2.4782 H   0  0  0  0  0  0  0  0  0  0  0  0
   10.2443    5.7765    1.6214 H   0  0  0  0  0  0  0  0  0  0  0  0
    9.8224    4.0184    1.8726 H   0  0  0  0  0  0  0  0  0  0  0  0
   10.9045    2.2920    0.7062 H   0  0  0  0  0  0  0  0  0  0  0  0
   11.1994    1.7995   -2.6996 H   0  0  0  0  0  0  0  0  0  0  0  0
   12.3825   -0.4271   -2.9772 H   0  0  0  0  0  0  0  0  0  0  0  0
   13.5000    0.0498   -1.6452 H   0  0  0  0  0  0  0  0  0  0  0  0
   13.4216    1.0365   -3.1655 H   0  0  0  0  0  0  0  0  0  0  0  0
    9.7164    0.7406   -1.2824 H   0  0  0  0  0  0  0  0  0  0  0  0
   10.1840   -2.2946   -0.3603 H   0  0  0  0  0  0  0  0  0  0  0  0
   11.3872   -2.4954    1.7620 H   0  0  0  0  0  0  0  0  0  0  0  0
    9.6375   -2.8200    2.0415 H   0  0  0  0  0  0  0  0  0  0  0  0
   10.3381   -1.2239    2.5276 H   0  0  0  0  0  0  0  0  0  0  0  0
    8.2083   -0.7145    1.2427 H   0  0  0  0  0  0  0  0  0  0  0  0
    6.5213   -2.5232   -1.8471 H   0  0  0  0  0  0  0  0  0  0  0  0
    9.3840   -3.4940   -2.1374 H   0  0  0  0  0  0  0  0  0  0  0  0
    8.9635   -1.9207   -2.9258 H   0  0  0  0  0  0  0  0  0  0  0  0
    8.0394   -3.3993   -3.3264 H   0  0  0  0  0  0  0  0  0  0  0  0
    8.3935   -3.6944    0.2530 H   0  0  0  0  0  0  0  0  0  0  0  0
    6.3161   -4.8270   -2.3375 H   0  0  0  0  0  0  0  0  0  0  0  0
    7.0491   -6.9848   -1.4373 H   0  0  0  0  0  0  0  0  0  0  0  0
    5.5126   -7.1792   -0.5217 H   0  0  0  0  0  0  0  0  0  0  0  0
    5.5071   -7.1419   -2.3384 H   0  0  0  0  0  0  0  0  0  0  0  0
    3.9507   -4.7398   -2.3971 H   0  0  0  0  0  0  0  0  0  0  0  0
    3.5454   -6.4068    0.3914 H   0  0  0  0  0  0  0  0  0  0  0  0
    2.4853   -5.5650    2.7180 H   0  0  0  0  0  0  0  0  0  0  0  0
    4.2429   -5.6241    2.4087 H   0  0  0  0  0  0  0  0  0  0  0  0
    3.3925   -4.0625    2.2829 H   0  0  0  0  0  0  0  0  0  0  0  0
    1.3743   -6.5565   -0.1920 H   0  0  0  0  0  0  0  0  0  0  0  0
    1.2308   -3.5563    2.0398 H   0  0  0  0  0  0  0  0  0  0  0  0
   -0.4726   -1.8030    1.9706 H   0  0  0  0  0  0  0  0  0  0  0  0
   -1.2873   -2.5960    0.5665 H   0  0  0  0  0  0  0  0  0  0  0  0
   -0.0344    0.3647   -1.1155 H   0  0  0  0  0  0  0  0  0  0  0  0
   -1.1301   -0.1216    0.1966 H   0  0  0  0  0  0  0  0  0  0  0  0
   -1.0955   -3.8460    3.1737 H   0  0  0  0  0  0  0  0  0  0  0  0
   -2.4048   -7.2875    2.9770 H   0  0  0  0  0  0  0  0  0  0  0  0
   -3.2748   -4.5545    1.8262 H   0  0  0  0  0  0  0  0  0  0  0  0
   -4.3473   -5.8626    2.4801 H   0  0  0  0  0  0  0  0  0  0  0  0
   -3.2342   -5.0026    3.5949 H   0  0  0  0  0  0  0  0  0  0  0  0
   -1.5465   -6.8200    0.2373 H   0  0  0  0  0  0  0  0  0  0  0  0
   -4.1745   -5.8416   -0.5781 H   0  0  0  0  0  0  0  0  0  0  0  0
   -4.1454   -8.5383   -2.0681 H   0  0  0  0  0  0  0  0  0  0  0  0
   -4.7566   -6.9735   -2.7497 H   0  0  0  0  0  0  0  0  0  0  0  0
   -3.0070   -7.1332   -2.2884 H   0  0  0  0  0  0  0  0  0  0  0  0
   -6.1525   -8.1576   -0.4402 H   0  0  0  0  0  0  0  0  0  0  0  0
   -7.6956   -4.5393    0.8815 H   0  0  0  0  0  0  0  0  0  0  0  0
   -6.5433   -3.0116   -0.5399 H   0  0  0  0  0  0  0  0  0  0  0  0
   -5.2791   -3.9221    0.3708 H   0  0  0  0  0  0  0  0  0  0  0  0
   -5.6372   -4.3253   -1.3784 H   0  0  0  0  0  0  0  0  0  0  0  0
   -7.7135   -5.8151   -1.8864 H   0  0  0  0  0  0  0  0  0  0  0  0
  -10.4666   -5.7764   -0.1011 H   0  0  0  0  0  0  0  0  0  0  0  0
   -9.8361   -4.5504    1.7245 H   0  0  0  0  0  0  0  0  0  0  0  0
  -11.3865   -3.7475    1.3684 H   0  0  0  0  0  0  0  0  0  0  0  0
   -9.8187   -2.9857    0.8550 H   0  0  0  0  0  0  0  0  0  0  0  0
  -12.2052   -5.2563   -1.4781 H   0  0  0  0  0  0  0  0  0  0  0  0
  -10.5707   -1.9414   -1.0357 H   0  0  0  0  0  0  0  0  0  0  0  0
  -11.6780   -1.4129   -3.2238 H   0  0  0  0  0  0  0  0  0  0  0  0
  -11.3908    0.0456   -2.2036 H   0  0  0  0  0  0  0  0  0  0  0  0
  -13.0444   -0.6548   -2.3214 H   0  0  0  0  0  0  0  0  0  0  0  0
  -13.0472   -1.4637    0.5699 H   0  0  0  0  0  0  0  0  0  0  0  0
  -11.2352    1.2560   -0.2485 H   0  0  0  0  0  0  0  0  0  0  0  0
  -12.7788    1.3144    1.9328 H   0  0  0  0  0  0  0  0  0  0  0  0
  -11.2793    1.8524    2.7671 H   0  0  0  0  0  0  0  0  0  0  0  0
  -11.9850    2.8135    1.3988 H   0  0  0  0  0  0  0  0  0  0  0  0
   -8.8833    0.5009    1.3298 H   0  0  0  0  0  0  0  0  0  0  0  0
  -10.5177    3.4300   -0.2975 H   0  0  0  0  0  0  0  0  0  0  0  0
  -10.3224    4.2503    2.1514 H   0  0  0  0  0  0  0  0  0  0  0  0
  -10.5879    5.5122    0.9028 H   0  0  0  0  0  0  0  0  0  0  0  0
   -8.9364    5.2676    1.5985 H   0  0  0  0  0  0  0  0  0  0  0  0
   -9.1677    5.3774   -1.1730 H   0  0  0  0  0  0  0  0  0  0  0  0
   -6.4654    4.9905   -3.0334 H   0  0  0  0  0  0  0  0  0  0  0  0
   -7.7442    6.8437   -2.1847 H   0  0  0  0  0  0  0  0  0  0  0  0
   -6.0233    7.1907   -1.8480 H   0  0  0  0  0  0  0  0  0  0  0  0
   -7.0928    6.6306   -0.5040 H   0  0  0  0  0  0  0  0  0  0  0  0
   -4.5936    4.0412   -2.0089 H   0  0  0  0  0  0  0  0  0  0  0  0
  1  2  1  0
  2  3  2  0
  2  4  1  0
  4  5  1  0
  5  6  1  0
  6  7  1  0
  7  8  1  0
  8  9  1  0
  9 10  2  0
 10 11  1  0
 11 12  2  0
 12 13  1  0
 13 14  2  0
 13 15  1  0
 15 16  1  0
 16 17  1  0
 17 18  1  0
 18 19  1  0
 19 20  1  0
 19 21  2  0
 18 22  1  0
 22 23  1  0
 23 24  2  0
 23 25  1  0
 25 26  1  0
 25 27  1  0
 27 28  1  0
 28 29  2  0
 28 30  1  0
 30 31  1  0
 30 32  1  0
 32 33  1  0
 33 34  2  0
 33 35  1  0
 35 36  1  0
 35 37  1  0
 37 38  1  0
 38 39  2  0
 38 40  1  0
 40 41  1  0
 40 42  1  0
 42 43  1  0
 43 44  2  0
 43 45  1  0
 45 46  1  0
 45 47  1  0
 47 48  1  0
 48 49  2  0
 48 50  1  0
 50 51  1  0
 50 52  1  0
 52 53  1  0
 53 54  2  0
 53 55  1  0
 55 56  1  0
 55 57  1  0
 57 58  1  0
 58 59  2  0
 58 60  1  0
 60 61  1  0
 61 62  1  0
 62 63  1  0
 60 64  1  0
 64 65  1  0
 65 66  2  0
 65 67  1  0
 67 68  1  0
 67 69  1  0
 69 70  1  0
 70 71  2  0
 70 72  1  0
 72 73  1  0
 72 74  1  0
 74 75  1  0
 75 76  2  0
 75 77  1  0
 77 78  1  0
 77 79  1  0
 79 80  1  0
 80 81  2  0
 80 82  1  0
 82 83  1  0
 82 84  1  0
 84 85  1  0
 85 86  2  0
 85 87  1  0
 87 88  1  0
 87 89  1  0
 89 90  1  0
 90 91  2  0
 90 92  1  0
 92 93  1  0
 92 94  1  0
 94 95  1  0
 95 96  2  0
 95 97  1  0
 97 98  1  0
 97 99  1  0
 99100  1  0
100101  2  0
100102  1  0
102103  1  0
102104  1  0
104105  1  0
105106  2  0
105  5  1  0
 14  9  1  0
 63 11  1  0
  1107  1  0
  1108  1  0
  1109  1  0
  4110  1  0
  5111  1  1
  6112  1  0
  6113  1  0
  8114  1  0
  8115  1  0
 10116  1  0
 12117  1  0
 14118  1  0
 15119  1  0
 15120  1  0
 17121  1  0
 17122  1  0
 18123  1  6
 20124  1  0
 20125  1  0
 22126  1  0
 25127  1  1
 26128  1  0
 26129  1  0
 26130  1  0
 27131  1  0
 30132  1  1
 31133  1  0
 31134  1  0
 31135  1  0
 32136  1  0
 35137  1  6
 36138  1  0
 36139  1  0
 36140  1  0
 37141  1  0
 40142  1  6
 41143  1  0
 41144  1  0
 41145  1  0
 42146  1  0
 45147  1  6
 46148  1  0
 46149  1  0
 46150  1  0
 47151  1  0
 50152  1  6
 51153  1  0
 51154  1  0
 51155  1  0
 52156  1  0
 55157  1  6
 56158  1  0
 56159  1  0
 56160  1  0
 57161  1  0
 60162  1  1
 61163  1  0
 61164  1  0
 63165  1  0
 63166  1  0
 64167  1  0
 67168  1  1
 68169  1  0
 68170  1  0
 68171  1  0
 69172  1  0
 72173  1  6
 73174  1  0
 73175  1  0
 73176  1  0
 74177  1  0
 77178  1  1
 78179  1  0
 78180  1  0
 78181  1  0
 79182  1  0
 82183  1  1
 83184  1  0
 83185  1  0
 83186  1  0
 84187  1  0
 87188  1  1
 88189  1  0
 88190  1  0
 88191  1  0
 89192  1  0
 92193  1  6
 93194  1  0
 93195  1  0
 93196  1  0
 94197  1  0
 97198  1  6
 98199  1  0
 98200  1  0
 98201  1  0
 99202  1  0
102203  1  6
103204  1  0
103205  1  0
103206  1  0
104207  1  0
M  END
