
     RDKit          3D

227229  0  0  0  0  0  0  0  0999 V2000
   -2.7145   -8.0899    1.4654 C   0  0  0  0  0  0  0  0  0  0  0  0
   -2.9866   -6.7171    2.0017 C   0  0  0  0  0  0  0  0  0  0  0  0
   -2.3318   -6.3126    2.9980 O   0  0  0  0  0  0  0  0  0  0  0  0
   -3.9838   -5.8566    1.4282 N   0  0  0  0  0  0  0  0  0  0  0  0
   -4.6945   -6.1466    0.1733 C   0  0  2  0  0  0  0  0  0  0  0  0
   -3.9750   -5.4729   -1.0025 C   0  0  0  0  0  0  0  0  0  0  0  0
   -4.0196   -3.6445   -0.8955 S   0  0  0  0  0  0  0  0  0  0  0  0
   -2.7028   -3.3424   -2.1283 C   0  0  0  0  0  0  0  0  0  0  0  0
   -1.5011   -2.7553   -1.4445 C   0  0  0  0  0  0  0  0  0  0  0  0
   -0.3898   -3.5511   -1.1391 C   0  0  0  0  0  0  0  0  0  0  0  0
    0.7432   -2.9881   -0.5296 C   0  0  0  0  0  0  0  0  0  0  0  0
    0.7622   -1.6127   -0.2455 C   0  0  0  0  0  0  0  0  0  0  0  0
   -0.3553   -0.8091   -0.5288 C   0  0  0  0  0  0  0  0  0  0  0  0
   -1.4801   -1.3927   -1.1326 C   0  0  0  0  0  0  0  0  0  0  0  0
   -0.3211    0.6835   -0.3176 C   0  0  0  0  0  0  0  0  0  0  0  0
    0.2682    1.1298    1.3573 S   0  0  0  0  0  0  0  0  0  0  0  0
   -0.6884    2.6847    1.5511 C   0  0  0  0  0  0  0  0  0  0  0  0
   -0.2000    3.8392    0.6396 C   0  0  1  0  0  0  0  0  0  0  0  0
   -0.9675    3.8622   -0.6177 N   0  0  0  0  0  0  0  0  0  0  0  0
   -1.7026    4.9941   -1.0948 C   0  0  0  0  0  0  0  0  0  0  0  0
   -1.0868    5.9000   -1.7281 O   0  0  0  0  0  0  0  0  0  0  0  0
   -3.2092    5.0488   -1.0104 C   0  0  1  0  0  0  0  0  0  0  0  0
   -3.8065    3.8989   -0.1830 C   0  0  0  0  0  0  0  0  0  0  0  0
   -3.6327    6.3794   -0.5364 N   0  0  0  0  0  0  0  0  0  0  0  0
   -4.5678    6.6045    0.5274 C   0  0  0  0  0  0  0  0  0  0  0  0
   -4.3063    6.1959    1.6920 O   0  0  0  0  0  0  0  0  0  0  0  0
   -5.8106    7.4221    0.2879 C   0  0  1  0  0  0  0  0  0  0  0  0
   -5.4615    8.9121    0.2255 C   0  0  0  0  0  0  0  0  0  0  0  0
   -6.4473    7.0059   -0.9676 N   0  0  0  0  0  0  0  0  0  0  0  0
   -7.8590    6.8480   -1.1590 C   0  0  0  0  0  0  0  0  0  0  0  0
   -8.2605    6.2455   -2.1897 O   0  0  0  0  0  0  0  0  0  0  0  0
   -8.8771    7.3808   -0.1659 C   0  0  1  0  0  0  0  0  0  0  0  0
  -10.1140    7.9222   -0.8849 C   0  0  0  0  0  0  0  0  0  0  0  0
   -9.2789    6.3721    0.8282 N   0  0  0  0  0  0  0  0  0  0  0  0
   -9.2490    4.9563    0.5786 C   0  0  0  0  0  0  0  0  0  0  0  0
   -8.1414    4.3725    0.4384 O   0  0  0  0  0  0  0  0  0  0  0  0
  -10.5212    4.1504    0.4310 C   0  0  1  0  0  0  0  0  0  0  0  0
  -11.7757    4.9427    0.8365 C   0  0  0  0  0  0  0  0  0  0  0  0
  -10.6440    3.7064   -0.9589 N   0  0  0  0  0  0  0  0  0  0  0  0
  -10.9626    2.3600   -1.3384 C   0  0  0  0  0  0  0  0  0  0  0  0
  -10.4425    1.8809   -2.3788 O   0  0  0  0  0  0  0  0  0  0  0  0
  -11.9485    1.5310   -0.5561 C   0  0  1  0  0  0  0  0  0  0  0  0
  -13.1028    1.0607   -1.4543 C   0  0  0  0  0  0  0  0  0  0  0  0
  -11.2660    0.4190    0.1171 N   0  0  0  0  0  0  0  0  0  0  0  0
  -11.2701   -0.9308   -0.3703 C   0  0  0  0  0  0  0  0  0  0  0  0
  -10.7839   -1.1769   -1.5080 O   0  0  0  0  0  0  0  0  0  0  0  0
  -11.8182   -2.0634    0.4628 C   0  0  1  0  0  0  0  0  0  0  0  0
  -12.6860   -1.5676    1.6295 C   0  0  0  0  0  0  0  0  0  0  0  0
  -12.6285   -2.9355   -0.3908 N   0  0  0  0  0  0  0  0  0  0  0  0
  -12.4047   -4.3355   -0.6495 C   0  0  0  0  0  0  0  0  0  0  0  0
  -13.2607   -4.9538   -1.3380 O   0  0  0  0  0  0  0  0  0  0  0  0
  -11.2428   -5.1076   -0.0550 C   0  0  1  0  0  0  0  0  0  0  0  0
  -11.6419   -5.6311    1.3269 C   0  0  0  0  0  0  0  0  0  0  0  0
  -10.8567   -6.2269   -0.9231 N   0  0  0  0  0  0  0  0  0  0  0  0
   -9.4971   -6.6356   -1.1367 C   0  0  0  0  0  0  0  0  0  0  0  0
   -9.1791   -7.1284   -2.2526 O   0  0  0  0  0  0  0  0  0  0  0  0
   -8.4891   -6.6436   -0.0102 C   0  0  1  0  0  0  0  0  0  0  0  0
   -8.5503   -7.9820    0.7267 C   0  0  0  0  0  0  0  0  0  0  0  0
   -7.1284   -6.4279   -0.5184 N   0  0  0  0  0  0  0  0  0  0  0  0
   -6.1433   -5.7388    0.2661 C   0  0  0  0  0  0  0  0  0  0  0  0
   -6.4937   -4.8074    1.0429 O   0  0  0  0  0  0  0  0  0  0  0  0
   -0.2978    5.1708    1.3688 C   0  0  0  0  0  0  0  0  0  0  0  0
   -1.3945    5.4828    1.9096 O   0  0  0  0  0  0  0  0  0  0  0  0
    0.7888    6.1186    1.4429 N   0  0  0  0  0  0  0  0  0  0  0  0
    2.2003    5.8972    1.0954 C   0  0  2  0  0  0  0  0  0  0  0  0
    2.3959    5.8017   -0.4276 C   0  0  0  0  0  0  0  0  0  0  0  0
    2.7987    4.7363    1.8511 C   0  0  0  0  0  0  0  0  0  0  0  0
    2.1047    4.0667    2.6616 O   0  0  0  0  0  0  0  0  0  0  0  0
    4.1969    4.4660    1.7627 N   0  0  0  0  0  0  0  0  0  0  0  0
    4.7569    3.4940    0.8213 C   0  0  2  0  0  0  0  0  0  0  0  0
    4.0866    2.1214    0.9903 C   0  0  0  0  0  0  0  0  0  0  0  0
    6.2579    3.4126    1.0156 C   0  0  0  0  0  0  0  0  0  0  0  0
    6.7688    2.4054    1.5842 O   0  0  0  0  0  0  0  0  0  0  0  0
    7.1129    4.5166    0.6740 N   0  0  0  0  0  0  0  0  0  0  0  0
    6.8285    5.4416   -0.4313 C   0  0  2  0  0  0  0  0  0  0  0  0
    6.9630    4.7388   -1.7860 C   0  0  0  0  0  0  0  0  0  0  0  0
    7.7049    6.6744   -0.3720 C   0  0  0  0  0  0  0  0  0  0  0  0
    7.1856    7.7655   -0.0093 O   0  0  0  0  0  0  0  0  0  0  0  0
    9.0779    6.6739   -0.8057 N   0  0  0  0  0  0  0  0  0  0  0  0
   10.0594    5.6747   -0.3710 C   0  0  2  0  0  0  0  0  0  0  0  0
   10.6508    6.1021    0.9761 C   0  0  0  0  0  0  0  0  0  0  0  0
   11.1549    5.5158   -1.3997 C   0  0  0  0  0  0  0  0  0  0  0  0
   11.5648    6.5288   -2.0306 O   0  0  0  0  0  0  0  0  0  0  0  0
   11.7388    4.2347   -1.6966 N   0  0  0  0  0  0  0  0  0  0  0  0
   11.9365    3.1865   -0.6887 C   0  0  2  0  0  0  0  0  0  0  0  0
   13.3051    3.3534   -0.0213 C   0  0  0  0  0  0  0  0  0  0  0  0
   11.8278    1.8272   -1.3247 C   0  0  0  0  0  0  0  0  0  0  0  0
   12.6891    1.4576   -2.1691 O   0  0  0  0  0  0  0  0  0  0  0  0
   10.7598    0.9416   -0.9455 N   0  0  0  0  0  0  0  0  0  0  0  0
   11.0190   -0.3439   -0.2780 C   0  0  2  0  0  0  0  0  0  0  0  0
   11.8337   -0.0857    1.0004 C   0  0  0  0  0  0  0  0  0  0  0  0
   11.6983   -1.3266   -1.2180 C   0  0  0  0  0  0  0  0  0  0  0  0
   11.6816   -1.1061   -2.4608 O   0  0  0  0  0  0  0  0  0  0  0  0
   12.3736   -2.5068   -0.7503 N   0  0  0  0  0  0  0  0  0  0  0  0
   11.9141   -3.3447    0.3609 C   0  0  2  0  0  0  0  0  0  0  0  0
   13.0151   -3.4474    1.4228 C   0  0  0  0  0  0  0  0  0  0  0  0
   11.5777   -4.7250   -0.1393 C   0  0  0  0  0  0  0  0  0  0  0  0
   12.4252   -5.3702   -0.8158 O   0  0  0  0  0  0  0  0  0  0  0  0
   10.3559   -5.3629    0.2433 N   0  0  0  0  0  0  0  0  0  0  0  0
    9.0533   -5.1338   -0.3995 C   0  0  2  0  0  0  0  0  0  0  0  0
    9.1641   -4.3165   -1.6964 C   0  0  0  0  0  0  0  0  0  0  0  0
    8.1130   -4.4583    0.5632 C   0  0  0  0  0  0  0  0  0  0  0  0
    8.4320   -3.3309    1.0300 O   0  0  0  0  0  0  0  0  0  0  0  0
    6.8278   -5.0063    0.9069 N   0  0  0  0  0  0  0  0  0  0  0  0
    6.5535   -6.3848    1.3427 C   0  0  2  0  0  0  0  0  0  0  0  0
    7.7382   -7.0452    2.0554 C   0  0  0  0  0  0  0  0  0  0  0  0
    6.0327   -7.2330    0.2108 C   0  0  0  0  0  0  0  0  0  0  0  0
    6.8238   -7.6938   -0.6552 O   0  0  0  0  0  0  0  0  0  0  0  0
    4.6575   -7.6166    0.1556 N   0  0  0  0  0  0  0  0  0  0  0  0
    3.5914   -6.6566   -0.1600 C   0  0  1  0  0  0  0  0  0  0  0  0
    2.4746   -7.3719   -0.8845 C   0  0  0  0  0  0  0  0  0  0  0  0
    1.6938   -8.3717   -0.2257 N   0  0  0  0  0  0  0  0  0  0  0  0
    2.2490   -7.1134   -2.0967 O   0  0  0  0  0  0  0  0  0  0  0  0
    3.0961   -5.9517    1.1263 C   0  0  0  0  0  0  0  0  0  0  0  0
    1.4473   -5.1539    0.9761 S   0  0  0  0  0  0  0  0  0  0  0  0
    1.9308   -3.8541   -0.2156 C   0  0  0  0  0  0  0  0  0  0  0  0
   -1.9122   -8.5836    2.0543 H   0  0  0  0  0  0  0  0  0  0  0  0
   -3.6318   -8.7109    1.5361 H   0  0  0  0  0  0  0  0  0  0  0  0
   -2.3841   -8.0231    0.4088 H   0  0  0  0  0  0  0  0  0  0  0  0
   -4.0692   -4.8953    1.8356 H   0  0  0  0  0  0  0  0  0  0  0  0
   -4.6838   -7.2375   -0.0139 H   0  0  0  0  0  0  0  0  0  0  0  0
   -2.9180   -5.8229   -1.0070 H   0  0  0  0  0  0  0  0  0  0  0  0
   -4.4441   -5.7838   -1.9630 H   0  0  0  0  0  0  0  0  0  0  0  0
   -3.0888   -2.6306   -2.8913 H   0  0  0  0  0  0  0  0  0  0  0  0
   -2.4263   -4.2705   -2.6796 H   0  0  0  0  0  0  0  0  0  0  0  0
   -0.4007   -4.6075   -1.3758 H   0  0  0  0  0  0  0  0  0  0  0  0
    1.6485   -1.1658    0.1873 H   0  0  0  0  0  0  0  0  0  0  0  0
   -2.3371   -0.7826   -1.3845 H   0  0  0  0  0  0  0  0  0  0  0  0
   -1.3413    1.0971   -0.4701 H   0  0  0  0  0  0  0  0  0  0  0  0
    0.3633    1.1329   -1.0712 H   0  0  0  0  0  0  0  0  0  0  0  0
   -1.7708    2.4836    1.4062 H   0  0  0  0  0  0  0  0  0  0  0  0
   -0.5686    2.9705    2.6189 H   0  0  0  0  0  0  0  0  0  0  0  0
    0.8482    3.6273    0.3866 H   0  0  0  0  0  0  0  0  0  0  0  0
   -0.7976    3.1173   -1.3218 H   0  0  0  0  0  0  0  0  0  0  0  0
   -3.5986    4.9191   -2.0443 H   0  0  0  0  0  0  0  0  0  0  0  0
   -3.4658    3.9504    0.8698 H   0  0  0  0  0  0  0  0  0  0  0  0
   -3.5076    2.9137   -0.6081 H   0  0  0  0  0  0  0  0  0  0  0  0
   -4.9157    3.9447   -0.2031 H   0  0  0  0  0  0  0  0  0  0  0  0
   -3.4633    7.1738   -1.1909 H   0  0  0  0  0  0  0  0  0  0  0  0
   -6.5012    7.2546    1.1410 H   0  0  0  0  0  0  0  0  0  0  0  0
   -4.8228    9.1287   -0.6558 H   0  0  0  0  0  0  0  0  0  0  0  0
   -4.9230    9.2210    1.1493 H   0  0  0  0  0  0  0  0  0  0  0  0
   -6.3899    9.5140    0.1457 H   0  0  0  0  0  0  0  0  0  0  0  0
   -5.8421    6.8577   -1.8098 H   0  0  0  0  0  0  0  0  0  0  0  0
   -8.4323    8.2388    0.3799 H   0  0  0  0  0  0  0  0  0  0  0  0
  -10.6255    7.1149   -1.4502 H   0  0  0  0  0  0  0  0  0  0  0  0
   -9.8209    8.7275   -1.5902 H   0  0  0  0  0  0  0  0  0  0  0  0
  -10.8260    8.3441   -0.1465 H   0  0  0  0  0  0  0  0  0  0  0  0
   -9.8873    6.7109    1.6040 H   0  0  0  0  0  0  0  0  0  0  0  0
  -10.4425    3.2671    1.1030 H   0  0  0  0  0  0  0  0  0  0  0  0
  -12.6922    4.3393    0.6780 H   0  0  0  0  0  0  0  0  0  0  0  0
  -11.7275    5.2086    1.9158 H   0  0  0  0  0  0  0  0  0  0  0  0
  -11.8763    5.8671    0.2312 H   0  0  0  0  0  0  0  0  0  0  0  0
  -10.3962    4.3837   -1.7211 H   0  0  0  0  0  0  0  0  0  0  0  0
  -12.4156    2.1523    0.2302 H   0  0  0  0  0  0  0  0  0  0  0  0
  -13.8319    0.4733   -0.8617 H   0  0  0  0  0  0  0  0  0  0  0  0
  -13.6302    1.9415   -1.8814 H   0  0  0  0  0  0  0  0  0  0  0  0
  -12.7332    0.4397   -2.2974 H   0  0  0  0  0  0  0  0  0  0  0  0
  -10.8585    0.5986    1.0649 H   0  0  0  0  0  0  0  0  0  0  0  0
  -10.9603   -2.5981    0.9097 H   0  0  0  0  0  0  0  0  0  0  0  0
  -12.0707   -1.0038    2.3627 H   0  0  0  0  0  0  0  0  0  0  0  0
  -13.1352   -2.4369    2.1552 H   0  0  0  0  0  0  0  0  0  0  0  0
  -13.5059   -0.9159    1.2595 H   0  0  0  0  0  0  0  0  0  0  0  0
  -13.4715   -2.5040   -0.8363 H   0  0  0  0  0  0  0  0  0  0  0  0
  -10.3691   -4.4366    0.0388 H   0  0  0  0  0  0  0  0  0  0  0  0
  -11.9448   -4.7907    1.9875 H   0  0  0  0  0  0  0  0  0  0  0  0
  -10.7909   -6.1537    1.8067 H   0  0  0  0  0  0  0  0  0  0  0  0
  -12.4871   -6.3444    1.2454 H   0  0  0  0  0  0  0  0  0  0  0  0
  -11.5905   -6.7352   -1.4689 H   0  0  0  0  0  0  0  0  0  0  0  0
   -8.7406   -5.8431    0.7213 H   0  0  0  0  0  0  0  0  0  0  0  0
   -8.2905   -8.8163    0.0402 H   0  0  0  0  0  0  0  0  0  0  0  0
   -7.8323   -7.9830    1.5734 H   0  0  0  0  0  0  0  0  0  0  0  0
   -9.5716   -8.1518    1.1290 H   0  0  0  0  0  0  0  0  0  0  0  0
   -6.7837   -7.0638   -1.2740 H   0  0  0  0  0  0  0  0  0  0  0  0
    0.5612    7.0507    1.8601 H   0  0  0  0  0  0  0  0  0  0  0  0
    2.7665    6.7954    1.4240 H   0  0  0  0  0  0  0  0  0  0  0  0
    2.1971    4.7891   -0.8270 H   0  0  0  0  0  0  0  0  0  0  0  0
    1.7320    6.5284   -0.9437 H   0  0  0  0  0  0  0  0  0  0  0  0
    3.4455    6.0617   -0.6860 H   0  0  0  0  0  0  0  0  0  0  0  0
    4.8166    4.9299    2.4678 H   0  0  0  0  0  0  0  0  0  0  0  0
    4.5467    3.8274   -0.2199 H   0  0  0  0  0  0  0  0  0  0  0  0
    4.5698    1.3707    0.3283 H   0  0  0  0  0  0  0  0  0  0  0  0
    3.0159    2.1836    0.7039 H   0  0  0  0  0  0  0  0  0  0  0  0
    4.1559    1.7779    2.0478 H   0  0  0  0  0  0  0  0  0  0  0  0
    7.9459    4.6697    1.2822 H   0  0  0  0  0  0  0  0  0  0  0  0
    5.7800    5.7908   -0.3323 H   0  0  0  0  0  0  0  0  0  0  0  0
    7.9831    4.3320   -1.9358 H   0  0  0  0  0  0  0  0  0  0  0  0
    6.2433    3.8971   -1.8635 H   0  0  0  0  0  0  0  0  0  0  0  0
    6.7438    5.4567   -2.6061 H   0  0  0  0  0  0  0  0  0  0  0  0
    9.4465    7.5951   -1.1265 H   0  0  0  0  0  0  0  0  0  0  0  0
    9.5591    4.6984   -0.2540 H   0  0  0  0  0  0  0  0  0  0  0  0
   11.1777    7.0746    0.8759 H   0  0  0  0  0  0  0  0  0  0  0  0
    9.8380    6.2183    1.7274 H   0  0  0  0  0  0  0  0  0  0  0  0
   11.3597    5.3374    1.3564 H   0  0  0  0  0  0  0  0  0  0  0  0
   12.3283    4.1802   -2.5565 H   0  0  0  0  0  0  0  0  0  0  0  0
   11.1697    3.2553    0.1056 H   0  0  0  0  0  0  0  0  0  0  0  0
   14.1271    3.2364   -0.7623 H   0  0  0  0  0  0  0  0  0  0  0  0
   13.3912    4.3629    0.4355 H   0  0  0  0  0  0  0  0  0  0  0  0
   13.4351    2.5952    0.7816 H   0  0  0  0  0  0  0  0  0  0  0  0
    9.8110    1.3620   -0.8204 H   0  0  0  0  0  0  0  0  0  0  0  0
   10.0424   -0.7798    0.0204 H   0  0  0  0  0  0  0  0  0  0  0  0
   11.6540   -0.8812    1.7474 H   0  0  0  0  0  0  0  0  0  0  0  0
   11.5142    0.8657    1.4726 H   0  0  0  0  0  0  0  0  0  0  0  0
   12.9178   -0.0160    0.7695 H   0  0  0  0  0  0  0  0  0  0  0  0
   13.1685   -2.8631   -1.3339 H   0  0  0  0  0  0  0  0  0  0  0  0
   11.0112   -2.9048    0.8306 H   0  0  0  0  0  0  0  0  0  0  0  0
   13.9096   -3.9653    1.0161 H   0  0  0  0  0  0  0  0  0  0  0  0
   13.3338   -2.4392    1.7578 H   0  0  0  0  0  0  0  0  0  0  0  0
   12.6421   -4.0078    2.3053 H   0  0  0  0  0  0  0  0  0  0  0  0
   10.4405   -6.1600    0.9126 H   0  0  0  0  0  0  0  0  0  0  0  0
    8.6470   -6.1170   -0.6881 H   0  0  0  0  0  0  0  0  0  0  0  0
    9.5299   -3.2895   -1.4873 H   0  0  0  0  0  0  0  0  0  0  0  0
    8.1672   -4.2475   -2.1816 H   0  0  0  0  0  0  0  0  0  0  0  0
    9.8612   -4.8152   -2.4031 H   0  0  0  0  0  0  0  0  0  0  0  0
    6.0991   -4.2989    1.1623 H   0  0  0  0  0  0  0  0  0  0  0  0
    5.7477   -6.3316    2.1068 H   0  0  0  0  0  0  0  0  0  0  0  0
    7.3917   -7.9549    2.5906 H   0  0  0  0  0  0  0  0  0  0  0  0
    8.5233   -7.3589    1.3402 H   0  0  0  0  0  0  0  0  0  0  0  0
    8.1778   -6.3499    2.8017 H   0  0  0  0  0  0  0  0  0  0  0  0
    4.4760   -8.6349    0.0148 H   0  0  0  0  0  0  0  0  0  0  0  0
    4.0095   -5.8858   -0.8440 H   0  0  0  0  0  0  0  0  0  0  0  0
    1.0202   -8.9532   -0.7677 H   0  0  0  0  0  0  0  0  0  0  0  0
    1.8472   -8.5878    0.7861 H   0  0  0  0  0  0  0  0  0  0  0  0
    3.0228   -6.6945    1.9487 H   0  0  0  0  0  0  0  0  0  0  0  0
    3.8304   -5.1786    1.4374 H   0  0  0  0  0  0  0  0  0  0  0  0
    2.7583   -3.2531    0.2184 H   0  0  0  0  0  0  0  0  0  0  0  0
    2.2860   -4.3165   -1.1613 H   0  0  0  0  0  0  0  0  0  0  0  0
  1  2  1  0
  2  3  2  0
  2  4  1  0
  4  5  1  0
  5  6  1  0
  6  7  1  0
  7  8  1  0
  8  9  1  0
  9 10  2  0
 10 11  1  0
 11 12  2  0
 12 13  1  0
 13 14  2  0
 13 15  1  0
 15 16  1  0
 16 17  1  0
 17 18  1  0
 18 19  1  0
 19 20  1  0
 20 21  2  0
 20 22  1  0
 22 23  1  0
 22 24  1  0
 24 25  1  0
 25 26  2  0
 25 27  1  0
 27 28  1  0
 27 29  1  0
 29 30  1  0
 30 31  2  0
 30 32  1  0
 32 33  1  0
 32 34  1  0
 34 35  1  0
 35 36  2  0
 35 37  1  0
 37 38  1  0
 37 39  1  0
 39 40  1  0
 40 41  2  0
 40 42  1  0
 42 43  1  0
 42 44  1  0
 44 45  1  0
 45 46  2  0
 45 47  1  0
 47 48  1  0
 47 49  1  0
 49 50  1  0
 50 51  2  0
 50 52  1  0
 52 53  1  0
 52 54  1  0
 54 55  1  0
 55 56  2  0
 55 57  1  0
 57 58  1  0
 57 59  1  0
 59 60  1  0
 60 61  2  0
 18 62  1  0
 62 63  2  0
 62 64  1  0
 64 65  1  0
 65 66  1  0
 65 67  1  0
 67 68  2  0
 67 69  1  0
 69 70  1  0
 70 71  1  0
 70 72  1  0
 72 73  2  0
 72 74  1  0
 74 75  1  0
 75 76  1  0
 75 77  1  0
 77 78  2  0
 77 79  1  0
 79 80  1  0
 80 81  1  0
 80 82  1  0
 82 83  2  0
 82 84  1  0
 84 85  1  0
 85 86  1  0
 85 87  1  0
 87 88  2  0
 87 89  1  0
 89 90  1  0
 90 91  1  0
 90 92  1  0
 92 93  2  0
 92 94  1  0
 94 95  1  0
 95 96  1  0
 95 97  1  0
 97 98  2  0
 97 99  1  0
 99100  1  0
100101  1  0
100102  1  0
102103  2  0
102104  1  0
104105  1  0
105106  1  0
105107  1  0
107108  2  0
107109  1  0
109110  1  0
110111  1  0
111112  1  0
111113  2  0
110114  1  0
114115  1  0
115116  1  0
 60  5  1  0
 14  9  1  0
116 11  1  0
  1117  1  0
  1118  1  0
  1119  1  0
  4120  1  0
  5121  1  6
  6122  1  0
  6123  1  0
  8124  1  0
  8125  1  0
 10126  1  0
 12127  1  0
 14128  1  0
 15129  1  0
 15130  1  0
 17131  1  0
 17132  1  0
 18133  1  6
 19134  1  0
 22135  1  6
 23136  1  0
 23137  1  0
 23138  1  0
 24139  1  0
 27140  1  1
 28141  1  0
 28142  1  0
 28143  1  0
 29144  1  0
 32145  1  1
 33146  1  0
 33147  1  0
 33148  1  0
 34149  1  0
 37150  1  1
 38151  1  0
 38152  1  0
 38153  1  0
 39154  1  0
 42155  1  1
 43156  1  0
 43157  1  0
 43158  1  0
 44159  1  0
 47160  1  1
 48161  1  0
 48162  1  0
 48163  1  0
 49164  1  0
 52165  1  1
 53166  1  0
 53167  1  0
 53168  1  0
 54169  1  0
 57170  1  1
 58171  1  0
 58172  1  0
 58173  1  0
 59174  1  0
 64175  1  0
 65176  1  1
 66177  1  0
 66178  1  0
 66179  1  0
 69180  1  0
 70181  1  6
 71182  1  0
 71183  1  0
 71184  1  0
 74185  1  0
 75186  1  1
 76187  1  0
 76188  1  0
 76189  1  0
 79190  1  0
 80191  1  1
 81192  1  0
 81193  1  0
 81194  1  0
 84195  1  0
 85196  1  1
 86197  1  0
 86198  1  0
 86199  1  0
 89200  1  0
 90201  1  1
 91202  1  0
 91203  1  0
 91204  1  0
 94205  1  0
 95206  1  1
 96207  1  0
 96208  1  0
 96209  1  0
 99210  1  0
100211  1  6
101212  1  0
101213  1  0
101214  1  0
104215  1  0
105216  1  1
106217  1  0
106218  1  0
106219  1  0
109220  1  0
110221  1  6
112222  1  0
112223  1  0
114224  1  0
114225  1  0
116226  1  0
116227  1  0
M  END
