
     RDKit          3D

237239  0  0  0  0  0  0  0  0999 V2000
    5.1365    8.0546    1.6925 C   0  0  0  0  0  0  0  0  0  0  0  0
    5.3356    7.6597    0.2586 C   0  0  0  0  0  0  0  0  0  0  0  0
    5.0719    8.4973   -0.6451 O   0  0  0  0  0  0  0  0  0  0  0  0
    5.8125    6.3533   -0.1124 N   0  0  0  0  0  0  0  0  0  0  0  0
    6.1258    5.2899    0.8511 C   0  0  1  0  0  0  0  0  0  0  0  0
    4.8480    4.4937    1.2371 C   0  0  0  0  0  0  0  0  0  0  0  0
    4.6668    2.8259    0.4905 S   0  0  0  0  0  0  0  0  0  0  0  0
    4.0257    3.3706   -1.1299 C   0  0  0  0  0  0  0  0  0  0  0  0
    2.5194    3.3596   -1.1299 C   0  0  0  0  0  0  0  0  0  0  0  0
    1.8355    2.1327   -1.0618 C   0  0  0  0  0  0  0  0  0  0  0  0
    0.4320    2.0866   -1.1744 C   0  0  0  0  0  0  0  0  0  0  0  0
   -0.2849    3.2926   -1.3084 C   0  0  0  0  0  0  0  0  0  0  0  0
    0.3914    4.5259   -1.3462 C   0  0  0  0  0  0  0  0  0  0  0  0
    1.7921    4.5524   -1.2676 C   0  0  0  0  0  0  0  0  0  0  0  0
   -0.3827    5.8068   -1.5046 C   0  0  0  0  0  0  0  0  0  0  0  0
   -0.4813    6.7428    0.0681 S   0  0  0  0  0  0  0  0  0  0  0  0
   -1.7293    5.7083    0.9388 C   0  0  0  0  0  0  0  0  0  0  0  0
   -3.1706    6.2313    0.7475 C   0  0  1  0  0  0  0  0  0  0  0  0
   -3.6454    5.9114   -0.6466 C   0  0  0  0  0  0  0  0  0  0  0  0
   -3.7808    6.9400   -1.6254 N   0  0  0  0  0  0  0  0  0  0  0  0
   -3.8931    4.7122   -0.9591 O   0  0  0  0  0  0  0  0  0  0  0  0
   -4.0691    5.6153    1.7343 N   0  0  0  0  0  0  0  0  0  0  0  0
   -5.2601    6.2142    2.2873 C   0  0  0  0  0  0  0  0  0  0  0  0
   -5.5304    5.9942    3.4982 O   0  0  0  0  0  0  0  0  0  0  0  0
   -6.2305    7.0653    1.4955 C   0  0  1  0  0  0  0  0  0  0  0  0
   -5.7258    8.5012    1.3057 C   0  0  0  0  0  0  0  0  0  0  0  0
   -6.5559    6.4474    0.2062 N   0  0  0  0  0  0  0  0  0  0  0  0
   -7.2967    5.2248    0.0974 C   0  0  0  0  0  0  0  0  0  0  0  0
   -6.7568    4.2342   -0.4584 O   0  0  0  0  0  0  0  0  0  0  0  0
   -8.7221    5.0992    0.5848 C   0  0  1  0  0  0  0  0  0  0  0  0
   -8.7599    4.6046    2.0336 C   0  0  0  0  0  0  0  0  0  0  0  0
   -9.4610    6.3668    0.4401 N   0  0  0  0  0  0  0  0  0  0  0  0
  -10.8886    6.5075    0.4391 C   0  0  0  0  0  0  0  0  0  0  0  0
  -11.3706    7.6732    0.3948 O   0  0  0  0  0  0  0  0  0  0  0  0
  -11.8465    5.3320    0.4400 C   0  0  1  0  0  0  0  0  0  0  0  0
  -12.7757    5.4333    1.6554 C   0  0  0  0  0  0  0  0  0  0  0  0
  -12.6408    5.3426   -0.7949 N   0  0  0  0  0  0  0  0  0  0  0  0
  -13.0055    4.1638   -1.5341 C   0  0  0  0  0  0  0  0  0  0  0  0
  -13.1059    4.2486   -2.7881 O   0  0  0  0  0  0  0  0  0  0  0  0
  -13.4283    2.8830   -0.8369 C   0  0  1  0  0  0  0  0  0  0  0  0
  -14.8719    3.0446   -0.3336 C   0  0  0  0  0  0  0  0  0  0  0  0
  -13.3604    1.7440   -1.7683 N   0  0  0  0  0  0  0  0  0  0  0  0
  -12.8605    0.4305   -1.4632 C   0  0  0  0  0  0  0  0  0  0  0  0
  -12.5633   -0.3320   -2.4217 O   0  0  0  0  0  0  0  0  0  0  0  0
  -12.8280   -0.1320   -0.0569 C   0  0  1  0  0  0  0  0  0  0  0  0
  -14.2307   -0.6568    0.2927 C   0  0  0  0  0  0  0  0  0  0  0  0
  -11.8091   -1.1934    0.0269 N   0  0  0  0  0  0  0  0  0  0  0  0
  -11.9261   -2.3539    0.8665 C   0  0  0  0  0  0  0  0  0  0  0  0
  -12.1985   -2.2072    2.0844 O   0  0  0  0  0  0  0  0  0  0  0  0
  -11.6905   -3.7324    0.3124 C   0  0  1  0  0  0  0  0  0  0  0  0
  -12.4364   -3.9371   -1.0093 C   0  0  0  0  0  0  0  0  0  0  0  0
  -10.2614   -3.9600    0.1121 N   0  0  0  0  0  0  0  0  0  0  0  0
   -9.5159   -4.7852    1.0157 C   0  0  0  0  0  0  0  0  0  0  0  0
   -9.2540   -4.3580    2.1733 O   0  0  0  0  0  0  0  0  0  0  0  0
   -9.0762   -6.1751    0.6232 C   0  0  1  0  0  0  0  0  0  0  0  0
  -10.2953   -7.0943    0.5260 C   0  0  0  0  0  0  0  0  0  0  0  0
   -8.3622   -6.1610   -0.6589 N   0  0  0  0  0  0  0  0  0  0  0  0
   -7.2519   -7.0166   -0.9858 C   0  0  0  0  0  0  0  0  0  0  0  0
   -6.5640   -6.7528   -2.0094 O   0  0  0  0  0  0  0  0  0  0  0  0
   -6.8980   -8.2490   -0.1675 C   0  0  1  0  0  0  0  0  0  0  0  0
   -6.8030   -9.4699   -1.0869 C   0  0  0  0  0  0  0  0  0  0  0  0
   -5.6452   -8.1139    0.5892 N   0  0  0  0  0  0  0  0  0  0  0  0
   -4.8084   -6.9409    0.6987 C   0  0  0  0  0  0  0  0  0  0  0  0
   -5.2867   -5.7967    0.4676 O   0  0  0  0  0  0  0  0  0  0  0  0
   -3.4113   -7.0546    1.2574 C   0  0  1  0  0  0  0  0  0  0  0  0
   -2.6941   -8.3141    0.7703 C   0  0  0  0  0  0  0  0  0  0  0  0
   -2.6126   -5.8816    0.8730 N   0  0  0  0  0  0  0  0  0  0  0  0
   -2.1120   -4.9392    1.8303 C   0  0  0  0  0  0  0  0  0  0  0  0
   -2.5942   -4.9094    2.9961 O   0  0  0  0  0  0  0  0  0  0  0  0
   -0.9284   -4.0629    1.5063 C   0  0  1  0  0  0  0  0  0  0  0  0
    0.3680   -4.8752    1.5982 C   0  0  0  0  0  0  0  0  0  0  0  0
   -1.1155   -3.3926    0.2099 N   0  0  0  0  0  0  0  0  0  0  0  0
   -0.3099   -3.6530   -0.9552 C   0  0  0  0  0  0  0  0  0  0  0  0
   -0.2960   -4.8154   -1.4413 O   0  0  0  0  0  0  0  0  0  0  0  0
    0.3766   -2.5222   -1.6895 C   0  0  1  0  0  0  0  0  0  0  0  0
    1.1103   -1.5393   -0.7423 C   0  0  0  0  0  0  0  0  0  0  0  0
   -0.0000   -0.3426    0.0941 S   0  0  0  0  0  0  0  0  0  0  0  0
   -0.2751    0.7636   -1.3445 C   0  0  0  0  0  0  0  0  0  0  0  0
    1.3052   -3.0140   -2.7177 N   0  0  0  0  0  0  0  0  0  0  0  0
    2.6579   -3.4352   -2.4576 C   0  0  0  0  0  0  0  0  0  0  0  0
    3.5841   -2.9592   -3.1647 O   0  0  0  0  0  0  0  0  0  0  0  0
    2.9762   -4.5055   -1.4360 C   0  0  1  0  0  0  0  0  0  0  0  0
    3.3945   -5.8033   -2.1303 C   0  0  0  0  0  0  0  0  0  0  0  0
    3.9792   -4.0469   -0.4706 N   0  0  0  0  0  0  0  0  0  0  0  0
    5.3978   -4.1906   -0.6572 C   0  0  0  0  0  0  0  0  0  0  0  0
    5.9435   -3.7178   -1.6910 O   0  0  0  0  0  0  0  0  0  0  0  0
    6.2487   -4.9671    0.3205 C   0  0  1  0  0  0  0  0  0  0  0  0
    5.5820   -5.1371    1.6891 C   0  0  0  0  0  0  0  0  0  0  0  0
    6.5365   -6.2820   -0.2522 N   0  0  0  0  0  0  0  0  0  0  0  0
    7.7716   -6.5750   -0.9197 C   0  0  0  0  0  0  0  0  0  0  0  0
    7.7292   -7.0021   -2.1070 O   0  0  0  0  0  0  0  0  0  0  0  0
    9.1087   -6.4117   -0.2245 C   0  0  1  0  0  0  0  0  0  0  0  0
    9.1080   -7.1641    1.1093 C   0  0  0  0  0  0  0  0  0  0  0  0
   10.1948   -6.9345   -1.0625 N   0  0  0  0  0  0  0  0  0  0  0  0
   11.4053   -6.2136   -1.3521 C   0  0  0  0  0  0  0  0  0  0  0  0
   11.9485   -6.3738   -2.4784 O   0  0  0  0  0  0  0  0  0  0  0  0
   12.0428   -5.2940   -0.3476 C   0  0  1  0  0  0  0  0  0  0  0  0
   13.5015   -5.7153   -0.1041 C   0  0  0  0  0  0  0  0  0  0  0  0
   11.9131   -3.9038   -0.8024 N   0  0  0  0  0  0  0  0  0  0  0  0
   12.8786   -2.8891   -0.5063 C   0  0  0  0  0  0  0  0  0  0  0  0
   14.0207   -2.9420   -1.0372 O   0  0  0  0  0  0  0  0  0  0  0  0
   12.5068   -1.7429    0.4022 C   0  0  1  0  0  0  0  0  0  0  0  0
   11.9996   -2.2802    1.7463 C   0  0  0  0  0  0  0  0  0  0  0  0
   13.6682   -0.8730    0.6347 N   0  0  0  0  0  0  0  0  0  0  0  0
   13.7578    0.5228    0.3100 C   0  0  0  0  0  0  0  0  0  0  0  0
   14.8484    1.1135    0.5448 O   0  0  0  0  0  0  0  0  0  0  0  0
   12.5994    1.3072   -0.2760 C   0  0  1  0  0  0  0  0  0  0  0  0
   11.5156    1.5788    0.7751 C   0  0  0  0  0  0  0  0  0  0  0  0
   13.0475    2.5674   -0.8836 N   0  0  0  0  0  0  0  0  0  0  0  0
   13.3147    3.7592   -0.1239 C   0  0  0  0  0  0  0  0  0  0  0  0
   14.2116    3.7469    0.7711 O   0  0  0  0  0  0  0  0  0  0  0  0
   12.5909    5.0434   -0.4229 C   0  0  1  0  0  0  0  0  0  0  0  0
   13.4751    5.9810   -1.2537 C   0  0  0  0  0  0  0  0  0  0  0  0
   11.3328    4.7817   -1.1289 N   0  0  0  0  0  0  0  0  0  0  0  0
   10.0431    5.1663   -0.6301 C   0  0  0  0  0  0  0  0  0  0  0  0
    9.2036    5.6497   -1.4351 O   0  0  0  0  0  0  0  0  0  0  0  0
    9.6946    5.0487    0.8422 C   0  0  1  0  0  0  0  0  0  0  0  0
    9.5745    6.4425    1.4619 C   0  0  0  0  0  0  0  0  0  0  0  0
    8.4627    4.2826    1.1005 N   0  0  0  0  0  0  0  0  0  0  0  0
    7.2641    4.4423    0.3251 C   0  0  0  0  0  0  0  0  0  0  0  0
    7.1868    3.9181   -0.8237 O   0  0  0  0  0  0  0  0  0  0  0  0
    6.1073    8.0273    2.2269 H   0  0  0  0  0  0  0  0  0  0  0  0
    4.4201    7.3680    2.1921 H   0  0  0  0  0  0  0  0  0  0  0  0
    4.7355    9.0901    1.7562 H   0  0  0  0  0  0  0  0  0  0  0  0
    5.9359    6.1684   -1.1342 H   0  0  0  0  0  0  0  0  0  0  0  0
    6.5072    5.7619    1.7856 H   0  0  0  0  0  0  0  0  0  0  0  0
    4.8594    4.3401    2.3361 H   0  0  0  0  0  0  0  0  0  0  0  0
    3.9354    5.0959    1.0255 H   0  0  0  0  0  0  0  0  0  0  0  0
    4.3853    2.6519   -1.8975 H   0  0  0  0  0  0  0  0  0  0  0  0
    4.4207    4.3713   -1.4030 H   0  0  0  0  0  0  0  0  0  0  0  0
    2.4027    1.2128   -0.9801 H   0  0  0  0  0  0  0  0  0  0  0  0
   -1.3667    3.2721   -1.3979 H   0  0  0  0  0  0  0  0  0  0  0  0
    2.3154    5.5038   -1.3478 H   0  0  0  0  0  0  0  0  0  0  0  0
    0.1454    6.4469   -2.2464 H   0  0  0  0  0  0  0  0  0  0  0  0
   -1.3820    5.6097   -1.9213 H   0  0  0  0  0  0  0  0  0  0  0  0
   -1.6518    4.6367    0.6549 H   0  0  0  0  0  0  0  0  0  0  0  0
   -1.4712    5.7517    2.0162 H   0  0  0  0  0  0  0  0  0  0  0  0
   -3.1475    7.3302    0.9107 H   0  0  0  0  0  0  0  0  0  0  0  0
   -4.1201    6.7072   -2.5839 H   0  0  0  0  0  0  0  0  0  0  0  0
   -3.5373    7.9265   -1.4052 H   0  0  0  0  0  0  0  0  0  0  0  0
   -3.7298    4.7484    2.2177 H   0  0  0  0  0  0  0  0  0  0  0  0
   -7.1670    7.1663    2.0810 H   0  0  0  0  0  0  0  0  0  0  0  0
   -4.9545    8.5637    0.5151 H   0  0  0  0  0  0  0  0  0  0  0  0
   -5.3051    8.9029    2.2559 H   0  0  0  0  0  0  0  0  0  0  0  0
   -6.5755    9.1557    0.9953 H   0  0  0  0  0  0  0  0  0  0  0  0
   -6.2269    6.8868   -0.6822 H   0  0  0  0  0  0  0  0  0  0  0  0
   -9.2017    4.3341   -0.0651 H   0  0  0  0  0  0  0  0  0  0  0  0
   -8.1795    3.6579    2.1276 H   0  0  0  0  0  0  0  0  0  0  0  0
   -9.8006    4.4095    2.3513 H   0  0  0  0  0  0  0  0  0  0  0  0
   -8.3247    5.3475    2.7279 H   0  0  0  0  0  0  0  0  0  0  0  0
   -8.9155    7.2550    0.3528 H   0  0  0  0  0  0  0  0  0  0  0  0
  -11.2970    4.3785    0.5196 H   0  0  0  0  0  0  0  0  0  0  0  0
  -12.1744    5.4794    2.5900 H   0  0  0  0  0  0  0  0  0  0  0  0
  -13.4253    4.5374    1.7197 H   0  0  0  0  0  0  0  0  0  0  0  0
  -13.4112    6.3411    1.5904 H   0  0  0  0  0  0  0  0  0  0  0  0
  -12.8885    6.2644   -1.2182 H   0  0  0  0  0  0  0  0  0  0  0  0
  -12.7597    2.7186    0.0254 H   0  0  0  0  0  0  0  0  0  0  0  0
  -15.0602    2.3353    0.5010 H   0  0  0  0  0  0  0  0  0  0  0  0
  -15.0497    4.0663    0.0611 H   0  0  0  0  0  0  0  0  0  0  0  0
  -15.6017    2.8532   -1.1507 H   0  0  0  0  0  0  0  0  0  0  0  0
  -13.7583    1.8673   -2.7256 H   0  0  0  0  0  0  0  0  0  0  0  0
  -12.5511    0.6574    0.6690 H   0  0  0  0  0  0  0  0  0  0  0  0
  -14.4720   -1.5580   -0.3133 H   0  0  0  0  0  0  0  0  0  0  0  0
  -14.3008   -0.9117    1.3696 H   0  0  0  0  0  0  0  0  0  0  0  0
  -15.0069    0.1094    0.0778 H   0  0  0  0  0  0  0  0  0  0  0  0
  -10.8927   -1.0594   -0.4655 H   0  0  0  0  0  0  0  0  0  0  0  0
  -12.0891   -4.4699    1.0409 H   0  0  0  0  0  0  0  0  0  0  0  0
  -13.5302   -3.8118   -0.8569 H   0  0  0  0  0  0  0  0  0  0  0  0
  -12.0917   -3.2132   -1.7809 H   0  0  0  0  0  0  0  0  0  0  0  0
  -12.2515   -4.9615   -1.3910 H   0  0  0  0  0  0  0  0  0  0  0  0
   -9.7582   -3.4932   -0.6761 H   0  0  0  0  0  0  0  0  0  0  0  0
   -8.4033   -6.5525    1.4245 H   0  0  0  0  0  0  0  0  0  0  0  0
   -9.9874   -8.1307    0.2720 H   0  0  0  0  0  0  0  0  0  0  0  0
  -10.8306   -7.1270    1.4987 H   0  0  0  0  0  0  0  0  0  0  0  0
  -10.9938   -6.7398   -0.2626 H   0  0  0  0  0  0  0  0  0  0  0  0
   -8.6780   -5.4987   -1.4035 H   0  0  0  0  0  0  0  0  0  0  0  0
   -7.7083   -8.4755    0.5562 H   0  0  0  0  0  0  0  0  0  0  0  0
   -7.7306   -9.5733   -1.6930 H   0  0  0  0  0  0  0  0  0  0  0  0
   -6.6773  -10.3975   -0.4839 H   0  0  0  0  0  0  0  0  0  0  0  0
   -5.9270   -9.3734   -1.7685 H   0  0  0  0  0  0  0  0  0  0  0  0
   -5.3537   -8.9556    1.1283 H   0  0  0  0  0  0  0  0  0  0  0  0
   -3.5037   -7.1188    2.3594 H   0  0  0  0  0  0  0  0  0  0  0  0
   -1.6210   -8.2736    1.0509 H   0  0  0  0  0  0  0  0  0  0  0  0
   -3.1145   -9.2284    1.2459 H   0  0  0  0  0  0  0  0  0  0  0  0
   -2.7695   -8.4123   -0.3389 H   0  0  0  0  0  0  0  0  0  0  0  0
   -2.2711   -5.8244   -0.1095 H   0  0  0  0  0  0  0  0  0  0  0  0
   -0.8632   -3.2687    2.2814 H   0  0  0  0  0  0  0  0  0  0  0  0
    1.2303   -4.2296    1.3470 H   0  0  0  0  0  0  0  0  0  0  0  0
    0.3415   -5.7520    0.9188 H   0  0  0  0  0  0  0  0  0  0  0  0
    0.5089   -5.2447    2.6377 H   0  0  0  0  0  0  0  0  0  0  0  0
   -1.7145   -2.5385    0.2064 H   0  0  0  0  0  0  0  0  0  0  0  0
   -0.4261   -1.9613   -2.2138 H   0  0  0  0  0  0  0  0  0  0  0  0
    1.6616   -2.1061    0.0290 H   0  0  0  0  0  0  0  0  0  0  0  0
    1.8603   -0.9740   -1.3286 H   0  0  0  0  0  0  0  0  0  0  0  0
    0.0667    0.3030   -2.2951 H   0  0  0  0  0  0  0  0  0  0  0  0
   -1.3722    0.9101   -1.4421 H   0  0  0  0  0  0  0  0  0  0  0  0
    1.0893   -2.7499   -3.7122 H   0  0  0  0  0  0  0  0  0  0  0  0
    2.0627   -4.7454   -0.8717 H   0  0  0  0  0  0  0  0  0  0  0  0
    3.5550   -6.5994   -1.3723 H   0  0  0  0  0  0  0  0  0  0  0  0
    4.3333   -5.6698   -2.7145 H   0  0  0  0  0  0  0  0  0  0  0  0
    2.5928   -6.1412   -2.8239 H   0  0  0  0  0  0  0  0  0  0  0  0
    3.6288   -3.7710    0.4724 H   0  0  0  0  0  0  0  0  0  0  0  0
    7.1941   -4.4039    0.4861 H   0  0  0  0  0  0  0  0  0  0  0  0
    5.3949   -4.1415    2.1470 H   0  0  0  0  0  0  0  0  0  0  0  0
    4.6210   -5.6933    1.5922 H   0  0  0  0  0  0  0  0  0  0  0  0
    6.2460   -5.7181    2.3661 H   0  0  0  0  0  0  0  0  0  0  0  0
    5.7288   -6.9187   -0.4333 H   0  0  0  0  0  0  0  0  0  0  0  0
    9.2702   -5.3339   -0.0291 H   0  0  0  0  0  0  0  0  0  0  0  0
   10.1108   -7.0985    1.5898 H   0  0  0  0  0  0  0  0  0  0  0  0
    8.3746   -6.7119    1.8050 H   0  0  0  0  0  0  0  0  0  0  0  0
    8.8545   -8.2359    0.9599 H   0  0  0  0  0  0  0  0  0  0  0  0
   10.0622   -7.8593   -1.5343 H   0  0  0  0  0  0  0  0  0  0  0  0
   11.5202   -5.3878    0.6252 H   0  0  0  0  0  0  0  0  0  0  0  0
   13.9759   -5.0700    0.6580 H   0  0  0  0  0  0  0  0  0  0  0  0
   14.0888   -5.6654   -1.0493 H   0  0  0  0  0  0  0  0  0  0  0  0
   13.5311   -6.7612    0.2697 H   0  0  0  0  0  0  0  0  0  0  0  0
   10.9396   -3.5730   -0.9898 H   0  0  0  0  0  0  0  0  0  0  0  0
   11.6731   -1.1998   -0.0756 H   0  0  0  0  0  0  0  0  0  0  0  0
   11.0495   -2.8429    1.6087 H   0  0  0  0  0  0  0  0  0  0  0  0
   12.7557   -2.9536    2.2068 H   0  0  0  0  0  0  0  0  0  0  0  0
   11.8082   -1.4372    2.4451 H   0  0  0  0  0  0  0  0  0  0  0  0
   14.5033   -1.3135    1.0912 H   0  0  0  0  0  0  0  0  0  0  0  0
   12.1516    0.6975   -1.0894 H   0  0  0  0  0  0  0  0  0  0  0  0
   10.6794    2.1378    0.3104 H   0  0  0  0  0  0  0  0  0  0  0  0
   11.9287    2.1745    1.6179 H   0  0  0  0  0  0  0  0  0  0  0  0
   11.1067    0.6345    1.1886 H   0  0  0  0  0  0  0  0  0  0  0  0
   12.9700    2.6642   -1.9216 H   0  0  0  0  0  0  0  0  0  0  0  0
   12.3873    5.5544    0.5484 H   0  0  0  0  0  0  0  0  0  0  0  0
   14.4069    6.2281   -0.6973 H   0  0  0  0  0  0  0  0  0  0  0  0
   13.7471    5.5064   -2.2202 H   0  0  0  0  0  0  0  0  0  0  0  0
   12.9311    6.9281   -1.4501 H   0  0  0  0  0  0  0  0  0  0  0  0
   11.3943    4.4996   -2.1362 H   0  0  0  0  0  0  0  0  0  0  0  0
   10.5191    4.5173    1.3670 H   0  0  0  0  0  0  0  0  0  0  0  0
    8.7598    7.0186    0.9654 H   0  0  0  0  0  0  0  0  0  0  0  0
   10.5261    6.9975    1.3561 H   0  0  0  0  0  0  0  0  0  0  0  0
    9.3305    6.3556    2.5447 H   0  0  0  0  0  0  0  0  0  0  0  0
    8.3012    4.0551    2.1057 H   0  0  0  0  0  0  0  0  0  0  0  0
  1  2  1  0
  2  3  2  0
  2  4  1  0
  4  5  1  0
  5  6  1  0
  6  7  1  0
  7  8  1  0
  8  9  1  0
  9 10  2  0
 10 11  1  0
 11 12  2  0
 12 13  1  0
 13 14  2  0
 13 15  1  0
 15 16  1  0
 16 17  1  0
 17 18  1  0
 18 19  1  0
 19 20  1  0
 19 21  2  0
 18 22  1  0
 22 23  1  0
 23 24  2  0
 23 25  1  0
 25 26  1  0
 25 27  1  0
 27 28  1  0
 28 29  2  0
 28 30  1  0
 30 31  1  0
 30 32  1  0
 32 33  1  0
 33 34  2  0
 33 35  1  0
 35 36  1  0
 35 37  1  0
 37 38  1  0
 38 39  2  0
 38 40  1  0
 40 41  1  0
 40 42  1  0
 42 43  1  0
 43 44  2  0
 43 45  1  0
 45 46  1  0
 45 47  1  0
 47 48  1  0
 48 49  2  0
 48 50  1  0
 50 51  1  0
 50 52  1  0
 52 53  1  0
 53 54  2  0
 53 55  1  0
 55 56  1  0
 55 57  1  0
 57 58  1  0
 58 59  2  0
 58 60  1  0
 60 61  1  0
 60 62  1  0
 62 63  1  0
 63 64  2  0
 63 65  1  0
 65 66  1  0
 65 67  1  0
 67 68  1  0
 68 69  2  0
 68 70  1  0
 70 71  1  0
 70 72  1  0
 72 73  1  0
 73 74  2  0
 73 75  1  0
 75 76  1  0
 76 77  1  0
 77 78  1  0
 75 79  1  0
 79 80  1  0
 80 81  2  0
 80 82  1  0
 82 83  1  0
 82 84  1  0
 84 85  1  0
 85 86  2  0
 85 87  1  0
 87 88  1  0
 87 89  1  0
 89 90  1  0
 90 91  2  0
 90 92  1  0
 92 93  1  0
 92 94  1  0
 94 95  1  0
 95 96  2  0
 95 97  1  0
 97 98  1  0
 97 99  1  0
 99100  1  0
100101  2  0
100102  1  0
102103  1  0
102104  1  0
104105  1  0
105106  2  0
105107  1  0
107108  1  0
107109  1  0
109110  1  0
110111  2  0
110112  1  0
112113  1  0
112114  1  0
114115  1  0
115116  2  0
115117  1  0
117118  1  0
117119  1  0
119120  1  0
120121  2  0
120  5  1  0
 14  9  1  0
 78 11  1  0
  1122  1  0
  1123  1  0
  1124  1  0
  4125  1  0
  5126  1  1
  6127  1  0
  6128  1  0
  8129  1  0
  8130  1  0
 10131  1  0
 12132  1  0
 14133  1  0
 15134  1  0
 15135  1  0
 17136  1  0
 17137  1  0
 18138  1  1
 20139  1  0
 20140  1  0
 22141  1  0
 25142  1  1
 26143  1  0
 26144  1  0
 26145  1  0
 27146  1  0
 30147  1  6
 31148  1  0
 31149  1  0
 31150  1  0
 32151  1  0
 35152  1  1
 36153  1  0
 36154  1  0
 36155  1  0
 37156  1  0
 40157  1  1
 41158  1  0
 41159  1  0
 41160  1  0
 42161  1  0
 45162  1  1
 46163  1  0
 46164  1  0
 46165  1  0
 47166  1  0
 50167  1  1
 51168  1  0
 51169  1  0
 51170  1  0
 52171  1  0
 55172  1  1
 56173  1  0
 56174  1  0
 56175  1  0
 57176  1  0
 60177  1  1
 61178  1  0
 61179  1  0
 61180  1  0
 62181  1  0
 65182  1  1
 66183  1  0
 66184  1  0
 66185  1  0
 67186  1  0
 70187  1  1
 71188  1  0
 71189  1  0
 71190  1  0
 72191  1  0
 75192  1  6
 76193  1  0
 76194  1  0
 78195  1  0
 78196  1  0
 79197  1  0
 82198  1  1
 83199  1  0
 83200  1  0
 83201  1  0
 84202  1  0
 87203  1  1
 88204  1  0
 88205  1  0
 88206  1  0
 89207  1  0
 92208  1  1
 93209  1  0
 93210  1  0
 93211  1  0
 94212  1  0
 97213  1  1
 98214  1  0
 98215  1  0
 98216  1  0
 99217  1  0
102218  1  6
103219  1  0
103220  1  0
103221  1  0
104222  1  0
107223  1  6
108224  1  0
108225  1  0
108226  1  0
109227  1  0
112228  1  1
113229  1  0
113230  1  0
113231  1  0
114232  1  0
117233  1  1
118234  1  0
118235  1  0
118236  1  0
119237  1  0
M  END
