
     RDKit          3D

227229  0  0  0  0  0  0  0  0999 V2000
   -4.7244   -9.0913   -1.3689 C   0  0  0  0  0  0  0  0  0  0  0  0
   -5.0329   -8.1792   -0.2279 C   0  0  0  0  0  0  0  0  0  0  0  0
   -4.8260   -8.5830    0.9504 O   0  0  0  0  0  0  0  0  0  0  0  0
   -5.5641   -6.8666   -0.4671 N   0  0  0  0  0  0  0  0  0  0  0  0
   -5.8662   -5.9314    0.6204 C   0  0  1  0  0  0  0  0  0  0  0  0
   -5.7214   -4.4774    0.1432 C   0  0  0  0  0  0  0  0  0  0  0  0
   -4.0693   -4.1390   -0.5543 S   0  0  0  0  0  0  0  0  0  0  0  0
   -3.1693   -4.0462    1.0344 C   0  0  0  0  0  0  0  0  0  0  0  0
   -1.9150   -3.2567    0.8128 C   0  0  0  0  0  0  0  0  0  0  0  0
   -0.8461   -3.8175    0.0936 C   0  0  0  0  0  0  0  0  0  0  0  0
    0.2592   -3.0327   -0.2718 C   0  0  0  0  0  0  0  0  0  0  0  0
    0.3133   -1.6886    0.1349 C   0  0  0  0  0  0  0  0  0  0  0  0
   -0.7639   -1.1097    0.8254 C   0  0  0  0  0  0  0  0  0  0  0  0
   -1.8728   -1.8968    1.1643 C   0  0  0  0  0  0  0  0  0  0  0  0
   -0.8082    0.3776    0.9884 C   0  0  0  0  0  0  0  0  0  0  0  0
   -1.2838    1.1108   -0.6188 S   0  0  0  0  0  0  0  0  0  0  0  0
   -0.0027    2.4121   -0.7227 C   0  0  0  0  0  0  0  0  0  0  0  0
   -0.5569    3.7745   -0.2805 C   0  0  1  0  0  0  0  0  0  0  0  0
   -0.9806    3.7415    1.1247 N   0  0  0  0  0  0  0  0  0  0  0  0
   -2.1158    4.4220    1.6992 C   0  0  0  0  0  0  0  0  0  0  0  0
   -2.1488    4.5656    2.9542 O   0  0  0  0  0  0  0  0  0  0  0  0
   -3.2755    5.0026    0.9003 C   0  0  1  0  0  0  0  0  0  0  0  0
   -2.8513    6.2732    0.1561 C   0  0  0  0  0  0  0  0  0  0  0  0
   -3.8517    3.9997   -0.0088 N   0  0  0  0  0  0  0  0  0  0  0  0
   -5.0214    4.1856   -0.8257 C   0  0  0  0  0  0  0  0  0  0  0  0
   -5.1066    3.5423   -1.9056 O   0  0  0  0  0  0  0  0  0  0  0  0
   -6.1942    5.0527   -0.4057 C   0  0  1  0  0  0  0  0  0  0  0  0
   -6.4322    6.1572   -1.4359 C   0  0  0  0  0  0  0  0  0  0  0  0
   -7.3975    4.2174   -0.3035 N   0  0  0  0  0  0  0  0  0  0  0  0
   -8.1105    4.0223    0.9254 C   0  0  0  0  0  0  0  0  0  0  0  0
   -8.0367    2.9051    1.5069 O   0  0  0  0  0  0  0  0  0  0  0  0
   -9.0000    5.1022    1.5066 C   0  0  1  0  0  0  0  0  0  0  0  0
   -8.2566    5.8807    2.5945 C   0  0  0  0  0  0  0  0  0  0  0  0
   -9.4726    6.0141    0.4631 N   0  0  0  0  0  0  0  0  0  0  0  0
  -10.4532    5.6762   -0.5382 C   0  0  0  0  0  0  0  0  0  0  0  0
  -10.6658    6.5038   -1.4628 O   0  0  0  0  0  0  0  0  0  0  0  0
  -11.3263    4.4391   -0.4314 C   0  0  1  0  0  0  0  0  0  0  0  0
  -12.5374    4.7679    0.4472 C   0  0  0  0  0  0  0  0  0  0  0  0
  -11.7865    4.0192   -1.7612 N   0  0  0  0  0  0  0  0  0  0  0  0
  -11.8408    2.6522   -2.2025 C   0  0  0  0  0  0  0  0  0  0  0  0
  -11.5337    2.3910   -3.3979 O   0  0  0  0  0  0  0  0  0  0  0  0
  -12.4362    1.5643   -1.3330 C   0  0  1  0  0  0  0  0  0  0  0  0
  -13.9616    1.6861   -1.3521 C   0  0  0  0  0  0  0  0  0  0  0  0
  -12.0576    0.2417   -1.8452 N   0  0  0  0  0  0  0  0  0  0  0  0
  -11.2052   -0.7126   -1.1853 C   0  0  0  0  0  0  0  0  0  0  0  0
  -10.6235   -1.5738   -1.8982 O   0  0  0  0  0  0  0  0  0  0  0  0
  -11.0061   -0.7433    0.3163 C   0  0  1  0  0  0  0  0  0  0  0  0
  -12.3378   -0.9688    1.0511 C   0  0  0  0  0  0  0  0  0  0  0  0
  -10.0019   -1.7598    0.6748 N   0  0  0  0  0  0  0  0  0  0  0  0
  -10.2987   -3.0330    1.2776 C   0  0  0  0  0  0  0  0  0  0  0  0
  -10.5260   -3.0834    2.5163 O   0  0  0  0  0  0  0  0  0  0  0  0
  -10.3605   -4.3059    0.4622 C   0  0  1  0  0  0  0  0  0  0  0  0
  -11.7358   -4.4542   -0.1943 C   0  0  0  0  0  0  0  0  0  0  0  0
   -9.3060   -4.3446   -0.5614 N   0  0  0  0  0  0  0  0  0  0  0  0
   -8.8394   -5.5529   -1.1881 C   0  0  0  0  0  0  0  0  0  0  0  0
   -8.2017   -5.4562   -2.2719 O   0  0  0  0  0  0  0  0  0  0  0  0
   -9.0362   -6.9197   -0.5503 C   0  0  1  0  0  0  0  0  0  0  0  0
   -8.8715   -8.0467   -1.5723 C   0  0  0  0  0  0  0  0  0  0  0  0
   -8.1200   -7.1565    0.5781 N   0  0  0  0  0  0  0  0  0  0  0  0
   -7.2586   -6.1665    1.1517 C   0  0  0  0  0  0  0  0  0  0  0  0
   -7.6568   -5.5197    2.1598 O   0  0  0  0  0  0  0  0  0  0  0  0
    0.4597    4.8685   -0.5712 C   0  0  0  0  0  0  0  0  0  0  0  0
    0.6718    5.1453   -1.7856 O   0  0  0  0  0  0  0  0  0  0  0  0
    1.1578    5.6412    0.4253 N   0  0  0  0  0  0  0  0  0  0  0  0
    1.7522    5.1328    1.6706 C   0  0  2  0  0  0  0  0  0  0  0  0
    2.5116    6.2478    2.4013 C   0  0  0  0  0  0  0  0  0  0  0  0
    2.6542    3.9418    1.4371 C   0  0  0  0  0  0  0  0  0  0  0  0
    2.2951    2.8209    1.8918 O   0  0  0  0  0  0  0  0  0  0  0  0
    3.9601    4.0492    0.8390 N   0  0  0  0  0  0  0  0  0  0  0  0
    4.2685    4.8428   -0.3504 C   0  0  2  0  0  0  0  0  0  0  0  0
    4.1227    3.9646   -1.6024 C   0  0  0  0  0  0  0  0  0  0  0  0
    5.6452    5.4613   -0.1946 C   0  0  0  0  0  0  0  0  0  0  0  0
    5.8063    6.3131    0.7203 O   0  0  0  0  0  0  0  0  0  0  0  0
    6.7653    5.1101   -1.0331 N   0  0  0  0  0  0  0  0  0  0  0  0
    7.9556    5.9696   -1.1237 C   0  0  2  0  0  0  0  0  0  0  0  0
    7.5791    7.2884   -1.8073 C   0  0  0  0  0  0  0  0  0  0  0  0
    9.0699    5.3130   -1.9175 C   0  0  0  0  0  0  0  0  0  0  0  0
    8.7680    4.6691   -2.9560 O   0  0  0  0  0  0  0  0  0  0  0  0
   10.4664    5.5022   -1.6156 N   0  0  0  0  0  0  0  0  0  0  0  0
   11.0381    6.0897   -0.3886 C   0  0  2  0  0  0  0  0  0  0  0  0
   10.7701    7.6047   -0.3188 C   0  0  0  0  0  0  0  0  0  0  0  0
   12.5348    5.8266   -0.3498 C   0  0  0  0  0  0  0  0  0  0  0  0
   13.3421    6.7571   -0.6327 O   0  0  0  0  0  0  0  0  0  0  0  0
   13.0774    4.5193   -0.0977 N   0  0  0  0  0  0  0  0  0  0  0  0
   12.3667    3.4361    0.5899 C   0  0  2  0  0  0  0  0  0  0  0  0
   12.2365    3.7502    2.0872 C   0  0  0  0  0  0  0  0  0  0  0  0
   13.1176    2.1380    0.4091 C   0  0  0  0  0  0  0  0  0  0  0  0
   14.3343    2.0630    0.7352 O   0  0  0  0  0  0  0  0  0  0  0  0
   12.4812    0.9957   -0.1745 N   0  0  0  0  0  0  0  0  0  0  0  0
   11.4239    0.2526    0.5250 C   0  0  2  0  0  0  0  0  0  0  0  0
   11.9309   -0.2392    1.8821 C   0  0  0  0  0  0  0  0  0  0  0  0
   10.9637   -0.9380   -0.2813 C   0  0  0  0  0  0  0  0  0  0  0  0
    9.7332   -1.1841   -0.3861 O   0  0  0  0  0  0  0  0  0  0  0  0
   11.9110   -1.8401   -0.8684 N   0  0  0  0  0  0  0  0  0  0  0  0
   12.0534   -3.2235   -0.4113 C   0  0  2  0  0  0  0  0  0  0  0  0
   13.5425   -3.5220   -0.1782 C   0  0  0  0  0  0  0  0  0  0  0  0
   11.4951   -4.1641   -1.4495 C   0  0  0  0  0  0  0  0  0  0  0  0
   11.8144   -3.9883   -2.6556 O   0  0  0  0  0  0  0  0  0  0  0  0
   10.6432   -5.2825   -1.1287 N   0  0  0  0  0  0  0  0  0  0  0  0
   10.2261   -5.6839    0.2248 C   0  0  2  0  0  0  0  0  0  0  0  0
   11.4100   -6.2593    1.0166 C   0  0  0  0  0  0  0  0  0  0  0  0
    9.1470   -6.7302    0.1481 C   0  0  0  0  0  0  0  0  0  0  0  0
    9.3193   -7.7785   -0.5275 O   0  0  0  0  0  0  0  0  0  0  0  0
    7.9498   -6.5659    0.9100 N   0  0  0  0  0  0  0  0  0  0  0  0
    6.7101   -6.0768    0.2976 C   0  0  2  0  0  0  0  0  0  0  0  0
    6.9650   -4.8878   -0.6335 C   0  0  0  0  0  0  0  0  0  0  0  0
    5.7492   -5.6569    1.3914 C   0  0  0  0  0  0  0  0  0  0  0  0
    6.1776   -4.9243    2.3229 O   0  0  0  0  0  0  0  0  0  0  0  0
    4.3767   -6.0804    1.4242 N   0  0  0  0  0  0  0  0  0  0  0  0
    3.6164   -6.5521    0.2588 C   0  0  1  0  0  0  0  0  0  0  0  0
    3.2442   -7.9961    0.4538 C   0  0  0  0  0  0  0  0  0  0  0  0
    3.6427   -8.9877   -0.4943 N   0  0  0  0  0  0  0  0  0  0  0  0
    2.5721   -8.3410    1.4646 O   0  0  0  0  0  0  0  0  0  0  0  0
    2.3598   -5.6904    0.0636 C   0  0  0  0  0  0  0  0  0  0  0  0
    2.8372   -3.9879   -0.4003 S   0  0  0  0  0  0  0  0  0  0  0  0
    1.2792   -3.5544   -1.2403 C   0  0  0  0  0  0  0  0  0  0  0  0
   -5.2804  -10.0524   -1.2537 H   0  0  0  0  0  0  0  0  0  0  0  0
   -5.0169   -8.6274   -2.3363 H   0  0  0  0  0  0  0  0  0  0  0  0
   -3.6333   -9.3087   -1.3944 H   0  0  0  0  0  0  0  0  0  0  0  0
   -5.8025   -6.6004   -1.4479 H   0  0  0  0  0  0  0  0  0  0  0  0
   -5.1485   -6.0878    1.4551 H   0  0  0  0  0  0  0  0  0  0  0  0
   -5.9341   -3.7664    0.9672 H   0  0  0  0  0  0  0  0  0  0  0  0
   -6.4602   -4.2646   -0.6545 H   0  0  0  0  0  0  0  0  0  0  0  0
   -3.7927   -3.5705    1.8161 H   0  0  0  0  0  0  0  0  0  0  0  0
   -2.9041   -5.0691    1.3742 H   0  0  0  0  0  0  0  0  0  0  0  0
   -0.9068   -4.8462   -0.2370 H   0  0  0  0  0  0  0  0  0  0  0  0
    1.1494   -1.0667   -0.1748 H   0  0  0  0  0  0  0  0  0  0  0  0
   -2.7334   -1.4349    1.6369 H   0  0  0  0  0  0  0  0  0  0  0  0
    0.1871    0.7284    1.3437 H   0  0  0  0  0  0  0  0  0  0  0  0
   -1.5599    0.6728    1.7444 H   0  0  0  0  0  0  0  0  0  0  0  0
    0.2876    2.4727   -1.7981 H   0  0  0  0  0  0  0  0  0  0  0  0
    0.9177    2.1420   -0.1697 H   0  0  0  0  0  0  0  0  0  0  0  0
   -1.4321    3.9785   -0.9285 H   0  0  0  0  0  0  0  0  0  0  0  0
   -0.3969    3.1853    1.7876 H   0  0  0  0  0  0  0  0  0  0  0  0
   -4.0588    5.2866    1.6362 H   0  0  0  0  0  0  0  0  0  0  0  0
   -2.2042    6.9012    0.8020 H   0  0  0  0  0  0  0  0  0  0  0  0
   -2.3077    6.0410   -0.7811 H   0  0  0  0  0  0  0  0  0  0  0  0
   -3.7434    6.8777   -0.1071 H   0  0  0  0  0  0  0  0  0  0  0  0
   -3.3713    3.0769   -0.1056 H   0  0  0  0  0  0  0  0  0  0  0  0
   -5.9861    5.5270    0.5704 H   0  0  0  0  0  0  0  0  0  0  0  0
   -6.7627    5.7219   -2.4009 H   0  0  0  0  0  0  0  0  0  0  0  0
   -5.5075    6.7389   -1.6043 H   0  0  0  0  0  0  0  0  0  0  0  0
   -7.2154    6.8498   -1.0701 H   0  0  0  0  0  0  0  0  0  0  0  0
   -7.6943    3.6519   -1.1268 H   0  0  0  0  0  0  0  0  0  0  0  0
   -9.8781    4.6171    1.9956 H   0  0  0  0  0  0  0  0  0  0  0  0
   -8.9574    6.6084    3.0681 H   0  0  0  0  0  0  0  0  0  0  0  0
   -7.4053    6.4436    2.1672 H   0  0  0  0  0  0  0  0  0  0  0  0
   -7.8912    5.1919    3.3832 H   0  0  0  0  0  0  0  0  0  0  0  0
   -9.0591    6.9754    0.4065 H   0  0  0  0  0  0  0  0  0  0  0  0
  -10.7496    3.6172    0.0353 H   0  0  0  0  0  0  0  0  0  0  0  0
  -13.2045    5.4945   -0.0689 H   0  0  0  0  0  0  0  0  0  0  0  0
  -13.1117    3.8443    0.6686 H   0  0  0  0  0  0  0  0  0  0  0  0
  -12.2132    5.2053    1.4128 H   0  0  0  0  0  0  0  0  0  0  0  0
  -12.0538    4.7463   -2.4631 H   0  0  0  0  0  0  0  0  0  0  0  0
  -12.0812    1.6999   -0.2923 H   0  0  0  0  0  0  0  0  0  0  0  0
  -14.2840    2.7040   -1.0382 H   0  0  0  0  0  0  0  0  0  0  0  0
  -14.3565    1.4942   -2.3728 H   0  0  0  0  0  0  0  0  0  0  0  0
  -14.4144    0.9453   -0.6582 H   0  0  0  0  0  0  0  0  0  0  0  0
  -12.3660   -0.0033   -2.8147 H   0  0  0  0  0  0  0  0  0  0  0  0
  -10.6067    0.2454    0.6364 H   0  0  0  0  0  0  0  0  0  0  0  0
  -12.8468   -1.8805    0.6769 H   0  0  0  0  0  0  0  0  0  0  0  0
  -13.0216   -0.1083    0.9140 H   0  0  0  0  0  0  0  0  0  0  0  0
  -12.1662   -1.0686    2.1414 H   0  0  0  0  0  0  0  0  0  0  0  0
   -8.9932   -1.4724    0.6518 H   0  0  0  0  0  0  0  0  0  0  0  0
  -10.2199   -5.1479    1.1713 H   0  0  0  0  0  0  0  0  0  0  0  0
  -11.9173   -3.6361   -0.9243 H   0  0  0  0  0  0  0  0  0  0  0  0
  -12.5392   -4.4365    0.5717 H   0  0  0  0  0  0  0  0  0  0  0  0
  -11.7990   -5.4218   -0.7382 H   0  0  0  0  0  0  0  0  0  0  0  0
   -8.9786   -3.4458   -0.9827 H   0  0  0  0  0  0  0  0  0  0  0  0
  -10.0763   -6.9907   -0.1740 H   0  0  0  0  0  0  0  0  0  0  0  0
   -9.0992   -9.0237   -1.0981 H   0  0  0  0  0  0  0  0  0  0  0  0
   -7.8342   -8.0788   -1.9652 H   0  0  0  0  0  0  0  0  0  0  0  0
   -9.5778   -7.9039   -2.4212 H   0  0  0  0  0  0  0  0  0  0  0  0
   -8.1874   -8.0721    1.0776 H   0  0  0  0  0  0  0  0  0  0  0  0
    1.3916    6.6243    0.1428 H   0  0  0  0  0  0  0  0  0  0  0  0
    0.9333    4.8481    2.3575 H   0  0  0  0  0  0  0  0  0  0  0  0
    3.3183    6.6674    1.7670 H   0  0  0  0  0  0  0  0  0  0  0  0
    1.8110    7.0737    2.6674 H   0  0  0  0  0  0  0  0  0  0  0  0
    2.9583    5.8552    3.3425 H   0  0  0  0  0  0  0  0  0  0  0  0
    4.6529    3.3021    1.0878 H   0  0  0  0  0  0  0  0  0  0  0  0
    3.5546    5.6857   -0.4561 H   0  0  0  0  0  0  0  0  0  0  0  0
    4.4176    4.5327   -2.5151 H   0  0  0  0  0  0  0  0  0  0  0  0
    4.7447    3.0500   -1.5083 H   0  0  0  0  0  0  0  0  0  0  0  0
    3.0653    3.6464   -1.7050 H   0  0  0  0  0  0  0  0  0  0  0  0
    6.7437    4.2117   -1.5662 H   0  0  0  0  0  0  0  0  0  0  0  0
    8.3070    6.1625   -0.0868 H   0  0  0  0  0  0  0  0  0  0  0  0
    6.8482    7.8553   -1.1953 H   0  0  0  0  0  0  0  0  0  0  0  0
    8.4731    7.9285   -1.9578 H   0  0  0  0  0  0  0  0  0  0  0  0
    7.1346    7.0869   -2.8061 H   0  0  0  0  0  0  0  0  0  0  0  0
   11.1371    5.1211   -2.3217 H   0  0  0  0  0  0  0  0  0  0  0  0
   10.5668    5.6146    0.4929 H   0  0  0  0  0  0  0  0  0  0  0  0
   11.4001    8.0731    0.4701 H   0  0  0  0  0  0  0  0  0  0  0  0
    9.7258    7.8280   -0.0194 H   0  0  0  0  0  0  0  0  0  0  0  0
   10.9861    8.0867   -1.2964 H   0  0  0  0  0  0  0  0  0  0  0  0
   14.0701    4.3628   -0.3963 H   0  0  0  0  0  0  0  0  0  0  0  0
   11.3465    3.3239    0.1532 H   0  0  0  0  0  0  0  0  0  0  0  0
   11.7222    4.7194    2.2451 H   0  0  0  0  0  0  0  0  0  0  0  0
   11.6431    2.9585    2.5889 H   0  0  0  0  0  0  0  0  0  0  0  0
   13.2381    3.8132    2.5636 H   0  0  0  0  0  0  0  0  0  0  0  0
   12.9402    0.5958   -1.0258 H   0  0  0  0  0  0  0  0  0  0  0  0
   10.5611    0.9301    0.6904 H   0  0  0  0  0  0  0  0  0  0  0  0
   11.1501   -0.8478    2.3864 H   0  0  0  0  0  0  0  0  0  0  0  0
   12.1854    0.6106    2.5446 H   0  0  0  0  0  0  0  0  0  0  0  0
   12.8436   -0.8714    1.7518 H   0  0  0  0  0  0  0  0  0  0  0  0
   12.5194   -1.5024   -1.6521 H   0  0  0  0  0  0  0  0  0  0  0  0
   11.5232   -3.3415    0.5569 H   0  0  0  0  0  0  0  0  0  0  0  0
   14.1411   -3.2604   -1.0763 H   0  0  0  0  0  0  0  0  0  0  0  0
   13.9162   -2.9281    0.6834 H   0  0  0  0  0  0  0  0  0  0  0  0
   13.7040   -4.5958    0.0401 H   0  0  0  0  0  0  0  0  0  0  0  0
   10.2730   -5.8249   -1.9424 H   0  0  0  0  0  0  0  0  0  0  0  0
    9.8115   -4.8035    0.7662 H   0  0  0  0  0  0  0  0  0  0  0  0
   12.0061   -6.9442    0.3756 H   0  0  0  0  0  0  0  0  0  0  0  0
   12.0573   -5.4480    1.3987 H   0  0  0  0  0  0  0  0  0  0  0  0
   11.0498   -6.8212    1.9026 H   0  0  0  0  0  0  0  0  0  0  0  0
    7.8470   -7.2281    1.7162 H   0  0  0  0  0  0  0  0  0  0  0  0
    6.2869   -6.9092   -0.2975 H   0  0  0  0  0  0  0  0  0  0  0  0
    7.5809   -5.1997   -1.5010 H   0  0  0  0  0  0  0  0  0  0  0  0
    7.4863   -4.0697   -0.0907 H   0  0  0  0  0  0  0  0  0  0  0  0
    6.0032   -4.4939   -1.0295 H   0  0  0  0  0  0  0  0  0  0  0  0
    3.8694   -5.9930    2.3348 H   0  0  0  0  0  0  0  0  0  0  0  0
    4.2067   -6.4502   -0.6719 H   0  0  0  0  0  0  0  0  0  0  0  0
    4.1920   -8.7269   -1.3431 H   0  0  0  0  0  0  0  0  0  0  0  0
    3.3708   -9.9824   -0.3521 H   0  0  0  0  0  0  0  0  0  0  0  0
    1.7534   -5.6602    0.9926 H   0  0  0  0  0  0  0  0  0  0  0  0
    1.7454   -6.1549   -0.7355 H   0  0  0  0  0  0  0  0  0  0  0  0
    0.8741   -4.4118   -1.8199 H   0  0  0  0  0  0  0  0  0  0  0  0
    1.4981   -2.7650   -1.9914 H   0  0  0  0  0  0  0  0  0  0  0  0
  1  2  1  0
  2  3  2  0
  2  4  1  0
  4  5  1  0
  5  6  1  0
  6  7  1  0
  7  8  1  0
  8  9  1  0
  9 10  2  0
 10 11  1  0
 11 12  2  0
 12 13  1  0
 13 14  2  0
 13 15  1  0
 15 16  1  0
 16 17  1  0
 17 18  1  0
 18 19  1  0
 19 20  1  0
 20 21  2  0
 20 22  1  0
 22 23  1  0
 22 24  1  0
 24 25  1  0
 25 26  2  0
 25 27  1  0
 27 28  1  0
 27 29  1  0
 29 30  1  0
 30 31  2  0
 30 32  1  0
 32 33  1  0
 32 34  1  0
 34 35  1  0
 35 36  2  0
 35 37  1  0
 37 38  1  0
 37 39  1  0
 39 40  1  0
 40 41  2  0
 40 42  1  0
 42 43  1  0
 42 44  1  0
 44 45  1  0
 45 46  2  0
 45 47  1  0
 47 48  1  0
 47 49  1  0
 49 50  1  0
 50 51  2  0
 50 52  1  0
 52 53  1  0
 52 54  1  0
 54 55  1  0
 55 56  2  0
 55 57  1  0
 57 58  1  0
 57 59  1  0
 59 60  1  0
 60 61  2  0
 18 62  1  0
 62 63  2  0
 62 64  1  0
 64 65  1  0
 65 66  1  0
 65 67  1  0
 67 68  2  0
 67 69  1  0
 69 70  1  0
 70 71  1  0
 70 72  1  0
 72 73  2  0
 72 74  1  0
 74 75  1  0
 75 76  1  0
 75 77  1  0
 77 78  2  0
 77 79  1  0
 79 80  1  0
 80 81  1  0
 80 82  1  0
 82 83  2  0
 82 84  1  0
 84 85  1  0
 85 86  1  0
 85 87  1  0
 87 88  2  0
 87 89  1  0
 89 90  1  0
 90 91  1  0
 90 92  1  0
 92 93  2  0
 92 94  1  0
 94 95  1  0
 95 96  1  0
 95 97  1  0
 97 98  2  0
 97 99  1  0
 99100  1  0
100101  1  0
100102  1  0
102103  2  0
102104  1  0
104105  1  0
105106  1  0
105107  1  0
107108  2  0
107109  1  0
109110  1  0
110111  1  0
111112  1  0
111113  2  0
110114  1  0
114115  1  0
115116  1  0
 60  5  1  0
 14  9  1  0
116 11  1  0
  1117  1  0
  1118  1  0
  1119  1  0
  4120  1  0
  5121  1  1
  6122  1  0
  6123  1  0
  8124  1  0
  8125  1  0
 10126  1  0
 12127  1  0
 14128  1  0
 15129  1  0
 15130  1  0
 17131  1  0
 17132  1  0
 18133  1  6
 19134  1  0
 22135  1  1
 23136  1  0
 23137  1  0
 23138  1  0
 24139  1  0
 27140  1  1
 28141  1  0
 28142  1  0
 28143  1  0
 29144  1  0
 32145  1  1
 33146  1  0
 33147  1  0
 33148  1  0
 34149  1  0
 37150  1  1
 38151  1  0
 38152  1  0
 38153  1  0
 39154  1  0
 42155  1  1
 43156  1  0
 43157  1  0
 43158  1  0
 44159  1  0
 47160  1  1
 48161  1  0
 48162  1  0
 48163  1  0
 49164  1  0
 52165  1  1
 53166  1  0
 53167  1  0
 53168  1  0
 54169  1  0
 57170  1  1
 58171  1  0
 58172  1  0
 58173  1  0
 59174  1  0
 64175  1  0
 65176  1  1
 66177  1  0
 66178  1  0
 66179  1  0
 69180  1  0
 70181  1  6
 71182  1  0
 71183  1  0
 71184  1  0
 74185  1  0
 75186  1  1
 76187  1  0
 76188  1  0
 76189  1  0
 79190  1  0
 80191  1  1
 81192  1  0
 81193  1  0
 81194  1  0
 84195  1  0
 85196  1  6
 86197  1  0
 86198  1  0
 86199  1  0
 89200  1  0
 90201  1  1
 91202  1  0
 91203  1  0
 91204  1  0
 94205  1  0
 95206  1  1
 96207  1  0
 96208  1  0
 96209  1  0
 99210  1  0
100211  1  1
101212  1  0
101213  1  0
101214  1  0
104215  1  0
105216  1  6
106217  1  0
106218  1  0
106219  1  0
109220  1  0
110221  1  6
112222  1  0
112223  1  0
114224  1  0
114225  1  0
116226  1  0
116227  1  0
M  END
