
     RDKit          3D

217219  0  0  0  0  0  0  0  0999 V2000
    2.3664   -7.6345   -0.9885 C   0  0  0  0  0  0  0  0  0  0  0  0
    3.5860   -6.7794   -1.1516 C   0  0  0  0  0  0  0  0  0  0  0  0
    4.6809   -7.3066   -1.4795 O   0  0  0  0  0  0  0  0  0  0  0  0
    3.4786   -5.3543   -1.0087 N   0  0  0  0  0  0  0  0  0  0  0  0
    4.5335   -4.5207   -0.4080 C   0  0  1  0  0  0  0  0  0  0  0  0
    4.7781   -4.9227    1.0643 C   0  0  0  0  0  0  0  0  0  0  0  0
    3.2299   -5.1614    2.0154 S   0  0  0  0  0  0  0  0  0  0  0  0
    2.7030   -3.4130    2.1132 C   0  0  0  0  0  0  0  0  0  0  0  0
    1.6636   -3.0946    1.0743 C   0  0  0  0  0  0  0  0  0  0  0  0
    1.8315   -2.0156    0.1929 C   0  0  0  0  0  0  0  0  0  0  0  0
    0.8152   -1.6559   -0.7084 C   0  0  0  0  0  0  0  0  0  0  0  0
   -0.3751   -2.3935   -0.7274 C   0  0  0  0  0  0  0  0  0  0  0  0
   -0.5681   -3.4845    0.1431 C   0  0  0  0  0  0  0  0  0  0  0  0
    0.4551   -3.8133    1.0481 C   0  0  0  0  0  0  0  0  0  0  0  0
   -1.8975   -4.1948    0.2748 C   0  0  0  0  0  0  0  0  0  0  0  0
   -2.9480   -4.0940   -1.2234 S   0  0  0  0  0  0  0  0  0  0  0  0
   -3.9363   -5.6276   -0.9734 C   0  0  0  0  0  0  0  0  0  0  0  0
   -4.9654   -5.6074    0.1816 C   0  0  1  0  0  0  0  0  0  0  0  0
   -4.3092   -5.7150    1.5387 C   0  0  0  0  0  0  0  0  0  0  0  0
   -3.6201   -6.9121    1.9104 N   0  0  0  0  0  0  0  0  0  0  0  0
   -4.3452   -4.7544    2.3449 O   0  0  0  0  0  0  0  0  0  0  0  0
   -5.8489   -4.4346    0.1101 N   0  0  0  0  0  0  0  0  0  0  0  0
   -7.1307   -4.3720    0.7623 C   0  0  0  0  0  0  0  0  0  0  0  0
   -7.6326   -3.2345    0.9880 O   0  0  0  0  0  0  0  0  0  0  0  0
   -7.8642   -5.6235    1.1978 C   0  0  1  0  0  0  0  0  0  0  0  0
   -9.0753   -5.3525    2.1016 C   0  0  0  0  0  0  0  0  0  0  0  0
   -8.2145   -6.4728    0.0536 N   0  0  0  0  0  0  0  0  0  0  0  0
   -9.1360   -6.1939   -1.0206 C   0  0  0  0  0  0  0  0  0  0  0  0
   -9.3353   -7.0899   -1.8911 O   0  0  0  0  0  0  0  0  0  0  0  0
   -9.9395   -4.9157   -1.1213 C   0  0  1  0  0  0  0  0  0  0  0  0
  -10.0359   -4.4401   -2.5814 C   0  0  0  0  0  0  0  0  0  0  0  0
  -11.2789   -5.1394   -0.5725 N   0  0  0  0  0  0  0  0  0  0  0  0
  -12.0454   -4.1451    0.1306 C   0  0  0  0  0  0  0  0  0  0  0  0
  -12.8821   -4.5262    0.9985 O   0  0  0  0  0  0  0  0  0  0  0  0
  -11.9438   -2.6733   -0.2059 C   0  0  1  0  0  0  0  0  0  0  0  0
  -12.8334   -2.3469   -1.4039 C   0  0  0  0  0  0  0  0  0  0  0  0
  -12.3585   -1.8543    0.9379 N   0  0  0  0  0  0  0  0  0  0  0  0
  -11.6389   -0.6602    1.2566 C   0  0  0  0  0  0  0  0  0  0  0  0
  -10.5935   -0.7395    1.9654 O   0  0  0  0  0  0  0  0  0  0  0  0
  -12.0634    0.6722    0.6831 C   0  0  1  0  0  0  0  0  0  0  0  0
  -13.5923    0.8151    0.6325 C   0  0  0  0  0  0  0  0  0  0  0  0
  -11.5093    1.7708    1.4907 N   0  0  0  0  0  0  0  0  0  0  0  0
  -11.0319    3.0140    0.9537 C   0  0  0  0  0  0  0  0  0  0  0  0
  -11.2658    4.0714    1.5993 O   0  0  0  0  0  0  0  0  0  0  0  0
  -10.2173    3.0844   -0.3242 C   0  0  1  0  0  0  0  0  0  0  0  0
  -10.9480    3.8579   -1.4323 C   0  0  0  0  0  0  0  0  0  0  0  0
   -8.8597    3.6042   -0.0916 N   0  0  0  0  0  0  0  0  0  0  0  0
   -8.4844    4.7257    0.7285 C   0  0  0  0  0  0  0  0  0  0  0  0
   -7.5053    4.5936    1.5134 O   0  0  0  0  0  0  0  0  0  0  0  0
   -9.1256    6.0939    0.5714 C   0  0  1  0  0  0  0  0  0  0  0  0
   -9.1611    6.8380    1.9108 C   0  0  0  0  0  0  0  0  0  0  0  0
   -8.4273    6.9173   -0.4262 N   0  0  0  0  0  0  0  0  0  0  0  0
   -7.5222    6.4023   -1.4094 C   0  0  0  0  0  0  0  0  0  0  0  0
   -7.9860    5.9026   -2.4728 O   0  0  0  0  0  0  0  0  0  0  0  0
   -6.0261    6.4611   -1.2124 C   0  0  1  0  0  0  0  0  0  0  0  0
   -5.6397    7.4094   -0.0737 C   0  0  0  0  0  0  0  0  0  0  0  0
   -5.4928    5.1173   -0.9644 N   0  0  0  0  0  0  0  0  0  0  0  0
   -4.1013    4.8273   -1.0819 C   0  0  0  0  0  0  0  0  0  0  0  0
   -3.6444    4.4521   -2.1981 O   0  0  0  0  0  0  0  0  0  0  0  0
   -3.2261    4.8102    0.1503 C   0  0  1  0  0  0  0  0  0  0  0  0
   -3.4993    3.5469    0.9758 C   0  0  0  0  0  0  0  0  0  0  0  0
   -1.8049    4.9621   -0.1968 N   0  0  0  0  0  0  0  0  0  0  0  0
   -0.9860    3.8950   -0.6966 C   0  0  0  0  0  0  0  0  0  0  0  0
   -0.8258    3.7791   -1.9404 O   0  0  0  0  0  0  0  0  0  0  0  0
   -0.2780    2.9571    0.2641 C   0  0  1  0  0  0  0  0  0  0  0  0
    0.6508    1.9349   -0.4162 C   0  0  0  0  0  0  0  0  0  0  0  0
   -0.3284    0.7395   -1.3923 S   0  0  0  0  0  0  0  0  0  0  0  0
    0.9973   -0.4905   -1.6450 C   0  0  0  0  0  0  0  0  0  0  0  0
    0.4221    3.6993    1.3242 N   0  0  0  0  0  0  0  0  0  0  0  0
    1.1739    4.9107    1.1185 C   0  0  0  0  0  0  0  0  0  0  0  0
    0.8571    5.9432    1.7780 O   0  0  0  0  0  0  0  0  0  0  0  0
    2.3720    4.9628    0.1954 C   0  0  1  0  0  0  0  0  0  0  0  0
    2.0456    5.7676   -1.0545 C   0  0  0  0  0  0  0  0  0  0  0  0
    3.5067    5.5713    0.8931 N   0  0  0  0  0  0  0  0  0  0  0  0
    4.7002    4.8411    1.1929 C   0  0  0  0  0  0  0  0  0  0  0  0
    4.8973    4.4404    2.3698 O   0  0  0  0  0  0  0  0  0  0  0  0
    5.7509    4.5838    0.1437 C   0  0  1  0  0  0  0  0  0  0  0  0
    5.3223    3.4950   -0.8488 C   0  0  0  0  0  0  0  0  0  0  0  0
    6.0557    5.8219   -0.5791 N   0  0  0  0  0  0  0  0  0  0  0  0
    7.3840    6.1286   -1.0238 C   0  0  0  0  0  0  0  0  0  0  0  0
    7.6558    6.0110   -2.2526 O   0  0  0  0  0  0  0  0  0  0  0  0
    8.4044    6.7240   -0.0923 C   0  0  1  0  0  0  0  0  0  0  0  0
    8.1476    8.2205    0.0943 C   0  0  0  0  0  0  0  0  0  0  0  0
    8.3995    6.0458    1.2108 N   0  0  0  0  0  0  0  0  0  0  0  0
    9.3625    5.0644    1.6337 C   0  0  0  0  0  0  0  0  0  0  0  0
    9.3895    4.7275    2.8487 O   0  0  0  0  0  0  0  0  0  0  0  0
   10.3586    4.4519    0.6812 C   0  0  1  0  0  0  0  0  0  0  0  0
   11.6705    5.2410    0.6909 C   0  0  0  0  0  0  0  0  0  0  0  0
   10.6200    3.0557    1.0502 N   0  0  0  0  0  0  0  0  0  0  0  0
   10.1302    1.9720    0.2531 C   0  0  0  0  0  0  0  0  0  0  0  0
    8.8828    1.8535    0.0659 O   0  0  0  0  0  0  0  0  0  0  0  0
   11.0833    1.0548   -0.4667 C   0  0  1  0  0  0  0  0  0  0  0  0
   11.4397    1.6733   -1.8203 C   0  0  0  0  0  0  0  0  0  0  0  0
   12.3024    0.8457    0.3250 N   0  0  0  0  0  0  0  0  0  0  0  0
   12.6914   -0.3927    0.9509 C   0  0  0  0  0  0  0  0  0  0  0  0
   13.4174   -0.3243    1.9806 O   0  0  0  0  0  0  0  0  0  0  0  0
   12.3099   -1.7478    0.3787 C   0  0  1  0  0  0  0  0  0  0  0  0
   12.8720   -1.8819   -1.0415 C   0  0  0  0  0  0  0  0  0  0  0  0
   12.8199   -2.8492    1.2121 N   0  0  0  0  0  0  0  0  0  0  0  0
   12.3964   -4.2198    1.1188 C   0  0  0  0  0  0  0  0  0  0  0  0
   13.0032   -5.0810    1.8109 O   0  0  0  0  0  0  0  0  0  0  0  0
   11.2348   -4.6798    0.2555 C   0  0  1  0  0  0  0  0  0  0  0  0
   11.7210   -5.7744   -0.7053 C   0  0  0  0  0  0  0  0  0  0  0  0
   10.1547   -5.1959    1.1047 N   0  0  0  0  0  0  0  0  0  0  0  0
    8.8001   -5.4534    0.6812 C   0  0  0  0  0  0  0  0  0  0  0  0
    8.0000   -5.9725    1.5102 O   0  0  0  0  0  0  0  0  0  0  0  0
    8.2807   -5.1439   -0.7101 C   0  0  1  0  0  0  0  0  0  0  0  0
    8.0155   -6.4708   -1.4416 C   0  0  0  0  0  0  0  0  0  0  0  0
    7.0789   -4.2992   -0.5914 N   0  0  0  0  0  0  0  0  0  0  0  0
    5.8140   -4.5644   -1.2178 C   0  0  0  0  0  0  0  0  0  0  0  0
    5.7554   -4.7621   -2.4652 O   0  0  0  0  0  0  0  0  0  0  0  0
    1.9302   -7.4641    0.0174 H   0  0  0  0  0  0  0  0  0  0  0  0
    2.6254   -8.7061   -1.1006 H   0  0  0  0  0  0  0  0  0  0  0  0
    1.6170   -7.3563   -1.7546 H   0  0  0  0  0  0  0  0  0  0  0  0
    2.5263   -4.9302   -1.0997 H   0  0  0  0  0  0  0  0  0  0  0  0
    4.1955   -3.4654   -0.4167 H   0  0  0  0  0  0  0  0  0  0  0  0
    5.3262   -5.8875    1.0856 H   0  0  0  0  0  0  0  0  0  0  0  0
    5.4052   -4.1663    1.5772 H   0  0  0  0  0  0  0  0  0  0  0  0
    3.5717   -2.7309    2.0473 H   0  0  0  0  0  0  0  0  0  0  0  0
    2.2417   -3.2570    3.1131 H   0  0  0  0  0  0  0  0  0  0  0  0
    2.7443   -1.4365    0.2293 H   0  0  0  0  0  0  0  0  0  0  0  0
   -1.1766   -2.0845   -1.3905 H   0  0  0  0  0  0  0  0  0  0  0  0
    0.2857   -4.6028    1.7736 H   0  0  0  0  0  0  0  0  0  0  0  0
   -2.4467   -3.6996    1.1100 H   0  0  0  0  0  0  0  0  0  0  0  0
   -1.7208   -5.2651    0.5369 H   0  0  0  0  0  0  0  0  0  0  0  0
   -4.4960   -5.7813   -1.9200 H   0  0  0  0  0  0  0  0  0  0  0  0
   -3.2523   -6.4966   -0.8675 H   0  0  0  0  0  0  0  0  0  0  0  0
   -5.5711   -6.5197    0.0485 H   0  0  0  0  0  0  0  0  0  0  0  0
   -3.6457   -7.7528    1.2943 H   0  0  0  0  0  0  0  0  0  0  0  0
   -3.0733   -6.9500    2.7909 H   0  0  0  0  0  0  0  0  0  0  0  0
   -5.4546   -3.5245   -0.2275 H   0  0  0  0  0  0  0  0  0  0  0  0
   -7.1607   -6.1991    1.8394 H   0  0  0  0  0  0  0  0  0  0  0  0
   -8.7309   -4.9252    3.0712 H   0  0  0  0  0  0  0  0  0  0  0  0
   -9.6222   -6.2938    2.3101 H   0  0  0  0  0  0  0  0  0  0  0  0
   -9.7752   -4.6253    1.6489 H   0  0  0  0  0  0  0  0  0  0  0  0
   -7.7483   -7.4090    0.0114 H   0  0  0  0  0  0  0  0  0  0  0  0
   -9.4165   -4.1168   -0.5581 H   0  0  0  0  0  0  0  0  0  0  0  0
  -10.7778   -5.0510   -3.1422 H   0  0  0  0  0  0  0  0  0  0  0  0
   -9.0522   -4.5138   -3.0897 H   0  0  0  0  0  0  0  0  0  0  0  0
  -10.3519   -3.3744   -2.6231 H   0  0  0  0  0  0  0  0  0  0  0  0
  -11.6649   -6.1092   -0.5808 H   0  0  0  0  0  0  0  0  0  0  0  0
  -10.8946   -2.4209   -0.4689 H   0  0  0  0  0  0  0  0  0  0  0  0
  -12.6256   -3.0320   -2.2548 H   0  0  0  0  0  0  0  0  0  0  0  0
  -12.6391   -1.3021   -1.7366 H   0  0  0  0  0  0  0  0  0  0  0  0
  -13.9034   -2.4347   -1.1259 H   0  0  0  0  0  0  0  0  0  0  0  0
  -13.3381   -1.9305    1.2742 H   0  0  0  0  0  0  0  0  0  0  0  0
  -11.6981    0.7154   -0.3627 H   0  0  0  0  0  0  0  0  0  0  0  0
  -14.0244    0.7305    1.6489 H   0  0  0  0  0  0  0  0  0  0  0  0
  -14.0369    0.0405   -0.0227 H   0  0  0  0  0  0  0  0  0  0  0  0
  -13.8537    1.8094    0.2062 H   0  0  0  0  0  0  0  0  0  0  0  0
  -11.7544    1.7634    2.5069 H   0  0  0  0  0  0  0  0  0  0  0  0
  -10.0862    2.0584   -0.7193 H   0  0  0  0  0  0  0  0  0  0  0  0
  -10.2598    4.0607   -2.2768 H   0  0  0  0  0  0  0  0  0  0  0  0
  -11.7897    3.2452   -1.8133 H   0  0  0  0  0  0  0  0  0  0  0  0
  -11.3802    4.8148   -1.0799 H   0  0  0  0  0  0  0  0  0  0  0  0
   -8.0878    2.9444   -0.3230 H   0  0  0  0  0  0  0  0  0  0  0  0
  -10.1732    5.9896    0.2483 H   0  0  0  0  0  0  0  0  0  0  0  0
   -8.1296    7.1259    2.2353 H   0  0  0  0  0  0  0  0  0  0  0  0
   -9.7661    7.7626    1.8146 H   0  0  0  0  0  0  0  0  0  0  0  0
   -9.6255    6.1982    2.6957 H   0  0  0  0  0  0  0  0  0  0  0  0
   -8.7960    7.8857   -0.5958 H   0  0  0  0  0  0  0  0  0  0  0  0
   -5.5807    6.8533   -2.1524 H   0  0  0  0  0  0  0  0  0  0  0  0
   -4.5422    7.5744   -0.0792 H   0  0  0  0  0  0  0  0  0  0  0  0
   -5.9319    6.9819    0.9131 H   0  0  0  0  0  0  0  0  0  0  0  0
   -6.1222    8.3966   -0.2114 H   0  0  0  0  0  0  0  0  0  0  0  0
   -6.1411    4.2989   -0.9403 H   0  0  0  0  0  0  0  0  0  0  0  0
   -3.5112    5.6741    0.7839 H   0  0  0  0  0  0  0  0  0  0  0  0
   -2.8224    3.5325    1.8551 H   0  0  0  0  0  0  0  0  0  0  0  0
   -4.5472    3.5552    1.3419 H   0  0  0  0  0  0  0  0  0  0  0  0
   -3.3460    2.6311    0.3650 H   0  0  0  0  0  0  0  0  0  0  0  0
   -1.4943    5.9303   -0.4450 H   0  0  0  0  0  0  0  0  0  0  0  0
   -1.0580    2.3544    0.7625 H   0  0  0  0  0  0  0  0  0  0  0  0
    1.2197    1.3872    0.3683 H   0  0  0  0  0  0  0  0  0  0  0  0
    1.3689    2.4370   -1.0987 H   0  0  0  0  0  0  0  0  0  0  0  0
    0.9298   -0.8626   -2.6917 H   0  0  0  0  0  0  0  0  0  0  0  0
    1.9976   -0.0227   -1.5302 H   0  0  0  0  0  0  0  0  0  0  0  0
    0.0917    3.5352    2.3018 H   0  0  0  0  0  0  0  0  0  0  0  0
    2.6463    3.9295   -0.0941 H   0  0  0  0  0  0  0  0  0  0  0  0
    1.7107    6.7984   -0.7924 H   0  0  0  0  0  0  0  0  0  0  0  0
    2.9463    5.8408   -1.7049 H   0  0  0  0  0  0  0  0  0  0  0  0
    1.2508    5.2628   -1.6395 H   0  0  0  0  0  0  0  0  0  0  0  0
    3.4034    6.5219    1.3122 H   0  0  0  0  0  0  0  0  0  0  0  0
    6.6683    4.2113    0.6498 H   0  0  0  0  0  0  0  0  0  0  0  0
    4.5022    3.8531   -1.5070 H   0  0  0  0  0  0  0  0  0  0  0  0
    6.1825    3.2272   -1.4938 H   0  0  0  0  0  0  0  0  0  0  0  0
    4.9855    2.5829   -0.3134 H   0  0  0  0  0  0  0  0  0  0  0  0
    5.2731    6.2794   -1.1044 H   0  0  0  0  0  0  0  0  0  0  0  0
    9.4040    6.6408   -0.5660 H   0  0  0  0  0  0  0  0  0  0  0  0
    8.8892    8.6471    0.7967 H   0  0  0  0  0  0  0  0  0  0  0  0
    7.1228    8.4017    0.4989 H   0  0  0  0  0  0  0  0  0  0  0  0
    8.2434    8.7521   -0.8803 H   0  0  0  0  0  0  0  0  0  0  0  0
    7.6382    6.2937    1.8841 H   0  0  0  0  0  0  0  0  0  0  0  0
    9.9414    4.4710   -0.3474 H   0  0  0  0  0  0  0  0  0  0  0  0
   12.3769    4.7990   -0.0421 H   0  0  0  0  0  0  0  0  0  0  0  0
   12.1346    5.2065    1.6999 H   0  0  0  0  0  0  0  0  0  0  0  0
   11.4993    6.2973    0.4143 H   0  0  0  0  0  0  0  0  0  0  0  0
   11.2916    2.8532    1.8253 H   0  0  0  0  0  0  0  0  0  0  0  0
   10.5588    0.0922   -0.6457 H   0  0  0  0  0  0  0  0  0  0  0  0
   12.1683    1.0356   -2.3616 H   0  0  0  0  0  0  0  0  0  0  0  0
   10.5292    1.7729   -2.4419 H   0  0  0  0  0  0  0  0  0  0  0  0
   11.8870    2.6811   -1.6772 H   0  0  0  0  0  0  0  0  0  0  0  0
   12.8928    1.6839    0.5261 H   0  0  0  0  0  0  0  0  0  0  0  0
   11.2040   -1.7966    0.3652 H   0  0  0  0  0  0  0  0  0  0  0  0
   13.9654   -1.6700   -1.0517 H   0  0  0  0  0  0  0  0  0  0  0  0
   12.3631   -1.1819   -1.7332 H   0  0  0  0  0  0  0  0  0  0  0  0
   12.7164   -2.9030   -1.4433 H   0  0  0  0  0  0  0  0  0  0  0  0
   13.6704   -2.6849    1.7966 H   0  0  0  0  0  0  0  0  0  0  0  0
   10.8544   -3.8298   -0.3406 H   0  0  0  0  0  0  0  0  0  0  0  0
   12.6512   -5.4499   -1.2212 H   0  0  0  0  0  0  0  0  0  0  0  0
   11.9142   -6.7160   -0.1514 H   0  0  0  0  0  0  0  0  0  0  0  0
   10.9628   -5.9709   -1.4894 H   0  0  0  0  0  0  0  0  0  0  0  0
   10.3706   -5.4230    2.0995 H   0  0  0  0  0  0  0  0  0  0  0  0
    9.0278   -4.5739   -1.2873 H   0  0  0  0  0  0  0  0  0  0  0  0
    7.1793   -7.0223   -0.9732 H   0  0  0  0  0  0  0  0  0  0  0  0
    8.9172   -7.1253   -1.4100 H   0  0  0  0  0  0  0  0  0  0  0  0
    7.7882   -6.2869   -2.5176 H   0  0  0  0  0  0  0  0  0  0  0  0
    7.1238   -3.4765    0.0503 H   0  0  0  0  0  0  0  0  0  0  0  0
  1  2  1  0
  2  3  2  0
  2  4  1  0
  4  5  1  0
  5  6  1  0
  6  7  1  0
  7  8  1  0
  8  9  1  0
  9 10  2  0
 10 11  1  0
 11 12  2  0
 12 13  1  0
 13 14  2  0
 13 15  1  0
 15 16  1  0
 16 17  1  0
 17 18  1  0
 18 19  1  0
 19 20  1  0
 19 21  2  0
 18 22  1  0
 22 23  1  0
 23 24  2  0
 23 25  1  0
 25 26  1  0
 25 27  1  0
 27 28  1  0
 28 29  2  0
 28 30  1  0
 30 31  1  0
 30 32  1  0
 32 33  1  0
 33 34  2  0
 33 35  1  0
 35 36  1  0
 35 37  1  0
 37 38  1  0
 38 39  2  0
 38 40  1  0
 40 41  1  0
 40 42  1  0
 42 43  1  0
 43 44  2  0
 43 45  1  0
 45 46  1  0
 45 47  1  0
 47 48  1  0
 48 49  2  0
 48 50  1  0
 50 51  1  0
 50 52  1  0
 52 53  1  0
 53 54  2  0
 53 55  1  0
 55 56  1  0
 55 57  1  0
 57 58  1  0
 58 59  2  0
 58 60  1  0
 60 61  1  0
 60 62  1  0
 62 63  1  0
 63 64  2  0
 63 65  1  0
 65 66  1  0
 66 67  1  0
 67 68  1  0
 65 69  1  0
 69 70  1  0
 70 71  2  0
 70 72  1  0
 72 73  1  0
 72 74  1  0
 74 75  1  0
 75 76  2  0
 75 77  1  0
 77 78  1  0
 77 79  1  0
 79 80  1  0
 80 81  2  0
 80 82  1  0
 82 83  1  0
 82 84  1  0
 84 85  1  0
 85 86  2  0
 85 87  1  0
 87 88  1  0
 87 89  1  0
 89 90  1  0
 90 91  2  0
 90 92  1  0
 92 93  1  0
 92 94  1  0
 94 95  1  0
 95 96  2  0
 95 97  1  0
 97 98  1  0
 97 99  1  0
 99100  1  0
100101  2  0
100102  1  0
102103  1  0
102104  1  0
104105  1  0
105106  2  0
105107  1  0
107108  1  0
107109  1  0
109110  1  0
110111  2  0
110  5  1  0
 14  9  1  0
 68 11  1  0
  1112  1  0
  1113  1  0
  1114  1  0
  4115  1  0
  5116  1  1
  6117  1  0
  6118  1  0
  8119  1  0
  8120  1  0
 10121  1  0
 12122  1  0
 14123  1  0
 15124  1  0
 15125  1  0
 17126  1  0
 17127  1  0
 18128  1  6
 20129  1  0
 20130  1  0
 22131  1  0
 25132  1  1
 26133  1  0
 26134  1  0
 26135  1  0
 27136  1  0
 30137  1  1
 31138  1  0
 31139  1  0
 31140  1  0
 32141  1  0
 35142  1  6
 36143  1  0
 36144  1  0
 36145  1  0
 37146  1  0
 40147  1  6
 41148  1  0
 41149  1  0
 41150  1  0
 42151  1  0
 45152  1  6
 46153  1  0
 46154  1  0
 46155  1  0
 47156  1  0
 50157  1  6
 51158  1  0
 51159  1  0
 51160  1  0
 52161  1  0
 55162  1  6
 56163  1  0
 56164  1  0
 56165  1  0
 57166  1  0
 60167  1  1
 61168  1  0
 61169  1  0
 61170  1  0
 62171  1  0
 65172  1  1
 66173  1  0
 66174  1  0
 68175  1  0
 68176  1  0
 69177  1  0
 72178  1  6
 73179  1  0
 73180  1  0
 73181  1  0
 74182  1  0
 77183  1  1
 78184  1  0
 78185  1  0
 78186  1  0
 79187  1  0
 82188  1  6
 83189  1  0
 83190  1  0
 83191  1  0
 84192  1  0
 87193  1  6
 88194  1  0
 88195  1  0
 88196  1  0
 89197  1  0
 92198  1  6
 93199  1  0
 93200  1  0
 93201  1  0
 94202  1  0
 97203  1  6
 98204  1  0
 98205  1  0
 98206  1  0
 99207  1  0
102208  1  6
103209  1  0
103210  1  0
103211  1  0
104212  1  0
107213  1  6
108214  1  0
108215  1  0
108216  1  0
109217  1  0
M  END
