
     RDKit          3D

237239  0  0  0  0  0  0  0  0999 V2000
    7.3563   -4.6563    1.8764 C   0  0  0  0  0  0  0  0  0  0  0  0
    6.9513   -6.1064    1.9164 C   0  0  0  0  0  0  0  0  0  0  0  0
    6.9554   -6.6993    3.0266 O   0  0  0  0  0  0  0  0  0  0  0  0
    6.6012   -6.8411    0.7323 N   0  0  0  0  0  0  0  0  0  0  0  0
    6.4442   -6.2567   -0.6087 C   0  0  2  0  0  0  0  0  0  0  0  0
    4.9754   -6.3460   -1.0464 C   0  0  0  0  0  0  0  0  0  0  0  0
    4.6045   -5.1371   -2.3758 S   0  0  0  0  0  0  0  0  0  0  0  0
    4.2822   -3.6901   -1.2913 C   0  0  0  0  0  0  0  0  0  0  0  0
    2.8344   -3.2800   -1.3586 C   0  0  0  0  0  0  0  0  0  0  0  0
    2.4780   -1.9515   -1.6353 C   0  0  0  0  0  0  0  0  0  0  0  0
    1.1215   -1.5717   -1.7066 C   0  0  0  0  0  0  0  0  0  0  0  0
    0.1289   -2.5389   -1.5117 C   0  0  0  0  0  0  0  0  0  0  0  0
    0.4760   -3.8692   -1.2357 C   0  0  0  0  0  0  0  0  0  0  0  0
    1.8254   -4.2277   -1.1432 C   0  0  0  0  0  0  0  0  0  0  0  0
   -0.5976   -4.9116   -1.0447 C   0  0  0  0  0  0  0  0  0  0  0  0
   -1.5387   -4.5833    0.4866 S   0  0  0  0  0  0  0  0  0  0  0  0
   -1.8126   -6.3335    0.9767 C   0  0  0  0  0  0  0  0  0  0  0  0
   -2.6708   -7.1353   -0.0358 C   0  0  1  0  0  0  0  0  0  0  0  0
   -3.1527   -8.4588    0.5037 C   0  0  0  0  0  0  0  0  0  0  0  0
   -4.0288   -9.2730   -0.2825 N   0  0  0  0  0  0  0  0  0  0  0  0
   -2.7499   -8.8886    1.6154 O   0  0  0  0  0  0  0  0  0  0  0  0
   -3.7769   -6.3410   -0.5870 N   0  0  0  0  0  0  0  0  0  0  0  0
   -4.9422   -5.8435    0.1052 C   0  0  0  0  0  0  0  0  0  0  0  0
   -5.6690   -5.0079   -0.4979 O   0  0  0  0  0  0  0  0  0  0  0  0
   -5.3276   -6.2814    1.5069 C   0  0  1  0  0  0  0  0  0  0  0  0
   -5.7859   -5.0844    2.3589 C   0  0  0  0  0  0  0  0  0  0  0  0
   -6.3125   -7.3712    1.4884 N   0  0  0  0  0  0  0  0  0  0  0  0
   -7.7408   -7.1997    1.5854 C   0  0  0  0  0  0  0  0  0  0  0  0
   -8.3647   -7.8206    2.4852 O   0  0  0  0  0  0  0  0  0  0  0  0
   -8.5185   -6.4516    0.5348 C   0  0  1  0  0  0  0  0  0  0  0  0
   -8.8952   -7.4087   -0.6030 C   0  0  0  0  0  0  0  0  0  0  0  0
   -9.6951   -5.7944    1.1277 N   0  0  0  0  0  0  0  0  0  0  0  0
  -11.0325   -6.2905    1.0300 C   0  0  0  0  0  0  0  0  0  0  0  0
  -11.3523   -7.3485    1.6420 O   0  0  0  0  0  0  0  0  0  0  0  0
  -12.0524   -5.5558    0.2004 C   0  0  1  0  0  0  0  0  0  0  0  0
  -12.6954   -6.5062   -0.8152 C   0  0  0  0  0  0  0  0  0  0  0  0
  -13.0940   -4.9897    1.0651 N   0  0  0  0  0  0  0  0  0  0  0  0
  -13.7193   -3.7051    0.8726 C   0  0  0  0  0  0  0  0  0  0  0  0
  -14.8669   -3.5134    1.3572 O   0  0  0  0  0  0  0  0  0  0  0  0
  -13.0440   -2.5846    0.1239 C   0  0  1  0  0  0  0  0  0  0  0  0
  -13.3049   -2.6918   -1.3878 C   0  0  0  0  0  0  0  0  0  0  0  0
  -13.5358   -1.2851    0.6000 N   0  0  0  0  0  0  0  0  0  0  0  0
  -12.6756   -0.3566    1.2821 C   0  0  0  0  0  0  0  0  0  0  0  0
  -11.9833   -0.7628    2.2574 O   0  0  0  0  0  0  0  0  0  0  0  0
  -12.6680    1.1121    0.9264 C   0  0  1  0  0  0  0  0  0  0  0  0
  -13.0094    1.3083   -0.5629 C   0  0  0  0  0  0  0  0  0  0  0  0
  -13.6128    1.8389    1.7928 N   0  0  0  0  0  0  0  0  0  0  0  0
  -13.5184    3.2347    2.1184 C   0  0  0  0  0  0  0  0  0  0  0  0
  -14.0890    3.6457    3.1650 O   0  0  0  0  0  0  0  0  0  0  0  0
  -12.8817    4.2461    1.1908 C   0  0  1  0  0  0  0  0  0  0  0  0
  -13.9506    4.8130    0.2525 C   0  0  0  0  0  0  0  0  0  0  0  0
  -12.2781    5.3449    1.9623 N   0  0  0  0  0  0  0  0  0  0  0  0
  -10.8849    5.7200    1.9481 C   0  0  0  0  0  0  0  0  0  0  0  0
  -10.4734    6.5142    2.8347 O   0  0  0  0  0  0  0  0  0  0  0  0
   -9.9278    5.2830    0.8526 C   0  0  1  0  0  0  0  0  0  0  0  0
  -10.2640    5.9786   -0.4740 C   0  0  0  0  0  0  0  0  0  0  0  0
   -8.5337    5.5248    1.2561 N   0  0  0  0  0  0  0  0  0  0  0  0
   -7.8550    6.7719    1.0679 C   0  0  0  0  0  0  0  0  0  0  0  0
   -7.8407    7.6283    1.9982 O   0  0  0  0  0  0  0  0  0  0  0  0
   -7.0327    7.0108   -0.1721 C   0  0  1  0  0  0  0  0  0  0  0  0
   -7.3006    8.4073   -0.7553 C   0  0  0  0  0  0  0  0  0  0  0  0
   -5.6206    6.7824    0.1510 N   0  0  0  0  0  0  0  0  0  0  0  0
   -4.5761    7.7448    0.0022 C   0  0  0  0  0  0  0  0  0  0  0  0
   -4.3171    8.5171    0.9707 O   0  0  0  0  0  0  0  0  0  0  0  0
   -3.7691    7.8067   -1.2733 C   0  0  1  0  0  0  0  0  0  0  0  0
   -2.6153    8.8105   -1.2247 C   0  0  0  0  0  0  0  0  0  0  0  0
   -3.2892    6.4752   -1.6909 N   0  0  0  0  0  0  0  0  0  0  0  0
   -2.7878    5.4397   -0.8277 C   0  0  0  0  0  0  0  0  0  0  0  0
   -2.9652    4.2350   -1.1740 O   0  0  0  0  0  0  0  0  0  0  0  0
   -1.9727    5.7294    0.4156 C   0  0  1  0  0  0  0  0  0  0  0  0
   -2.2564    4.7082    1.5245 C   0  0  0  0  0  0  0  0  0  0  0  0
   -0.5313    5.7722    0.1141 N   0  0  0  0  0  0  0  0  0  0  0  0
    0.1203    4.8755   -0.7940 C   0  0  0  0  0  0  0  0  0  0  0  0
    0.3386    5.2509   -1.9742 O   0  0  0  0  0  0  0  0  0  0  0  0
    0.7027    3.5767   -0.2933 C   0  0  1  0  0  0  0  0  0  0  0  0
    0.1485    2.3769   -1.0901 C   0  0  0  0  0  0  0  0  0  0  0  0
    0.7941    0.8017   -0.4036 S   0  0  0  0  0  0  0  0  0  0  0  0
    0.7498   -0.1340   -1.9712 C   0  0  0  0  0  0  0  0  0  0  0  0
    2.1775    3.6421   -0.3389 N   0  0  0  0  0  0  0  0  0  0  0  0
    2.9499    3.8104   -1.5376 C   0  0  0  0  0  0  0  0  0  0  0  0
    2.7093    3.0865   -2.5418 O   0  0  0  0  0  0  0  0  0  0  0  0
    4.1298    4.7515   -1.5591 C   0  0  1  0  0  0  0  0  0  0  0  0
    4.3618    5.3261   -2.9571 C   0  0  0  0  0  0  0  0  0  0  0  0
    3.9015    5.8525   -0.6229 N   0  0  0  0  0  0  0  0  0  0  0  0
    4.7318    6.0729    0.5244 C   0  0  0  0  0  0  0  0  0  0  0  0
    4.1834    6.2378    1.6499 O   0  0  0  0  0  0  0  0  0  0  0  0
    6.2433    6.0960    0.4195 C   0  0  1  0  0  0  0  0  0  0  0  0
    6.8322    7.1043    1.4159 C   0  0  0  0  0  0  0  0  0  0  0  0
    6.7902    4.7535    0.6555 N   0  0  0  0  0  0  0  0  0  0  0  0
    7.9681    4.2564    0.0095 C   0  0  0  0  0  0  0  0  0  0  0  0
    7.9276    3.1162   -0.5380 O   0  0  0  0  0  0  0  0  0  0  0  0
    9.2827    4.9941    0.0961 C   0  0  1  0  0  0  0  0  0  0  0  0
    9.8126    4.8574    1.5355 C   0  0  0  0  0  0  0  0  0  0  0  0
   10.2486    4.4633   -0.8779 N   0  0  0  0  0  0  0  0  0  0  0  0
   11.6604    4.6503   -0.7272 C   0  0  0  0  0  0  0  0  0  0  0  0
   12.1569    5.8028   -0.8873 O   0  0  0  0  0  0  0  0  0  0  0  0
   12.5406    3.4869   -0.3500 C   0  0  1  0  0  0  0  0  0  0  0  0
   13.6464    3.2924   -1.3871 C   0  0  0  0  0  0  0  0  0  0  0  0
   13.1372    3.7268    0.9672 N   0  0  0  0  0  0  0  0  0  0  0  0
   13.1223    2.7695    2.0318 C   0  0  0  0  0  0  0  0  0  0  0  0
   13.0283    3.1927    3.2199 O   0  0  0  0  0  0  0  0  0  0  0  0
   13.2327    1.2836    1.7821 C   0  0  1  0  0  0  0  0  0  0  0  0
   14.3421    0.6869    2.6589 C   0  0  0  0  0  0  0  0  0  0  0  0
   11.9511    0.6271    2.0692 N   0  0  0  0  0  0  0  0  0  0  0  0
   11.7305   -0.7731    1.8285 C   0  0  0  0  0  0  0  0  0  0  0  0
   11.5384   -1.5397    2.8132 O   0  0  0  0  0  0  0  0  0  0  0  0
   11.6921   -1.3681    0.4406 C   0  0  1  0  0  0  0  0  0  0  0  0
   11.2892   -0.3486   -0.6376 C   0  0  0  0  0  0  0  0  0  0  0  0
   12.9939   -1.9567    0.1157 N   0  0  0  0  0  0  0  0  0  0  0  0
   13.2990   -3.3564   -0.0636 C   0  0  0  0  0  0  0  0  0  0  0  0
   14.5156   -3.6888   -0.0383 O   0  0  0  0  0  0  0  0  0  0  0  0
   12.2815   -4.4690   -0.2209 C   0  0  1  0  0  0  0  0  0  0  0  0
   11.5865   -4.8363    1.0976 C   0  0  0  0  0  0  0  0  0  0  0  0
   11.3026   -4.1720   -1.2696 N   0  0  0  0  0  0  0  0  0  0  0  0
   10.5261   -5.2056   -1.8860 C   0  0  0  0  0  0  0  0  0  0  0  0
   11.1030   -6.2146   -2.3847 O   0  0  0  0  0  0  0  0  0  0  0  0
    9.0296   -5.0692   -1.9526 C   0  0  1  0  0  0  0  0  0  0  0  0
    8.6120   -4.0023   -2.9626 C   0  0  0  0  0  0  0  0  0  0  0  0
    8.4004   -6.3445   -2.3111 N   0  0  0  0  0  0  0  0  0  0  0  0
    7.3433   -6.9917   -1.5786 C   0  0  0  0  0  0  0  0  0  0  0  0
    7.1536   -8.2230   -1.7669 O   0  0  0  0  0  0  0  0  0  0  0  0
    6.5797   -4.0564    1.3640 H   0  0  0  0  0  0  0  0  0  0  0  0
    8.3228   -4.5606    1.3447 H   0  0  0  0  0  0  0  0  0  0  0  0
    7.4744   -4.2655    2.9086 H   0  0  0  0  0  0  0  0  0  0  0  0
    6.4047   -7.8688    0.8467 H   0  0  0  0  0  0  0  0  0  0  0  0
    6.6970   -5.1850   -0.5792 H   0  0  0  0  0  0  0  0  0  0  0  0
    4.3026   -6.1569   -0.1872 H   0  0  0  0  0  0  0  0  0  0  0  0
    4.7392   -7.3677   -1.4165 H   0  0  0  0  0  0  0  0  0  0  0  0
    4.5541   -3.8888   -0.2369 H   0  0  0  0  0  0  0  0  0  0  0  0
    4.9327   -2.8627   -1.6412 H   0  0  0  0  0  0  0  0  0  0  0  0
    3.2479   -1.1973   -1.7587 H   0  0  0  0  0  0  0  0  0  0  0  0
   -0.9218   -2.2603   -1.5762 H   0  0  0  0  0  0  0  0  0  0  0  0
    2.0836   -5.2486   -0.9193 H   0  0  0  0  0  0  0  0  0  0  0  0
   -1.3056   -4.8838   -1.9012 H   0  0  0  0  0  0  0  0  0  0  0  0
   -0.1432   -5.9221   -1.0294 H   0  0  0  0  0  0  0  0  0  0  0  0
   -0.8262   -6.8304    1.0988 H   0  0  0  0  0  0  0  0  0  0  0  0
   -2.2764   -6.3245    1.9813 H   0  0  0  0  0  0  0  0  0  0  0  0
   -2.0003   -7.3965   -0.8836 H   0  0  0  0  0  0  0  0  0  0  0  0
   -4.2871  -10.2301    0.0507 H   0  0  0  0  0  0  0  0  0  0  0  0
   -4.4457   -8.9162   -1.1734 H   0  0  0  0  0  0  0  0  0  0  0  0
   -3.7036   -6.0908   -1.6005 H   0  0  0  0  0  0  0  0  0  0  0  0
   -4.4267   -6.6643    2.0117 H   0  0  0  0  0  0  0  0  0  0  0  0
   -5.0037   -4.2985    2.3411 H   0  0  0  0  0  0  0  0  0  0  0  0
   -6.7245   -4.6376    1.9681 H   0  0  0  0  0  0  0  0  0  0  0  0
   -5.9419   -5.4114    3.4096 H   0  0  0  0  0  0  0  0  0  0  0  0
   -5.9499   -8.3096    1.7686 H   0  0  0  0  0  0  0  0  0  0  0  0
   -7.8890   -5.6625    0.1016 H   0  0  0  0  0  0  0  0  0  0  0  0
   -9.4452   -6.8514   -1.3927 H   0  0  0  0  0  0  0  0  0  0  0  0
   -7.9779   -7.8403   -1.0545 H   0  0  0  0  0  0  0  0  0  0  0  0
   -9.5284   -8.2367   -0.2248 H   0  0  0  0  0  0  0  0  0  0  0  0
   -9.5467   -4.8962    1.6443 H   0  0  0  0  0  0  0  0  0  0  0  0
  -11.5223   -4.7592   -0.3593 H   0  0  0  0  0  0  0  0  0  0  0  0
  -13.3278   -5.9413   -1.5263 H   0  0  0  0  0  0  0  0  0  0  0  0
  -11.9181   -7.0433   -1.3959 H   0  0  0  0  0  0  0  0  0  0  0  0
  -13.3299   -7.2579   -0.2991 H   0  0  0  0  0  0  0  0  0  0  0  0
  -13.5527   -5.6376    1.7413 H   0  0  0  0  0  0  0  0  0  0  0  0
  -11.9465   -2.6393    0.2928 H   0  0  0  0  0  0  0  0  0  0  0  0
  -12.9496   -3.6536   -1.7954 H   0  0  0  0  0  0  0  0  0  0  0  0
  -12.7678   -1.8792   -1.9206 H   0  0  0  0  0  0  0  0  0  0  0  0
  -14.3924   -2.6041   -1.6025 H   0  0  0  0  0  0  0  0  0  0  0  0
  -14.4657   -0.9413    0.2764 H   0  0  0  0  0  0  0  0  0  0  0  0
  -11.6427    1.4929    1.1126 H   0  0  0  0  0  0  0  0  0  0  0  0
  -12.4850    0.5529   -1.1848 H   0  0  0  0  0  0  0  0  0  0  0  0
  -14.1017    1.2263   -0.7172 H   0  0  0  0  0  0  0  0  0  0  0  0
  -12.6785    2.2956   -0.9285 H   0  0  0  0  0  0  0  0  0  0  0  0
  -14.3054    1.2762    2.3371 H   0  0  0  0  0  0  0  0  0  0  0  0
  -12.1143    3.7542    0.5857 H   0  0  0  0  0  0  0  0  0  0  0  0
  -14.3922    4.0063   -0.3663 H   0  0  0  0  0  0  0  0  0  0  0  0
  -14.7636    5.2992    0.8335 H   0  0  0  0  0  0  0  0  0  0  0  0
  -13.5129    5.5759   -0.4302 H   0  0  0  0  0  0  0  0  0  0  0  0
  -12.9028    5.8990    2.5884 H   0  0  0  0  0  0  0  0  0  0  0  0
  -10.0153    4.1869    0.6962 H   0  0  0  0  0  0  0  0  0  0  0  0
  -11.2384    5.6308   -0.8440 H   0  0  0  0  0  0  0  0  0  0  0  0
  -10.3025    7.0795   -0.3464 H   0  0  0  0  0  0  0  0  0  0  0  0
   -9.5145    5.7147   -1.2473 H   0  0  0  0  0  0  0  0  0  0  0  0
   -8.1532    4.9068    2.0067 H   0  0  0  0  0  0  0  0  0  0  0  0
   -7.3242    6.2675   -0.9473 H   0  0  0  0  0  0  0  0  0  0  0  0
   -8.3835    8.5278   -0.9603 H   0  0  0  0  0  0  0  0  0  0  0  0
   -6.7665    8.5218   -1.7263 H   0  0  0  0  0  0  0  0  0  0  0  0
   -6.9733    9.2069   -0.0553 H   0  0  0  0  0  0  0  0  0  0  0  0
   -5.3468    5.8305    0.4860 H   0  0  0  0  0  0  0  0  0  0  0  0
   -4.4625    8.1751   -2.0660 H   0  0  0  0  0  0  0  0  0  0  0  0
   -2.1196    8.8598   -2.2115 H   0  0  0  0  0  0  0  0  0  0  0  0
   -3.0022    9.8193   -0.9784 H   0  0  0  0  0  0  0  0  0  0  0  0
   -1.8609    8.5316   -0.4628 H   0  0  0  0  0  0  0  0  0  0  0  0
   -3.4737    6.2166   -2.6797 H   0  0  0  0  0  0  0  0  0  0  0  0
   -2.2712    6.7086    0.8358 H   0  0  0  0  0  0  0  0  0  0  0  0
   -1.6729    4.9569    2.4336 H   0  0  0  0  0  0  0  0  0  0  0  0
   -3.3374    4.7192    1.7784 H   0  0  0  0  0  0  0  0  0  0  0  0
   -1.9836    3.6841    1.2027 H   0  0  0  0  0  0  0  0  0  0  0  0
   -0.0091    6.6259    0.4096 H   0  0  0  0  0  0  0  0  0  0  0  0
    0.3919    3.4460    0.7711 H   0  0  0  0  0  0  0  0  0  0  0  0
    0.4369    2.4779   -2.1500 H   0  0  0  0  0  0  0  0  0  0  0  0
   -0.9607    2.3638   -1.0018 H   0  0  0  0  0  0  0  0  0  0  0  0
   -0.2655   -0.0818   -2.4152 H   0  0  0  0  0  0  0  0  0  0  0  0
    1.4695    0.3164   -2.6852 H   0  0  0  0  0  0  0  0  0  0  0  0
    2.6734    3.8012    0.5676 H   0  0  0  0  0  0  0  0  0  0  0  0
    5.0299    4.1728   -1.2651 H   0  0  0  0  0  0  0  0  0  0  0  0
    3.4623    5.8584   -3.3260 H   0  0  0  0  0  0  0  0  0  0  0  0
    4.6101    4.5095   -3.6662 H   0  0  0  0  0  0  0  0  0  0  0  0
    5.2206    6.0233   -2.9370 H   0  0  0  0  0  0  0  0  0  0  0  0
    2.9922    6.3710   -0.6797 H   0  0  0  0  0  0  0  0  0  0  0  0
    6.5054    6.4284   -0.6093 H   0  0  0  0  0  0  0  0  0  0  0  0
    6.3057    8.0781    1.3320 H   0  0  0  0  0  0  0  0  0  0  0  0
    6.7181    6.7213    2.4508 H   0  0  0  0  0  0  0  0  0  0  0  0
    7.9025    7.2824    1.2222 H   0  0  0  0  0  0  0  0  0  0  0  0
    6.1589    4.0348    1.0868 H   0  0  0  0  0  0  0  0  0  0  0  0
    9.1301    6.0649   -0.1412 H   0  0  0  0  0  0  0  0  0  0  0  0
   10.0510    3.7921    1.7524 H   0  0  0  0  0  0  0  0  0  0  0  0
   10.7287    5.4703    1.6722 H   0  0  0  0  0  0  0  0  0  0  0  0
    9.0579    5.2130    2.2666 H   0  0  0  0  0  0  0  0  0  0  0  0
    9.9097    4.3354   -1.8592 H   0  0  0  0  0  0  0  0  0  0  0  0
   11.8973    2.5775   -0.3212 H   0  0  0  0  0  0  0  0  0  0  0  0
   14.1875    2.3397   -1.1934 H   0  0  0  0  0  0  0  0  0  0  0  0
   14.3781    4.1274   -1.3319 H   0  0  0  0  0  0  0  0  0  0  0  0
   13.2197    3.2474   -2.4143 H   0  0  0  0  0  0  0  0  0  0  0  0
   13.5055    4.6806    1.1811 H   0  0  0  0  0  0  0  0  0  0  0  0
   13.5192    1.1001    0.7300 H   0  0  0  0  0  0  0  0  0  0  0  0
   14.1429    0.8666    3.7384 H   0  0  0  0  0  0  0  0  0  0  0  0
   14.4269   -0.4101    2.4953 H   0  0  0  0  0  0  0  0  0  0  0  0
   15.3195    1.1458    2.3914 H   0  0  0  0  0  0  0  0  0  0  0  0
   11.3543    1.0542    2.8149 H   0  0  0  0  0  0  0  0  0  0  0  0
   10.8916   -2.1254    0.4538 H   0  0  0  0  0  0  0  0  0  0  0  0
   10.4068    0.2419   -0.3144 H   0  0  0  0  0  0  0  0  0  0  0  0
   12.1162    0.3436   -0.8624 H   0  0  0  0  0  0  0  0  0  0  0  0
   11.0326   -0.8729   -1.5785 H   0  0  0  0  0  0  0  0  0  0  0  0
   13.8013   -1.2975    0.0571 H   0  0  0  0  0  0  0  0  0  0  0  0
   12.8440   -5.3770   -0.5321 H   0  0  0  0  0  0  0  0  0  0  0  0
   10.9657   -5.7471    0.9570 H   0  0  0  0  0  0  0  0  0  0  0  0
   12.3450   -5.0561    1.8785 H   0  0  0  0  0  0  0  0  0  0  0  0
   10.9153   -4.0346    1.4648 H   0  0  0  0  0  0  0  0  0  0  0  0
   10.9745   -3.1994   -1.4126 H   0  0  0  0  0  0  0  0  0  0  0  0
    8.7159   -4.7373   -0.9420 H   0  0  0  0  0  0  0  0  0  0  0  0
    9.0508   -3.0128   -2.7063 H   0  0  0  0  0  0  0  0  0  0  0  0
    7.5101   -3.8972   -2.9690 H   0  0  0  0  0  0  0  0  0  0  0  0
    8.9335   -4.2874   -3.9892 H   0  0  0  0  0  0  0  0  0  0  0  0
    8.7086   -6.8008   -3.1971 H   0  0  0  0  0  0  0  0  0  0  0  0
  1  2  1  0
  2  3  2  0
  2  4  1  0
  4  5  1  0
  5  6  1  0
  6  7  1  0
  7  8  1  0
  8  9  1  0
  9 10  2  0
 10 11  1  0
 11 12  2  0
 12 13  1  0
 13 14  2  0
 13 15  1  0
 15 16  1  0
 16 17  1  0
 17 18  1  0
 18 19  1  0
 19 20  1  0
 19 21  2  0
 18 22  1  0
 22 23  1  0
 23 24  2  0
 23 25  1  0
 25 26  1  0
 25 27  1  0
 27 28  1  0
 28 29  2  0
 28 30  1  0
 30 31  1  0
 30 32  1  0
 32 33  1  0
 33 34  2  0
 33 35  1  0
 35 36  1  0
 35 37  1  0
 37 38  1  0
 38 39  2  0
 38 40  1  0
 40 41  1  0
 40 42  1  0
 42 43  1  0
 43 44  2  0
 43 45  1  0
 45 46  1  0
 45 47  1  0
 47 48  1  0
 48 49  2  0
 48 50  1  0
 50 51  1  0
 50 52  1  0
 52 53  1  0
 53 54  2  0
 53 55  1  0
 55 56  1  0
 55 57  1  0
 57 58  1  0
 58 59  2  0
 58 60  1  0
 60 61  1  0
 60 62  1  0
 62 63  1  0
 63 64  2  0
 63 65  1  0
 65 66  1  0
 65 67  1  0
 67 68  1  0
 68 69  2  0
 68 70  1  0
 70 71  1  0
 70 72  1  0
 72 73  1  0
 73 74  2  0
 73 75  1  0
 75 76  1  0
 76 77  1  0
 77 78  1  0
 75 79  1  0
 79 80  1  0
 80 81  2  0
 80 82  1  0
 82 83  1  0
 82 84  1  0
 84 85  1  0
 85 86  2  0
 85 87  1  0
 87 88  1  0
 87 89  1  0
 89 90  1  0
 90 91  2  0
 90 92  1  0
 92 93  1  0
 92 94  1  0
 94 95  1  0
 95 96  2  0
 95 97  1  0
 97 98  1  0
 97 99  1  0
 99100  1  0
100101  2  0
100102  1  0
102103  1  0
102104  1  0
104105  1  0
105106  2  0
105107  1  0
107108  1  0
107109  1  0
109110  1  0
110111  2  0
110112  1  0
112113  1  0
112114  1  0
114115  1  0
115116  2  0
115117  1  0
117118  1  0
117119  1  0
119120  1  0
120121  2  0
120  5  1  0
 14  9  1  0
 78 11  1  0
  1122  1  0
  1123  1  0
  1124  1  0
  4125  1  0
  5126  1  1
  6127  1  0
  6128  1  0
  8129  1  0
  8130  1  0
 10131  1  0
 12132  1  0
 14133  1  0
 15134  1  0
 15135  1  0
 17136  1  0
 17137  1  0
 18138  1  6
 20139  1  0
 20140  1  0
 22141  1  0
 25142  1  1
 26143  1  0
 26144  1  0
 26145  1  0
 27146  1  0
 30147  1  6
 31148  1  0
 31149  1  0
 31150  1  0
 32151  1  0
 35152  1  6
 36153  1  0
 36154  1  0
 36155  1  0
 37156  1  0
 40157  1  6
 41158  1  0
 41159  1  0
 41160  1  0
 42161  1  0
 45162  1  6
 46163  1  0
 46164  1  0
 46165  1  0
 47166  1  0
 50167  1  6
 51168  1  0
 51169  1  0
 51170  1  0
 52171  1  0
 55172  1  6
 56173  1  0
 56174  1  0
 56175  1  0
 57176  1  0
 60177  1  6
 61178  1  0
 61179  1  0
 61180  1  0
 62181  1  0
 65182  1  6
 66183  1  0
 66184  1  0
 66185  1  0
 67186  1  0
 70187  1  1
 71188  1  0
 71189  1  0
 71190  1  0
 72191  1  0
 75192  1  1
 76193  1  0
 76194  1  0
 78195  1  0
 78196  1  0
 79197  1  0
 82198  1  1
 83199  1  0
 83200  1  0
 83201  1  0
 84202  1  0
 87203  1  6
 88204  1  0
 88205  1  0
 88206  1  0
 89207  1  0
 92208  1  6
 93209  1  0
 93210  1  0
 93211  1  0
 94212  1  0
 97213  1  1
 98214  1  0
 98215  1  0
 98216  1  0
 99217  1  0
102218  1  6
103219  1  0
103220  1  0
103221  1  0
104222  1  0
107223  1  1
108224  1  0
108225  1  0
108226  1  0
109227  1  0
112228  1  6
113229  1  0
113230  1  0
113231  1  0
114232  1  0
117233  1  1
118234  1  0
118235  1  0
118236  1  0
119237  1  0
M  END
