
     RDKit          3D

227229  0  0  0  0  0  0  0  0999 V2000
   -6.1747   -8.7351   -0.4158 C   0  0  0  0  0  0  0  0  0  0  0  0
   -6.4578   -8.0502    0.8789 C   0  0  0  0  0  0  0  0  0  0  0  0
   -7.3101   -8.5747    1.6472 O   0  0  0  0  0  0  0  0  0  0  0  0
   -5.7861   -6.8506    1.3013 N   0  0  0  0  0  0  0  0  0  0  0  0
   -5.3877   -5.7111    0.4558 C   0  0  1  0  0  0  0  0  0  0  0  0
   -3.9448   -5.8471   -0.0477 C   0  0  0  0  0  0  0  0  0  0  0  0
   -2.7683   -6.0173    1.3451 S   0  0  0  0  0  0  0  0  0  0  0  0
   -2.4932   -4.2401    1.6588 C   0  0  0  0  0  0  0  0  0  0  0  0
   -1.7068   -3.5894    0.5444 C   0  0  0  0  0  0  0  0  0  0  0  0
   -2.2498   -2.5060   -0.1691 C   0  0  0  0  0  0  0  0  0  0  0  0
   -1.5616   -1.9495   -1.2588 C   0  0  0  0  0  0  0  0  0  0  0  0
   -0.3054   -2.4631   -1.6179 C   0  0  0  0  0  0  0  0  0  0  0  0
    0.2586   -3.5337   -0.9020 C   0  0  0  0  0  0  0  0  0  0  0  0
   -0.4417   -4.0793    0.1881 C   0  0  0  0  0  0  0  0  0  0  0  0
    1.6307   -4.0527   -1.2595 C   0  0  0  0  0  0  0  0  0  0  0  0
    1.5685   -5.8524   -1.5745 S   0  0  0  0  0  0  0  0  0  0  0  0
    3.3805   -6.1326   -1.5582 C   0  0  0  0  0  0  0  0  0  0  0  0
    3.9415   -6.2298   -0.1155 C   0  0  1  0  0  0  0  0  0  0  0  0
    3.2214   -7.2379    0.7531 C   0  0  0  0  0  0  0  0  0  0  0  0
    3.0812   -8.6057    0.3651 N   0  0  0  0  0  0  0  0  0  0  0  0
    2.7392   -6.8724    1.8522 O   0  0  0  0  0  0  0  0  0  0  0  0
    5.3941   -6.4580   -0.1081 N   0  0  0  0  0  0  0  0  0  0  0  0
    6.0487   -7.6816   -0.4957 C   0  0  0  0  0  0  0  0  0  0  0  0
    5.5119   -8.4295   -1.3522 O   0  0  0  0  0  0  0  0  0  0  0  0
    7.3446   -8.1407    0.1432 C   0  0  1  0  0  0  0  0  0  0  0  0
    8.3891   -8.4726   -0.9291 C   0  0  0  0  0  0  0  0  0  0  0  0
    7.8323   -7.1555    1.1234 N   0  0  0  0  0  0  0  0  0  0  0  0
    9.2149   -6.8202    1.2957 C   0  0  0  0  0  0  0  0  0  0  0  0
    9.9428   -7.5848    1.9881 O   0  0  0  0  0  0  0  0  0  0  0  0
    9.7942   -5.5374    0.7413 C   0  0  1  0  0  0  0  0  0  0  0  0
    8.7486   -4.6844   -0.0010 C   0  0  0  0  0  0  0  0  0  0  0  0
   10.3873   -4.7590    1.8369 N   0  0  0  0  0  0  0  0  0  0  0  0
   11.0106   -3.4788    1.6577 C   0  0  0  0  0  0  0  0  0  0  0  0
   10.5130   -2.4830    2.2443 O   0  0  0  0  0  0  0  0  0  0  0  0
   12.2966   -3.2709    0.8848 C   0  0  1  0  0  0  0  0  0  0  0  0
   13.0021   -4.5572    0.4497 C   0  0  0  0  0  0  0  0  0  0  0  0
   12.0485   -2.4150   -0.2747 N   0  0  0  0  0  0  0  0  0  0  0  0
   11.9902   -0.9905   -0.1432 C   0  0  0  0  0  0  0  0  0  0  0  0
   10.8617   -0.4286   -0.1274 O   0  0  0  0  0  0  0  0  0  0  0  0
   13.2250   -0.1245   -0.1540 C   0  0  1  0  0  0  0  0  0  0  0  0
   14.5320   -0.8902    0.0932 C   0  0  0  0  0  0  0  0  0  0  0  0
   13.3201    0.5607   -1.4476 N   0  0  0  0  0  0  0  0  0  0  0  0
   13.4803    1.9811   -1.6237 C   0  0  0  0  0  0  0  0  0  0  0  0
   14.0495    2.3937   -2.6720 O   0  0  0  0  0  0  0  0  0  0  0  0
   13.0510    2.9829   -0.5724 C   0  0  1  0  0  0  0  0  0  0  0  0
   14.2382    3.3132    0.3455 C   0  0  0  0  0  0  0  0  0  0  0  0
   12.5594    4.2203   -1.2069 N   0  0  0  0  0  0  0  0  0  0  0  0
   11.5726    5.1094   -0.6438 C   0  0  0  0  0  0  0  0  0  0  0  0
   11.1785    6.0821   -1.3446 O   0  0  0  0  0  0  0  0  0  0  0  0
   10.9731    4.9138    0.7379 C   0  0  1  0  0  0  0  0  0  0  0  0
   11.1018    6.1859    1.5858 C   0  0  0  0  0  0  0  0  0  0  0  0
    9.5861    4.4366    0.6523 N   0  0  0  0  0  0  0  0  0  0  0  0
    8.5433    5.0954   -0.0865 C   0  0  0  0  0  0  0  0  0  0  0  0
    8.0983    4.5373   -1.1238 O   0  0  0  0  0  0  0  0  0  0  0  0
    7.9294    6.4016    0.3911 C   0  0  1  0  0  0  0  0  0  0  0  0
    8.1827    7.5401   -0.6063 C   0  0  0  0  0  0  0  0  0  0  0  0
    6.4962    6.2499    0.6822 N   0  0  0  0  0  0  0  0  0  0  0  0
    5.4628    6.2339   -0.3187 C   0  0  0  0  0  0  0  0  0  0  0  0
    5.7089    5.7966   -1.4749 O   0  0  0  0  0  0  0  0  0  0  0  0
    4.0831    6.7587    0.0037 C   0  0  1  0  0  0  0  0  0  0  0  0
    3.6417    7.7306   -1.0949 C   0  0  0  0  0  0  0  0  0  0  0  0
    3.1414    5.6413    0.1458 N   0  0  0  0  0  0  0  0  0  0  0  0
    1.7170    5.8230    0.2494 C   0  0  0  0  0  0  0  0  0  0  0  0
    1.2484    6.9020    0.7102 O   0  0  0  0  0  0  0  0  0  0  0  0
    0.7623    4.8001   -0.2985 C   0  0  1  0  0  0  0  0  0  0  0  0
    0.5701    5.0204   -1.8025 C   0  0  0  0  0  0  0  0  0  0  0  0
    1.2566    3.4365   -0.0694 N   0  0  0  0  0  0  0  0  0  0  0  0
    0.5019    2.4165    0.6028 C   0  0  0  0  0  0  0  0  0  0  0  0
    1.1138    1.6019    1.3412 O   0  0  0  0  0  0  0  0  0  0  0  0
   -1.0023    2.3009    0.4596 C   0  0  1  0  0  0  0  0  0  0  0  0
   -1.3968    0.8860   -0.0065 C   0  0  0  0  0  0  0  0  0  0  0  0
   -1.1298    0.7199   -1.8028 S   0  0  0  0  0  0  0  0  0  0  0  0
   -2.1390   -0.7896   -2.0140 C   0  0  0  0  0  0  0  0  0  0  0  0
   -1.6398    2.5803    1.7523 N   0  0  0  0  0  0  0  0  0  0  0  0
   -2.8542    3.3363    1.9487 C   0  0  0  0  0  0  0  0  0  0  0  0
   -3.3534    3.3726    3.1058 O   0  0  0  0  0  0  0  0  0  0  0  0
   -3.5691    4.0448    0.8133 C   0  0  1  0  0  0  0  0  0  0  0  0
   -4.3863    3.0676   -0.0243 C   0  0  0  0  0  0  0  0  0  0  0  0
   -4.4645    5.0835    1.3372 N   0  0  0  0  0  0  0  0  0  0  0  0
   -4.6004    6.3411    0.6770 C   0  0  0  0  0  0  0  0  0  0  0  0
   -3.5657    7.0212    0.4208 O   0  0  0  0  0  0  0  0  0  0  0  0
   -5.9505    6.8161    0.2179 C   0  0  1  0  0  0  0  0  0  0  0  0
   -6.2839    8.1763    0.8137 C   0  0  0  0  0  0  0  0  0  0  0  0
   -5.9640    6.8898   -1.2392 N   0  0  0  0  0  0  0  0  0  0  0  0
   -7.1332    6.7327   -2.0579 C   0  0  0  0  0  0  0  0  0  0  0  0
   -7.1207    7.2380   -3.2184 O   0  0  0  0  0  0  0  0  0  0  0  0
   -8.3683    5.9919   -1.5672 C   0  0  1  0  0  0  0  0  0  0  0  0
   -9.4873    6.0138   -2.6162 C   0  0  0  0  0  0  0  0  0  0  0  0
   -8.0259    4.6036   -1.2341 N   0  0  0  0  0  0  0  0  0  0  0  0
   -8.4581    3.9502   -0.0266 C   0  0  0  0  0  0  0  0  0  0  0  0
   -7.5958    3.3686    0.6875 O   0  0  0  0  0  0  0  0  0  0  0  0
   -9.9167    3.8301    0.3564 C   0  0  1  0  0  0  0  0  0  0  0  0
  -10.4717    5.1625    0.8865 C   0  0  0  0  0  0  0  0  0  0  0  0
  -10.7057    3.3287   -0.7819 N   0  0  0  0  0  0  0  0  0  0  0  0
  -12.0560    2.8122   -0.7219 C   0  0  0  0  0  0  0  0  0  0  0  0
  -12.6402    2.5445   -1.8066 O   0  0  0  0  0  0  0  0  0  0  0  0
  -12.7790    2.5615    0.5829 C   0  0  1  0  0  0  0  0  0  0  0  0
  -14.2412    2.1080    0.4158 C   0  0  0  0  0  0  0  0  0  0  0  0
  -12.0443    1.6341    1.4515 N   0  0  0  0  0  0  0  0  0  0  0  0
  -11.6469    0.2783    1.1598 C   0  0  0  0  0  0  0  0  0  0  0  0
  -11.0851   -0.3977    2.0625 O   0  0  0  0  0  0  0  0  0  0  0  0
  -11.8543   -0.3847   -0.1861 C   0  0  1  0  0  0  0  0  0  0  0  0
  -10.5006   -0.6068   -0.8700 C   0  0  0  0  0  0  0  0  0  0  0  0
  -12.6106   -1.6320    0.0096 N   0  0  0  0  0  0  0  0  0  0  0  0
  -12.1756   -2.9321   -0.4176 C   0  0  0  0  0  0  0  0  0  0  0  0
  -12.4363   -3.3128   -1.5947 O   0  0  0  0  0  0  0  0  0  0  0  0
  -11.5376   -3.8695    0.5691 C   0  0  1  0  0  0  0  0  0  0  0  0
  -12.5882   -4.3966    1.5529 C   0  0  0  0  0  0  0  0  0  0  0  0
  -10.8963   -4.9961   -0.1224 N   0  0  0  0  0  0  0  0  0  0  0  0
   -9.4899   -5.2816   -0.1142 C   0  0  0  0  0  0  0  0  0  0  0  0
   -9.1096   -6.4391   -0.4338 O   0  0  0  0  0  0  0  0  0  0  0  0
   -8.4561   -4.2540    0.2848 C   0  0  1  0  0  0  0  0  0  0  0  0
   -8.1013   -4.3695    1.7692 C   0  0  0  0  0  0  0  0  0  0  0  0
   -7.2738   -4.3205   -0.5889 N   0  0  0  0  0  0  0  0  0  0  0  0
   -6.3607   -5.4281   -0.6652 C   0  0  0  0  0  0  0  0  0  0  0  0
   -6.2851   -6.0764   -1.7408 O   0  0  0  0  0  0  0  0  0  0  0  0
   -5.3144   -8.2984   -0.9434 H   0  0  0  0  0  0  0  0  0  0  0  0
   -5.9367   -9.8088   -0.2322 H   0  0  0  0  0  0  0  0  0  0  0  0
   -7.0747   -8.6790   -1.0758 H   0  0  0  0  0  0  0  0  0  0  0  0
   -5.8726   -6.6306    2.3211 H   0  0  0  0  0  0  0  0  0  0  0  0
   -5.3875   -4.8055    1.1007 H   0  0  0  0  0  0  0  0  0  0  0  0
   -3.6769   -4.9800   -0.6863 H   0  0  0  0  0  0  0  0  0  0  0  0
   -3.8283   -6.7501   -0.6829 H   0  0  0  0  0  0  0  0  0  0  0  0
   -1.9216   -4.1464    2.6093 H   0  0  0  0  0  0  0  0  0  0  0  0
   -3.4685   -3.7309    1.8215 H   0  0  0  0  0  0  0  0  0  0  0  0
   -3.2167   -2.1086    0.1225 H   0  0  0  0  0  0  0  0  0  0  0  0
    0.2295   -2.0322   -2.4604 H   0  0  0  0  0  0  0  0  0  0  0  0
   -0.0141   -4.9103    0.7394 H   0  0  0  0  0  0  0  0  0  0  0  0
    2.3143   -3.8136   -0.4233 H   0  0  0  0  0  0  0  0  0  0  0  0
    2.0355   -3.5448   -2.1611 H   0  0  0  0  0  0  0  0  0  0  0  0
    3.8979   -5.3088   -2.1014 H   0  0  0  0  0  0  0  0  0  0  0  0
    3.5766   -7.0659   -2.1206 H   0  0  0  0  0  0  0  0  0  0  0  0
    3.7719   -5.2393    0.3559 H   0  0  0  0  0  0  0  0  0  0  0  0
    3.2214   -8.8993   -0.6239 H   0  0  0  0  0  0  0  0  0  0  0  0
    2.8055   -9.3239    1.0705 H   0  0  0  0  0  0  0  0  0  0  0  0
    5.9659   -5.7067    0.3275 H   0  0  0  0  0  0  0  0  0  0  0  0
    7.1256   -9.0785    0.6945 H   0  0  0  0  0  0  0  0  0  0  0  0
    9.3014   -8.8992   -0.4691 H   0  0  0  0  0  0  0  0  0  0  0  0
    8.6603   -7.5578   -1.5018 H   0  0  0  0  0  0  0  0  0  0  0  0
    7.9873   -9.2273   -1.6384 H   0  0  0  0  0  0  0  0  0  0  0  0
    7.1977   -6.9174    1.9226 H   0  0  0  0  0  0  0  0  0  0  0  0
   10.5702   -5.8262    0.0181 H   0  0  0  0  0  0  0  0  0  0  0  0
    9.2405   -3.7969   -0.4458 H   0  0  0  0  0  0  0  0  0  0  0  0
    7.9564   -4.3337    0.7075 H   0  0  0  0  0  0  0  0  0  0  0  0
    8.2678   -5.2607   -0.8151 H   0  0  0  0  0  0  0  0  0  0  0  0
   10.0709   -4.9629    2.8156 H   0  0  0  0  0  0  0  0  0  0  0  0
   12.9848   -2.7567    1.5804 H   0  0  0  0  0  0  0  0  0  0  0  0
   14.0677   -4.3212    0.2146 H   0  0  0  0  0  0  0  0  0  0  0  0
   12.9861   -5.3093    1.2648 H   0  0  0  0  0  0  0  0  0  0  0  0
   12.5462   -4.9789   -0.4701 H   0  0  0  0  0  0  0  0  0  0  0  0
   11.5058   -2.8292   -1.0681 H   0  0  0  0  0  0  0  0  0  0  0  0
   13.1182    0.6055    0.6722 H   0  0  0  0  0  0  0  0  0  0  0  0
   14.5741   -1.2557    1.1394 H   0  0  0  0  0  0  0  0  0  0  0  0
   14.6346   -1.7441   -0.6133 H   0  0  0  0  0  0  0  0  0  0  0  0
   15.3977   -0.2076   -0.0518 H   0  0  0  0  0  0  0  0  0  0  0  0
   13.4496   -0.0365   -2.2966 H   0  0  0  0  0  0  0  0  0  0  0  0
   12.2320    2.5320    0.0182 H   0  0  0  0  0  0  0  0  0  0  0  0
   13.9923    4.1582    1.0203 H   0  0  0  0  0  0  0  0  0  0  0  0
   14.5143    2.4401    0.9588 H   0  0  0  0  0  0  0  0  0  0  0  0
   15.1254    3.6107   -0.2630 H   0  0  0  0  0  0  0  0  0  0  0  0
   13.0629    4.5769   -2.0503 H   0  0  0  0  0  0  0  0  0  0  0  0
   11.5498    4.1587    1.2977 H   0  0  0  0  0  0  0  0  0  0  0  0
   10.5777    6.0595    2.5581 H   0  0  0  0  0  0  0  0  0  0  0  0
   12.1747    6.3923    1.7881 H   0  0  0  0  0  0  0  0  0  0  0  0
   10.6900    7.0712    1.0635 H   0  0  0  0  0  0  0  0  0  0  0  0
    9.4249    3.4289    0.8699 H   0  0  0  0  0  0  0  0  0  0  0  0
    8.4300    6.6719    1.3472 H   0  0  0  0  0  0  0  0  0  0  0  0
    7.6671    8.4557   -0.2641 H   0  0  0  0  0  0  0  0  0  0  0  0
    7.8266    7.2726   -1.6202 H   0  0  0  0  0  0  0  0  0  0  0  0
    9.2714    7.7604   -0.6686 H   0  0  0  0  0  0  0  0  0  0  0  0
    6.2026    6.3271    1.6878 H   0  0  0  0  0  0  0  0  0  0  0  0
    4.1280    7.3253    0.9664 H   0  0  0  0  0  0  0  0  0  0  0  0
    4.4304    8.4937   -1.2932 H   0  0  0  0  0  0  0  0  0  0  0  0
    2.7248    8.2798   -0.7929 H   0  0  0  0  0  0  0  0  0  0  0  0
    3.4351    7.1833   -2.0371 H   0  0  0  0  0  0  0  0  0  0  0  0
    3.5229    4.7552    0.5543 H   0  0  0  0  0  0  0  0  0  0  0  0
   -0.2196    4.9305    0.2029 H   0  0  0  0  0  0  0  0  0  0  0  0
   -0.1305    4.2739   -2.2127 H   0  0  0  0  0  0  0  0  0  0  0  0
    0.1540    6.0398   -1.9831 H   0  0  0  0  0  0  0  0  0  0  0  0
    1.5453    4.9404   -2.3288 H   0  0  0  0  0  0  0  0  0  0  0  0
    2.2284    3.1759   -0.3766 H   0  0  0  0  0  0  0  0  0  0  0  0
   -1.3477    3.0189   -0.3037 H   0  0  0  0  0  0  0  0  0  0  0  0
   -2.4634    0.7114    0.2217 H   0  0  0  0  0  0  0  0  0  0  0  0
   -0.8102    0.1184    0.5340 H   0  0  0  0  0  0  0  0  0  0  0  0
   -2.1702   -1.0460   -3.0942 H   0  0  0  0  0  0  0  0  0  0  0  0
   -3.1943   -0.5776   -1.7004 H   0  0  0  0  0  0  0  0  0  0  0  0
   -1.2609    2.0723    2.5806 H   0  0  0  0  0  0  0  0  0  0  0  0
   -2.8220    4.5358    0.1479 H   0  0  0  0  0  0  0  0  0  0  0  0
   -5.0412    2.4360    0.6298 H   0  0  0  0  0  0  0  0  0  0  0  0
   -5.0335    3.6224   -0.7373 H   0  0  0  0  0  0  0  0  0  0  0  0
   -3.7327    2.4102   -0.6281 H   0  0  0  0  0  0  0  0  0  0  0  0
   -5.2320    4.7922    1.9936 H   0  0  0  0  0  0  0  0  0  0  0  0
   -6.7092    6.0903    0.5778 H   0  0  0  0  0  0  0  0  0  0  0  0
   -7.3018    8.4928    0.4982 H   0  0  0  0  0  0  0  0  0  0  0  0
   -6.2636    8.1290    1.9258 H   0  0  0  0  0  0  0  0  0  0  0  0
   -5.5564    8.9510    0.4701 H   0  0  0  0  0  0  0  0  0  0  0  0
   -5.1350    7.3185   -1.7074 H   0  0  0  0  0  0  0  0  0  0  0  0
   -8.7335    6.5257   -0.6611 H   0  0  0  0  0  0  0  0  0  0  0  0
  -10.4003    5.5158   -2.2466 H   0  0  0  0  0  0  0  0  0  0  0  0
   -9.7614    7.0683   -2.8538 H   0  0  0  0  0  0  0  0  0  0  0  0
   -9.1541    5.5079   -3.5507 H   0  0  0  0  0  0  0  0  0  0  0  0
   -7.2439    4.1506   -1.7615 H   0  0  0  0  0  0  0  0  0  0  0  0
   -9.9626    3.0866    1.1726 H   0  0  0  0  0  0  0  0  0  0  0  0
  -10.8864    5.7836    0.0704 H   0  0  0  0  0  0  0  0  0  0  0  0
   -9.6868    5.7332    1.4198 H   0  0  0  0  0  0  0  0  0  0  0  0
  -11.2663    4.9676    1.6255 H   0  0  0  0  0  0  0  0  0  0  0  0
  -10.2206    3.1971   -1.6969 H   0  0  0  0  0  0  0  0  0  0  0  0
  -12.8480    3.5398    1.1041 H   0  0  0  0  0  0  0  0  0  0  0  0
  -14.8080    2.8422   -0.1909 H   0  0  0  0  0  0  0  0  0  0  0  0
  -14.7241    2.0371    1.4131 H   0  0  0  0  0  0  0  0  0  0  0  0
  -14.3138    1.1139   -0.0640 H   0  0  0  0  0  0  0  0  0  0  0  0
  -11.8069    1.9900    2.4035 H   0  0  0  0  0  0  0  0  0  0  0  0
  -12.4461    0.2505   -0.8571 H   0  0  0  0  0  0  0  0  0  0  0  0
  -10.0108    0.3702   -1.0547 H   0  0  0  0  0  0  0  0  0  0  0  0
   -9.8332   -1.2197   -0.2309 H   0  0  0  0  0  0  0  0  0  0  0  0
  -10.6360   -1.1115   -1.8465 H   0  0  0  0  0  0  0  0  0  0  0  0
  -13.5452   -1.5661    0.4713 H   0  0  0  0  0  0  0  0  0  0  0  0
  -10.8062   -3.2887    1.1598 H   0  0  0  0  0  0  0  0  0  0  0  0
  -13.0909   -3.5612    2.0707 H   0  0  0  0  0  0  0  0  0  0  0  0
  -13.3499   -5.0128    1.0172 H   0  0  0  0  0  0  0  0  0  0  0  0
  -12.0909   -5.0315    2.3186 H   0  0  0  0  0  0  0  0  0  0  0  0
  -11.5153   -5.6778   -0.6030 H   0  0  0  0  0  0  0  0  0  0  0  0
   -8.8773   -3.2415    0.1303 H   0  0  0  0  0  0  0  0  0  0  0  0
   -7.2617   -3.6902    2.0178 H   0  0  0  0  0  0  0  0  0  0  0  0
   -8.9699   -4.0713    2.3862 H   0  0  0  0  0  0  0  0  0  0  0  0
   -7.8459   -5.4095    2.0349 H   0  0  0  0  0  0  0  0  0  0  0  0
   -7.2783   -3.6902   -1.4271 H   0  0  0  0  0  0  0  0  0  0  0  0
  1  2  1  0
  2  3  2  0
  2  4  1  0
  4  5  1  0
  5  6  1  0
  6  7  1  0
  7  8  1  0
  8  9  1  0
  9 10  2  0
 10 11  1  0
 11 12  2  0
 12 13  1  0
 13 14  2  0
 13 15  1  0
 15 16  1  0
 16 17  1  0
 17 18  1  0
 18 19  1  0
 19 20  1  0
 19 21  2  0
 18 22  1  0
 22 23  1  0
 23 24  2  0
 23 25  1  0
 25 26  1  0
 25 27  1  0
 27 28  1  0
 28 29  2  0
 28 30  1  0
 30 31  1  0
 30 32  1  0
 32 33  1  0
 33 34  2  0
 33 35  1  0
 35 36  1  0
 35 37  1  0
 37 38  1  0
 38 39  2  0
 38 40  1  0
 40 41  1  0
 40 42  1  0
 42 43  1  0
 43 44  2  0
 43 45  1  0
 45 46  1  0
 45 47  1  0
 47 48  1  0
 48 49  2  0
 48 50  1  0
 50 51  1  0
 50 52  1  0
 52 53  1  0
 53 54  2  0
 53 55  1  0
 55 56  1  0
 55 57  1  0
 57 58  1  0
 58 59  2  0
 58 60  1  0
 60 61  1  0
 60 62  1  0
 62 63  1  0
 63 64  2  0
 63 65  1  0
 65 66  1  0
 65 67  1  0
 67 68  1  0
 68 69  2  0
 68 70  1  0
 70 71  1  0
 71 72  1  0
 72 73  1  0
 70 74  1  0
 74 75  1  0
 75 76  2  0
 75 77  1  0
 77 78  1  0
 77 79  1  0
 79 80  1  0
 80 81  2  0
 80 82  1  0
 82 83  1  0
 82 84  1  0
 84 85  1  0
 85 86  2  0
 85 87  1  0
 87 88  1  0
 87 89  1  0
 89 90  1  0
 90 91  2  0
 90 92  1  0
 92 93  1  0
 92 94  1  0
 94 95  1  0
 95 96  2  0
 95 97  1  0
 97 98  1  0
 97 99  1  0
 99100  1  0
100101  2  0
100102  1  0
102103  1  0
102104  1  0
104105  1  0
105106  2  0
105107  1  0
107108  1  0
107109  1  0
109110  1  0
110111  2  0
110112  1  0
112113  1  0
112114  1  0
114115  1  0
115116  2  0
115  5  1  0
 14  9  1  0
 73 11  1  0
  1117  1  0
  1118  1  0
  1119  1  0
  4120  1  0
  5121  1  1
  6122  1  0
  6123  1  0
  8124  1  0
  8125  1  0
 10126  1  0
 12127  1  0
 14128  1  0
 15129  1  0
 15130  1  0
 17131  1  0
 17132  1  0
 18133  1  1
 20134  1  0
 20135  1  0
 22136  1  0
 25137  1  1
 26138  1  0
 26139  1  0
 26140  1  0
 27141  1  0
 30142  1  6
 31143  1  0
 31144  1  0
 31145  1  0
 32146  1  0
 35147  1  1
 36148  1  0
 36149  1  0
 36150  1  0
 37151  1  0
 40152  1  1
 41153  1  0
 41154  1  0
 41155  1  0
 42156  1  0
 45157  1  1
 46158  1  0
 46159  1  0
 46160  1  0
 47161  1  0
 50162  1  1
 51163  1  0
 51164  1  0
 51165  1  0
 52166  1  0
 55167  1  1
 56168  1  0
 56169  1  0
 56170  1  0
 57171  1  0
 60172  1  1
 61173  1  0
 61174  1  0
 61175  1  0
 62176  1  0
 65177  1  1
 66178  1  0
 66179  1  0
 66180  1  0
 67181  1  0
 70182  1  6
 71183  1  0
 71184  1  0
 73185  1  0
 73186  1  0
 74187  1  0
 77188  1  6
 78189  1  0
 78190  1  0
 78191  1  0
 79192  1  0
 82193  1  6
 83194  1  0
 83195  1  0
 83196  1  0
 84197  1  0
 87198  1  1
 88199  1  0
 88200  1  0
 88201  1  0
 89202  1  0
 92203  1  1
 93204  1  0
 93205  1  0
 93206  1  0
 94207  1  0
 97208  1  1
 98209  1  0
 98210  1  0
 98211  1  0
 99212  1  0
102213  1  6
103214  1  0
103215  1  0
103216  1  0
104217  1  0
107218  1  1
108219  1  0
108220  1  0
108221  1  0
109222  1  0
112223  1  1
113224  1  0
113225  1  0
113226  1  0
114227  1  0
M  END
