
     RDKit          3D

167169  0  0  0  0  0  0  0  0999 V2000
    2.0333    9.6346   -1.0518 C   0  0  0  0  0  0  0  0  0  0  0  0
    1.4778    8.3386   -1.5580 C   0  0  0  0  0  0  0  0  0  0  0  0
    1.2967    8.1954   -2.7960 O   0  0  0  0  0  0  0  0  0  0  0  0
    1.1436    7.2594   -0.6716 N   0  0  0  0  0  0  0  0  0  0  0  0
    1.4620    7.2553    0.7618 C   0  0  1  0  0  0  0  0  0  0  0  0
    0.6059    6.2158    1.5008 C   0  0  0  0  0  0  0  0  0  0  0  0
   -1.1482    6.7323    1.4995 S   0  0  0  0  0  0  0  0  0  0  0  0
   -1.8051    5.1428    2.1139 C   0  0  0  0  0  0  0  0  0  0  0  0
   -2.0849    4.2112    0.9645 C   0  0  0  0  0  0  0  0  0  0  0  0
   -3.0759    4.5369    0.0273 C   0  0  0  0  0  0  0  0  0  0  0  0
   -3.3783    3.6647   -1.0301 C   0  0  0  0  0  0  0  0  0  0  0  0
   -2.6311    2.4868   -1.1833 C   0  0  0  0  0  0  0  0  0  0  0  0
   -1.6468    2.1345   -0.2461 C   0  0  0  0  0  0  0  0  0  0  0  0
   -1.3781    3.0069    0.8229 C   0  0  0  0  0  0  0  0  0  0  0  0
   -0.7752    0.9188   -0.4475 C   0  0  0  0  0  0  0  0  0  0  0  0
   -1.6753   -0.5032   -1.1713 S   0  0  0  0  0  0  0  0  0  0  0  0
   -2.4882   -1.0459    0.3785 C   0  0  0  0  0  0  0  0  0  0  0  0
   -3.5378   -2.1492    0.1087 C   0  0  2  0  0  0  0  0  0  0  0  0
   -2.9582   -3.2050   -0.7338 N   0  0  0  0  0  0  0  0  0  0  0  0
   -2.1475   -4.3020   -0.2699 C   0  0  0  0  0  0  0  0  0  0  0  0
   -1.7227   -5.1251   -1.1225 O   0  0  0  0  0  0  0  0  0  0  0  0
   -1.8474   -4.5437    1.1957 C   0  0  1  0  0  0  0  0  0  0  0  0
   -2.7065   -5.6858    1.7541 C   0  0  0  0  0  0  0  0  0  0  0  0
   -0.4114   -4.7768    1.4167 N   0  0  0  0  0  0  0  0  0  0  0  0
    0.3246   -5.9296    0.9705 C   0  0  0  0  0  0  0  0  0  0  0  0
   -0.2679   -6.9042    0.4364 O   0  0  0  0  0  0  0  0  0  0  0  0
    1.8168   -5.9952    1.1829 C   0  0  1  0  0  0  0  0  0  0  0  0
    2.1485   -7.0662    2.2236 C   0  0  0  0  0  0  0  0  0  0  0  0
    2.5063   -6.2841   -0.0850 N   0  0  0  0  0  0  0  0  0  0  0  0
    3.9110   -6.0856   -0.3359 C   0  0  0  0  0  0  0  0  0  0  0  0
    4.3795   -6.4742   -1.4414 O   0  0  0  0  0  0  0  0  0  0  0  0
    4.8403   -5.3869    0.6368 C   0  0  1  0  0  0  0  0  0  0  0  0
    6.0304   -6.2811    1.0035 C   0  0  0  0  0  0  0  0  0  0  0  0
    5.2755   -4.0912    0.1065 N   0  0  0  0  0  0  0  0  0  0  0  0
    5.9285   -3.9230   -1.1604 C   0  0  0  0  0  0  0  0  0  0  0  0
    5.2904   -3.4029   -2.1163 O   0  0  0  0  0  0  0  0  0  0  0  0
    7.3911   -4.2378   -1.3288 C   0  0  1  0  0  0  0  0  0  0  0  0
    7.6029   -5.2830   -2.4269 C   0  0  0  0  0  0  0  0  0  0  0  0
    8.1216   -3.0130   -1.6679 N   0  0  0  0  0  0  0  0  0  0  0  0
    9.0960   -2.3888   -0.8172 C   0  0  0  0  0  0  0  0  0  0  0  0
   10.0318   -1.7370   -1.3473 O   0  0  0  0  0  0  0  0  0  0  0  0
    8.9712   -2.4275    0.6933 C   0  0  1  0  0  0  0  0  0  0  0  0
   10.1353   -1.7297    1.4163 C   0  0  0  0  0  0  0  0  0  0  0  0
    7.6811   -1.8791    1.1424 N   0  0  0  0  0  0  0  0  0  0  0  0
    7.3247   -0.4811    1.1643 C   0  0  0  0  0  0  0  0  0  0  0  0
    6.6192   -0.0566    2.1186 O   0  0  0  0  0  0  0  0  0  0  0  0
    7.6604    0.4471    0.0246 C   0  0  1  0  0  0  0  0  0  0  0  0
    6.5671    0.4198   -1.0541 C   0  0  0  0  0  0  0  0  0  0  0  0
    7.9334    1.8100    0.4972 N   0  0  0  0  0  0  0  0  0  0  0  0
    6.9353    2.8231    0.7094 C   0  0  0  0  0  0  0  0  0  0  0  0
    5.8122    2.5059    1.1781 O   0  0  0  0  0  0  0  0  0  0  0  0
    7.1703    4.2586    0.2972 C   0  0  1  0  0  0  0  0  0  0  0  0
    8.6270    4.5654   -0.0535 C   0  0  0  0  0  0  0  0  0  0  0  0
    6.3182    4.5675   -0.8495 N   0  0  0  0  0  0  0  0  0  0  0  0
    5.5041    5.7425   -0.8727 C   0  0  0  0  0  0  0  0  0  0  0  0
    6.0461    6.8762   -0.7712 O   0  0  0  0  0  0  0  0  0  0  0  0
    4.0004    5.6477   -0.9010 C   0  0  1  0  0  0  0  0  0  0  0  0
    3.4946    4.3592   -1.5528 C   0  0  0  0  0  0  0  0  0  0  0  0
    3.4945    5.7388    0.4683 N   0  0  0  0  0  0  0  0  0  0  0  0
    2.9214    6.9507    0.9676 C   0  0  0  0  0  0  0  0  0  0  0  0
    3.6415    7.7468    1.6278 O   0  0  0  0  0  0  0  0  0  0  0  0
   -4.8055   -1.6172   -0.5365 C   0  0  0  0  0  0  0  0  0  0  0  0
   -4.8556   -0.4158   -0.9184 O   0  0  0  0  0  0  0  0  0  0  0  0
   -5.9607   -2.4502   -0.7473 N   0  0  0  0  0  0  0  0  0  0  0  0
   -6.1072   -3.8216   -0.2447 C   0  0  2  0  0  0  0  0  0  0  0  0
   -6.7362   -4.7192   -1.3150 C   0  0  0  0  0  0  0  0  0  0  0  0
   -6.9037   -3.8466    1.0344 C   0  0  0  0  0  0  0  0  0  0  0  0
   -6.3160   -4.1212    2.1115 O   0  0  0  0  0  0  0  0  0  0  0  0
   -8.3244   -3.6564    1.0477 N   0  0  0  0  0  0  0  0  0  0  0  0
   -8.9447   -2.3575    0.7550 C   0  0  2  0  0  0  0  0  0  0  0  0
  -10.0544   -2.0746    1.7740 C   0  0  0  0  0  0  0  0  0  0  0  0
   -9.5098   -2.3572   -0.6419 C   0  0  0  0  0  0  0  0  0  0  0  0
  -10.1322   -3.3713   -1.0584 O   0  0  0  0  0  0  0  0  0  0  0  0
   -9.3412   -1.2343   -1.5221 N   0  0  0  0  0  0  0  0  0  0  0  0
   -9.5243    0.1531   -1.0818 C   0  0  2  0  0  0  0  0  0  0  0  0
  -10.8854    0.6648   -1.5584 C   0  0  0  0  0  0  0  0  0  0  0  0
   -8.4150    1.0378   -1.5981 C   0  0  0  0  0  0  0  0  0  0  0  0
   -7.5033    0.5653   -2.3292 O   0  0  0  0  0  0  0  0  0  0  0  0
   -8.4289    2.4439   -1.3216 N   0  0  0  0  0  0  0  0  0  0  0  0
   -7.8718    3.0372   -0.0958 C   0  0  1  0  0  0  0  0  0  0  0  0
   -8.2514    2.2524    1.1374 C   0  0  0  0  0  0  0  0  0  0  0  0
   -7.5190    1.0932    1.5493 N   0  0  0  0  0  0  0  0  0  0  0  0
   -9.2525    2.6204    1.8119 O   0  0  0  0  0  0  0  0  0  0  0  0
   -6.3474    3.2169   -0.2303 C   0  0  0  0  0  0  0  0  0  0  0  0
   -5.9793    4.6649   -1.2867 S   0  0  0  0  0  0  0  0  0  0  0  0
   -4.4445    4.0074   -2.0440 C   0  0  0  0  0  0  0  0  0  0  0  0
    2.9941    9.4608   -0.5283 H   0  0  0  0  0  0  0  0  0  0  0  0
    2.2184   10.3341   -1.8942 H   0  0  0  0  0  0  0  0  0  0  0  0
    1.3106   10.1106   -0.3569 H   0  0  0  0  0  0  0  0  0  0  0  0
    0.6561    6.4309   -1.0870 H   0  0  0  0  0  0  0  0  0  0  0  0
    1.2361    8.2479    1.1967 H   0  0  0  0  0  0  0  0  0  0  0  0
    0.9435    6.1388    2.5609 H   0  0  0  0  0  0  0  0  0  0  0  0
    0.7170    5.2213    1.0258 H   0  0  0  0  0  0  0  0  0  0  0  0
   -2.7524    5.3414    2.6561 H   0  0  0  0  0  0  0  0  0  0  0  0
   -1.1017    4.6892    2.8434 H   0  0  0  0  0  0  0  0  0  0  0  0
   -3.6223    5.4679    0.1316 H   0  0  0  0  0  0  0  0  0  0  0  0
   -2.8233    1.8495   -2.0370 H   0  0  0  0  0  0  0  0  0  0  0  0
   -0.5927    2.7624    1.5302 H   0  0  0  0  0  0  0  0  0  0  0  0
    0.0415    1.1966   -1.1492 H   0  0  0  0  0  0  0  0  0  0  0  0
   -0.2966    0.6049    0.4998 H   0  0  0  0  0  0  0  0  0  0  0  0
   -1.7092   -1.4359    1.0649 H   0  0  0  0  0  0  0  0  0  0  0  0
   -2.9723   -0.1806    0.8799 H   0  0  0  0  0  0  0  0  0  0  0  0
   -3.8586   -2.5667    1.0868 H   0  0  0  0  0  0  0  0  0  0  0  0
   -3.1135   -3.1416   -1.7659 H   0  0  0  0  0  0  0  0  0  0  0  0
   -2.1093   -3.6452    1.7843 H   0  0  0  0  0  0  0  0  0  0  0  0
   -2.6308   -6.6013    1.1290 H   0  0  0  0  0  0  0  0  0  0  0  0
   -2.3984   -5.9287    2.7905 H   0  0  0  0  0  0  0  0  0  0  0  0
   -3.7707   -5.3779    1.7698 H   0  0  0  0  0  0  0  0  0  0  0  0
    0.0989   -4.0550    1.9700 H   0  0  0  0  0  0  0  0  0  0  0  0
    2.1494   -5.0059    1.5582 H   0  0  0  0  0  0  0  0  0  0  0  0
    1.7739   -8.0616    1.8946 H   0  0  0  0  0  0  0  0  0  0  0  0
    1.6795   -6.8071    3.1973 H   0  0  0  0  0  0  0  0  0  0  0  0
    3.2427   -7.1411    2.3756 H   0  0  0  0  0  0  0  0  0  0  0  0
    1.9507   -6.6921   -0.8716 H   0  0  0  0  0  0  0  0  0  0  0  0
    4.3192   -5.1912    1.5941 H   0  0  0  0  0  0  0  0  0  0  0  0
    6.7331   -5.7284    1.6623 H   0  0  0  0  0  0  0  0  0  0  0  0
    5.6728   -7.1765    1.5579 H   0  0  0  0  0  0  0  0  0  0  0  0
    6.5709   -6.6309    0.1042 H   0  0  0  0  0  0  0  0  0  0  0  0
    4.8226   -3.2379    0.5169 H   0  0  0  0  0  0  0  0  0  0  0  0
    7.7838   -4.6638   -0.3856 H   0  0  0  0  0  0  0  0  0  0  0  0
    8.6890   -5.4763   -2.5539 H   0  0  0  0  0  0  0  0  0  0  0  0
    7.1031   -6.2364   -2.1631 H   0  0  0  0  0  0  0  0  0  0  0  0
    7.1943   -4.9203   -3.3951 H   0  0  0  0  0  0  0  0  0  0  0  0
    8.0061   -2.6287   -2.6356 H   0  0  0  0  0  0  0  0  0  0  0  0
    9.0264   -3.4920    1.0057 H   0  0  0  0  0  0  0  0  0  0  0  0
   10.1649   -0.6472    1.1889 H   0  0  0  0  0  0  0  0  0  0  0  0
   11.1042   -2.1866    1.1132 H   0  0  0  0  0  0  0  0  0  0  0  0
   10.0244   -1.8546    2.5137 H   0  0  0  0  0  0  0  0  0  0  0  0
    7.0704   -2.5252    1.6911 H   0  0  0  0  0  0  0  0  0  0  0  0
    8.5870    0.1052   -0.4652 H   0  0  0  0  0  0  0  0  0  0  0  0
    6.8345    1.1040   -1.8844 H   0  0  0  0  0  0  0  0  0  0  0  0
    5.5828    0.7186   -0.6392 H   0  0  0  0  0  0  0  0  0  0  0  0
    6.4717   -0.6071   -1.4652 H   0  0  0  0  0  0  0  0  0  0  0  0
    8.9161    2.0238    0.7947 H   0  0  0  0  0  0  0  0  0  0  0  0
    6.8860    4.9116    1.1576 H   0  0  0  0  0  0  0  0  0  0  0  0
    8.7284    5.6321   -0.3444 H   0  0  0  0  0  0  0  0  0  0  0  0
    8.9676    3.9345   -0.9020 H   0  0  0  0  0  0  0  0  0  0  0  0
    9.2810    4.3909    0.8279 H   0  0  0  0  0  0  0  0  0  0  0  0
    6.2421    3.8796   -1.6315 H   0  0  0  0  0  0  0  0  0  0  0  0
    3.6222    6.5033   -1.5013 H   0  0  0  0  0  0  0  0  0  0  0  0
    2.3825    4.3624   -1.5728 H   0  0  0  0  0  0  0  0  0  0  0  0
    3.8322    3.4678   -0.9851 H   0  0  0  0  0  0  0  0  0  0  0  0
    3.8613    4.2910   -2.5991 H   0  0  0  0  0  0  0  0  0  0  0  0
    3.8232    5.0322    1.1661 H   0  0  0  0  0  0  0  0  0  0  0  0
   -6.7747   -2.0193   -1.2329 H   0  0  0  0  0  0  0  0  0  0  0  0
   -5.1145   -4.2626   -0.0334 H   0  0  0  0  0  0  0  0  0  0  0  0
   -6.0576   -4.7873   -2.1927 H   0  0  0  0  0  0  0  0  0  0  0  0
   -7.7088   -4.3109   -1.6622 H   0  0  0  0  0  0  0  0  0  0  0  0
   -6.8934   -5.7433   -0.9163 H   0  0  0  0  0  0  0  0  0  0  0  0
   -8.8718   -4.3472    1.6084 H   0  0  0  0  0  0  0  0  0  0  0  0
   -8.1795   -1.5574    0.8500 H   0  0  0  0  0  0  0  0  0  0  0  0
   -9.6526   -2.1677    2.8041 H   0  0  0  0  0  0  0  0  0  0  0  0
  -10.4510   -1.0462    1.6509 H   0  0  0  0  0  0  0  0  0  0  0  0
  -10.8917   -2.7945    1.6507 H   0  0  0  0  0  0  0  0  0  0  0  0
   -9.3665   -1.4228   -2.5503 H   0  0  0  0  0  0  0  0  0  0  0  0
   -9.5184    0.2059    0.0182 H   0  0  0  0  0  0  0  0  0  0  0  0
  -10.9378    0.6556   -2.6688 H   0  0  0  0  0  0  0  0  0  0  0  0
  -11.0669    1.6976   -1.1957 H   0  0  0  0  0  0  0  0  0  0  0  0
  -11.6887    0.0100   -1.1630 H   0  0  0  0  0  0  0  0  0  0  0  0
   -8.4590    3.0711   -2.1588 H   0  0  0  0  0  0  0  0  0  0  0  0
   -8.3260    4.0487    0.0222 H   0  0  0  0  0  0  0  0  0  0  0  0
   -7.8228    0.5514    2.3885 H   0  0  0  0  0  0  0  0  0  0  0  0
   -6.6964    0.7498    1.0035 H   0  0  0  0  0  0  0  0  0  0  0  0
   -5.9013    2.2943   -0.6539 H   0  0  0  0  0  0  0  0  0  0  0  0
   -5.8922    3.4023    0.7668 H   0  0  0  0  0  0  0  0  0  0  0  0
   -4.0462    4.7709   -2.7462 H   0  0  0  0  0  0  0  0  0  0  0  0
   -4.7182    3.1189   -2.6519 H   0  0  0  0  0  0  0  0  0  0  0  0
  1  2  1  0
  2  3  2  0
  2  4  1  0
  4  5  1  0
  5  6  1  0
  6  7  1  0
  7  8  1  0
  8  9  1  0
  9 10  2  0
 10 11  1  0
 11 12  2  0
 12 13  1  0
 13 14  2  0
 13 15  1  0
 15 16  1  0
 16 17  1  0
 17 18  1  0
 18 19  1  0
 19 20  1  0
 20 21  2  0
 20 22  1  0
 22 23  1  0
 22 24  1  0
 24 25  1  0
 25 26  2  0
 25 27  1  0
 27 28  1  0
 27 29  1  0
 29 30  1  0
 30 31  2  0
 30 32  1  0
 32 33  1  0
 32 34  1  0
 34 35  1  0
 35 36  2  0
 35 37  1  0
 37 38  1  0
 37 39  1  0
 39 40  1  0
 40 41  2  0
 40 42  1  0
 42 43  1  0
 42 44  1  0
 44 45  1  0
 45 46  2  0
 45 47  1  0
 47 48  1  0
 47 49  1  0
 49 50  1  0
 50 51  2  0
 50 52  1  0
 52 53  1  0
 52 54  1  0
 54 55  1  0
 55 56  2  0
 55 57  1  0
 57 58  1  0
 57 59  1  0
 59 60  1  0
 60 61  2  0
 18 62  1  0
 62 63  2  0
 62 64  1  0
 64 65  1  0
 65 66  1  0
 65 67  1  0
 67 68  2  0
 67 69  1  0
 69 70  1  0
 70 71  1  0
 70 72  1  0
 72 73  2  0
 72 74  1  0
 74 75  1  0
 75 76  1  0
 75 77  1  0
 77 78  2  0
 77 79  1  0
 79 80  1  0
 80 81  1  0
 81 82  1  0
 81 83  2  0
 80 84  1  0
 84 85  1  0
 85 86  1  0
 60  5  1  0
 14  9  1  0
 86 11  1  0
  1 87  1  0
  1 88  1  0
  1 89  1  0
  4 90  1  0
  5 91  1  1
  6 92  1  0
  6 93  1  0
  8 94  1  0
  8 95  1  0
 10 96  1  0
 12 97  1  0
 14 98  1  0
 15 99  1  0
 15100  1  0
 17101  1  0
 17102  1  0
 18103  1  1
 19104  1  0
 22105  1  1
 23106  1  0
 23107  1  0
 23108  1  0
 24109  1  0
 27110  1  1
 28111  1  0
 28112  1  0
 28113  1  0
 29114  1  0
 32115  1  1
 33116  1  0
 33117  1  0
 33118  1  0
 34119  1  0
 37120  1  1
 38121  1  0
 38122  1  0
 38123  1  0
 39124  1  0
 42125  1  1
 43126  1  0
 43127  1  0
 43128  1  0
 44129  1  0
 47130  1  6
 48131  1  0
 48132  1  0
 48133  1  0
 49134  1  0
 52135  1  1
 53136  1  0
 53137  1  0
 53138  1  0
 54139  1  0
 57140  1  6
 58141  1  0
 58142  1  0
 58143  1  0
 59144  1  0
 64145  1  0
 65146  1  1
 66147  1  0
 66148  1  0
 66149  1  0
 69150  1  0
 70151  1  6
 71152  1  0
 71153  1  0
 71154  1  0
 74155  1  0
 75156  1  1
 76157  1  0
 76158  1  0
 76159  1  0
 79160  1  0
 80161  1  1
 82162  1  0
 82163  1  0
 84164  1  0
 84165  1  0
 86166  1  0
 86167  1  0
M  END
