
     RDKit          3D

187189  0  0  0  0  0  0  0  0999 V2000
   -1.6090   -8.1315   -0.1845 C   0  0  0  0  0  0  0  0  0  0  0  0
   -2.1834   -8.0116    1.1989 C   0  0  0  0  0  0  0  0  0  0  0  0
   -2.0518   -8.9827    1.9879 O   0  0  0  0  0  0  0  0  0  0  0  0
   -2.9589   -6.8740    1.6216 N   0  0  0  0  0  0  0  0  0  0  0  0
   -3.0378   -5.5618    0.9619 C   0  0  1  0  0  0  0  0  0  0  0  0
   -1.7268   -4.7797    1.1696 C   0  0  0  0  0  0  0  0  0  0  0  0
   -1.9682   -3.0115    0.7669 S   0  0  0  0  0  0  0  0  0  0  0  0
   -0.3521   -2.4313    1.3909 C   0  0  0  0  0  0  0  0  0  0  0  0
    0.5916   -2.2117    0.2459 C   0  0  0  0  0  0  0  0  0  0  0  0
    1.4009   -3.2583   -0.2153 C   0  0  0  0  0  0  0  0  0  0  0  0
    2.3465   -3.0359   -1.2362 C   0  0  0  0  0  0  0  0  0  0  0  0
    2.4379   -1.7608   -1.8151 C   0  0  0  0  0  0  0  0  0  0  0  0
    1.6154   -0.7149   -1.3737 C   0  0  0  0  0  0  0  0  0  0  0  0
    0.6907   -0.9521   -0.3516 C   0  0  0  0  0  0  0  0  0  0  0  0
    1.7831    0.6682   -1.9295 C   0  0  0  0  0  0  0  0  0  0  0  0
    3.2401    1.4490   -1.1462 S   0  0  0  0  0  0  0  0  0  0  0  0
    2.4574    3.0264   -0.6347 C   0  0  0  0  0  0  0  0  0  0  0  0
    1.8877    2.9423    0.8014 C   0  0  2  0  0  0  0  0  0  0  0  0
    0.5036    2.4454    0.8379 N   0  0  0  0  0  0  0  0  0  0  0  0
   -0.6105    2.8466    0.0172 C   0  0  0  0  0  0  0  0  0  0  0  0
   -1.5350    2.0136   -0.1815 O   0  0  0  0  0  0  0  0  0  0  0  0
   -0.7885    4.2454   -0.5199 C   0  0  1  0  0  0  0  0  0  0  0  0
   -1.0335    4.2245   -2.0299 C   0  0  0  0  0  0  0  0  0  0  0  0
   -1.9429    4.8573    0.1411 N   0  0  0  0  0  0  0  0  0  0  0  0
   -1.8233    5.9886    1.0038 C   0  0  0  0  0  0  0  0  0  0  0  0
   -1.6397    5.8088    2.2359 O   0  0  0  0  0  0  0  0  0  0  0  0
   -1.9595    7.3902    0.4674 C   0  0  1  0  0  0  0  0  0  0  0  0
   -0.5817    8.0527    0.3974 C   0  0  0  0  0  0  0  0  0  0  0  0
   -2.5914    7.3873   -0.8615 N   0  0  0  0  0  0  0  0  0  0  0  0
   -3.9845    7.1283   -1.1031 C   0  0  0  0  0  0  0  0  0  0  0  0
   -4.4234    7.2403   -2.2795 O   0  0  0  0  0  0  0  0  0  0  0  0
   -4.9604    6.8230    0.0158 C   0  0  1  0  0  0  0  0  0  0  0  0
   -5.6975    8.1033    0.4163 C   0  0  0  0  0  0  0  0  0  0  0  0
   -5.9265    5.7957   -0.3912 N   0  0  0  0  0  0  0  0  0  0  0  0
   -6.8243    5.1865    0.5512 C   0  0  0  0  0  0  0  0  0  0  0  0
   -6.5140    5.1419    1.7742 O   0  0  0  0  0  0  0  0  0  0  0  0
   -8.1280    4.5769    0.1064 C   0  0  1  0  0  0  0  0  0  0  0  0
   -8.8375    5.4579   -0.9295 C   0  0  0  0  0  0  0  0  0  0  0  0
   -7.9017    3.2343   -0.4304 N   0  0  0  0  0  0  0  0  0  0  0  0
   -8.2068    2.0682    0.3442 C   0  0  0  0  0  0  0  0  0  0  0  0
   -7.3266    1.5920    1.1126 O   0  0  0  0  0  0  0  0  0  0  0  0
   -9.5223    1.3494    0.1900 C   0  0  1  0  0  0  0  0  0  0  0  0
  -10.6855    2.3346    0.0400 C   0  0  0  0  0  0  0  0  0  0  0  0
   -9.4719    0.4717   -0.9843 N   0  0  0  0  0  0  0  0  0  0  0  0
  -10.1954   -0.7669   -1.1110 C   0  0  0  0  0  0  0  0  0  0  0  0
  -10.5208   -1.1576   -2.2653 O   0  0  0  0  0  0  0  0  0  0  0  0
  -10.5987   -1.6052    0.0842 C   0  0  1  0  0  0  0  0  0  0  0  0
  -12.0295   -1.2572    0.5134 C   0  0  0  0  0  0  0  0  0  0  0  0
  -10.5124   -3.0345   -0.2469 N   0  0  0  0  0  0  0  0  0  0  0  0
   -9.3168   -3.7310   -0.6447 C   0  0  0  0  0  0  0  0  0  0  0  0
   -9.4523   -4.7588   -1.3637 O   0  0  0  0  0  0  0  0  0  0  0  0
   -7.9056   -3.2634   -0.3009 C   0  0  1  0  0  0  0  0  0  0  0  0
   -7.7359   -2.7769    1.1491 C   0  0  0  0  0  0  0  0  0  0  0  0
   -6.9370   -4.3414   -0.5609 N   0  0  0  0  0  0  0  0  0  0  0  0
   -6.9437   -5.5862    0.1755 C   0  0  0  0  0  0  0  0  0  0  0  0
   -7.8894   -5.8334    0.9731 O   0  0  0  0  0  0  0  0  0  0  0  0
   -5.8134   -6.5856    0.0717 C   0  0  1  0  0  0  0  0  0  0  0  0
   -6.3405   -7.9569   -0.3630 C   0  0  0  0  0  0  0  0  0  0  0  0
   -4.7737   -6.1415   -0.8640 N   0  0  0  0  0  0  0  0  0  0  0  0
   -3.4644   -5.6800   -0.4880 C   0  0  0  0  0  0  0  0  0  0  0  0
   -2.6569   -5.3570   -1.4068 O   0  0  0  0  0  0  0  0  0  0  0  0
    2.0598    4.2380    1.5725 C   0  0  0  0  0  0  0  0  0  0  0  0
    1.0479    4.8740    1.9685 O   0  0  0  0  0  0  0  0  0  0  0  0
    3.3655    4.7558    1.8951 N   0  0  0  0  0  0  0  0  0  0  0  0
    4.5465    3.8993    2.0752 C   0  0  2  0  0  0  0  0  0  0  0  0
    4.5264    3.2853    3.4780 C   0  0  0  0  0  0  0  0  0  0  0  0
    5.8223    4.6905    1.8814 C   0  0  0  0  0  0  0  0  0  0  0  0
    6.0200    5.7080    2.5976 O   0  0  0  0  0  0  0  0  0  0  0  0
    6.8530    4.2979    0.9527 N   0  0  0  0  0  0  0  0  0  0  0  0
    6.7145    3.2691   -0.0884 C   0  0  2  0  0  0  0  0  0  0  0  0
    6.9351    1.8743    0.5167 C   0  0  0  0  0  0  0  0  0  0  0  0
    7.6194    3.5997   -1.2653 C   0  0  0  0  0  0  0  0  0  0  0  0
    7.5067    4.7416   -1.7900 O   0  0  0  0  0  0  0  0  0  0  0  0
    8.5116    2.6565   -1.8844 N   0  0  0  0  0  0  0  0  0  0  0  0
    9.6506    2.0132   -1.2090 C   0  0  2  0  0  0  0  0  0  0  0  0
   10.4691    3.0382   -0.4172 C   0  0  0  0  0  0  0  0  0  0  0  0
   10.5378    1.3232   -2.2282 C   0  0  0  0  0  0  0  0  0  0  0  0
   11.1016    2.0332   -3.1055 O   0  0  0  0  0  0  0  0  0  0  0  0
   10.7142   -0.1063   -2.2882 N   0  0  0  0  0  0  0  0  0  0  0  0
   10.6886   -1.0245   -1.1384 C   0  0  2  0  0  0  0  0  0  0  0  0
   12.1192   -1.2716   -0.6590 C   0  0  0  0  0  0  0  0  0  0  0  0
   10.0330   -2.3378   -1.5175 C   0  0  0  0  0  0  0  0  0  0  0  0
    9.7516   -2.5681   -2.7260 O   0  0  0  0  0  0  0  0  0  0  0  0
    9.7778   -3.3660   -0.5479 N   0  0  0  0  0  0  0  0  0  0  0  0
    9.3007   -3.1062    0.8168 C   0  0  2  0  0  0  0  0  0  0  0  0
   10.0072   -4.0442    1.8002 C   0  0  0  0  0  0  0  0  0  0  0  0
    7.8050   -3.2734    0.8508 C   0  0  0  0  0  0  0  0  0  0  0  0
    7.0623   -2.2581    0.9643 O   0  0  0  0  0  0  0  0  0  0  0  0
    7.2184   -4.5704    0.7193 N   0  0  0  0  0  0  0  0  0  0  0  0
    6.1843   -4.8594   -0.2748 C   0  0  1  0  0  0  0  0  0  0  0  0
    6.4535   -6.2171   -0.8756 C   0  0  0  0  0  0  0  0  0  0  0  0
    6.3947   -7.3995   -0.0754 N   0  0  0  0  0  0  0  0  0  0  0  0
    6.7257   -6.3138   -2.1008 O   0  0  0  0  0  0  0  0  0  0  0  0
    4.7881   -4.7747    0.3674 C   0  0  0  0  0  0  0  0  0  0  0  0
    3.4725   -5.5513   -0.6582 S   0  0  0  0  0  0  0  0  0  0  0  0
    3.1953   -4.1488   -1.8064 C   0  0  0  0  0  0  0  0  0  0  0  0
   -1.0220   -7.2352   -0.4387 H   0  0  0  0  0  0  0  0  0  0  0  0
   -2.4347   -8.2640   -0.9130 H   0  0  0  0  0  0  0  0  0  0  0  0
   -0.9394   -9.0123   -0.2447 H   0  0  0  0  0  0  0  0  0  0  0  0
   -3.4687   -6.9666    2.5335 H   0  0  0  0  0  0  0  0  0  0  0  0
   -3.8247   -4.9693    1.4829 H   0  0  0  0  0  0  0  0  0  0  0  0
   -1.4344   -4.8701    2.2386 H   0  0  0  0  0  0  0  0  0  0  0  0
   -0.9074   -5.1951    0.5498 H   0  0  0  0  0  0  0  0  0  0  0  0
    0.0871   -3.1298    2.1339 H   0  0  0  0  0  0  0  0  0  0  0  0
   -0.5206   -1.4748    1.9303 H   0  0  0  0  0  0  0  0  0  0  0  0
    1.2922   -4.2364    0.2306 H   0  0  0  0  0  0  0  0  0  0  0  0
    3.1517   -1.5775   -2.6093 H   0  0  0  0  0  0  0  0  0  0  0  0
    0.0555   -0.1518   -0.0077 H   0  0  0  0  0  0  0  0  0  0  0  0
    1.9623    0.6171   -3.0224 H   0  0  0  0  0  0  0  0  0  0  0  0
    0.8560    1.2557   -1.7764 H   0  0  0  0  0  0  0  0  0  0  0  0
    3.2603    3.7920   -0.6712 H   0  0  0  0  0  0  0  0  0  0  0  0
    1.7054    3.3521   -1.3725 H   0  0  0  0  0  0  0  0  0  0  0  0
    2.4889    2.1903    1.3549 H   0  0  0  0  0  0  0  0  0  0  0  0
    0.3269    1.6318    1.4743 H   0  0  0  0  0  0  0  0  0  0  0  0
    0.1192    4.8547   -0.3322 H   0  0  0  0  0  0  0  0  0  0  0  0
   -1.1408    5.2650   -2.4055 H   0  0  0  0  0  0  0  0  0  0  0  0
   -1.9651    3.6650   -2.2685 H   0  0  0  0  0  0  0  0  0  0  0  0
   -0.1875    3.7475   -2.5650 H   0  0  0  0  0  0  0  0  0  0  0  0
   -2.8928    4.4402    0.0064 H   0  0  0  0  0  0  0  0  0  0  0  0
   -2.5865    7.9892    1.1612 H   0  0  0  0  0  0  0  0  0  0  0  0
   -0.6800    9.0876    0.0057 H   0  0  0  0  0  0  0  0  0  0  0  0
   -0.1365    8.1120    1.4129 H   0  0  0  0  0  0  0  0  0  0  0  0
    0.0992    7.4779   -0.2670 H   0  0  0  0  0  0  0  0  0  0  0  0
   -2.0009    7.6044   -1.6964 H   0  0  0  0  0  0  0  0  0  0  0  0
   -4.4158    6.4455    0.9039 H   0  0  0  0  0  0  0  0  0  0  0  0
   -6.3190    8.4773   -0.4283 H   0  0  0  0  0  0  0  0  0  0  0  0
   -4.9706    8.8908    0.7111 H   0  0  0  0  0  0  0  0  0  0  0  0
   -6.3623    7.9087    1.2865 H   0  0  0  0  0  0  0  0  0  0  0  0
   -6.0505    5.5701   -1.4037 H   0  0  0  0  0  0  0  0  0  0  0  0
   -8.7939    4.5145    0.9959 H   0  0  0  0  0  0  0  0  0  0  0  0
   -8.3176    5.4297   -1.9084 H   0  0  0  0  0  0  0  0  0  0  0  0
   -9.8780    5.1093   -1.0780 H   0  0  0  0  0  0  0  0  0  0  0  0
   -8.8791    6.5091   -0.5703 H   0  0  0  0  0  0  0  0  0  0  0  0
   -7.3061    3.1200   -1.2844 H   0  0  0  0  0  0  0  0  0  0  0  0
   -9.6984    0.7619    1.1148 H   0  0  0  0  0  0  0  0  0  0  0  0
  -10.7248    3.0279    0.9044 H   0  0  0  0  0  0  0  0  0  0  0  0
  -11.6468    1.7883   -0.0091 H   0  0  0  0  0  0  0  0  0  0  0  0
  -10.5825    2.9087   -0.9010 H   0  0  0  0  0  0  0  0  0  0  0  0
   -9.1114    0.8932   -1.8717 H   0  0  0  0  0  0  0  0  0  0  0  0
   -9.9548   -1.4011    0.9542 H   0  0  0  0  0  0  0  0  0  0  0  0
  -12.0683   -0.2386    0.9453 H   0  0  0  0  0  0  0  0  0  0  0  0
  -12.7307   -1.3174   -0.3453 H   0  0  0  0  0  0  0  0  0  0  0  0
  -12.3710   -1.9628    1.3011 H   0  0  0  0  0  0  0  0  0  0  0  0
  -11.4055   -3.5677   -0.3582 H   0  0  0  0  0  0  0  0  0  0  0  0
   -7.6640   -2.4124   -0.9793 H   0  0  0  0  0  0  0  0  0  0  0  0
   -8.4777   -3.2473    1.8283 H   0  0  0  0  0  0  0  0  0  0  0  0
   -6.7199   -3.0205    1.5276 H   0  0  0  0  0  0  0  0  0  0  0  0
   -7.8125   -1.6720    1.2035 H   0  0  0  0  0  0  0  0  0  0  0  0
   -6.1348   -4.1079   -1.1864 H   0  0  0  0  0  0  0  0  0  0  0  0
   -5.4038   -6.7053    1.0925 H   0  0  0  0  0  0  0  0  0  0  0  0
   -6.8632   -7.8799   -1.3386 H   0  0  0  0  0  0  0  0  0  0  0  0
   -7.0460   -8.3574    0.3952 H   0  0  0  0  0  0  0  0  0  0  0  0
   -5.4933   -8.6673   -0.4627 H   0  0  0  0  0  0  0  0  0  0  0  0
   -4.9990   -6.1610   -1.8856 H   0  0  0  0  0  0  0  0  0  0  0  0
    3.3993    5.7189    2.3030 H   0  0  0  0  0  0  0  0  0  0  0  0
    4.5098    3.0746    1.3533 H   0  0  0  0  0  0  0  0  0  0  0  0
    5.4351    2.6651    3.6407 H   0  0  0  0  0  0  0  0  0  0  0  0
    3.6348    2.6339    3.5923 H   0  0  0  0  0  0  0  0  0  0  0  0
    4.4820    4.0815    4.2528 H   0  0  0  0  0  0  0  0  0  0  0  0
    7.7508    4.8332    0.9935 H   0  0  0  0  0  0  0  0  0  0  0  0
    5.6862    3.3083   -0.5024 H   0  0  0  0  0  0  0  0  0  0  0  0
    7.8694    1.8516    1.1164 H   0  0  0  0  0  0  0  0  0  0  0  0
    6.9550    1.1019   -0.2826 H   0  0  0  0  0  0  0  0  0  0  0  0
    6.1142    1.6025    1.2066 H   0  0  0  0  0  0  0  0  0  0  0  0
    8.4861    2.6378   -2.9297 H   0  0  0  0  0  0  0  0  0  0  0  0
    9.2577    1.2762   -0.5048 H   0  0  0  0  0  0  0  0  0  0  0  0
   10.7999    3.8694   -1.0761 H   0  0  0  0  0  0  0  0  0  0  0  0
    9.8611    3.4594    0.4128 H   0  0  0  0  0  0  0  0  0  0  0  0
   11.3646    2.5538    0.0279 H   0  0  0  0  0  0  0  0  0  0  0  0
   11.1632   -0.4666   -3.1603 H   0  0  0  0  0  0  0  0  0  0  0  0
   10.1280   -0.5818   -0.3032 H   0  0  0  0  0  0  0  0  0  0  0  0
   12.7179   -1.7534   -1.4621 H   0  0  0  0  0  0  0  0  0  0  0  0
   12.5985   -0.3079   -0.3843 H   0  0  0  0  0  0  0  0  0  0  0  0
   12.1219   -1.9299    0.2343 H   0  0  0  0  0  0  0  0  0  0  0  0
    9.6566   -4.3396   -0.9140 H   0  0  0  0  0  0  0  0  0  0  0  0
    9.5466   -2.0724    1.1350 H   0  0  0  0  0  0  0  0  0  0  0  0
    9.6167   -3.8917    2.8312 H   0  0  0  0  0  0  0  0  0  0  0  0
   11.0969   -3.8220    1.8019 H   0  0  0  0  0  0  0  0  0  0  0  0
    9.8765   -5.1081    1.5056 H   0  0  0  0  0  0  0  0  0  0  0  0
    7.5809   -5.3450    1.3197 H   0  0  0  0  0  0  0  0  0  0  0  0
    6.2441   -4.1024   -1.0856 H   0  0  0  0  0  0  0  0  0  0  0  0
    6.2018   -7.3472    0.9479 H   0  0  0  0  0  0  0  0  0  0  0  0
    6.5506   -8.3364   -0.5071 H   0  0  0  0  0  0  0  0  0  0  0  0
    4.5320   -3.7109    0.5699 H   0  0  0  0  0  0  0  0  0  0  0  0
    4.7962   -5.2997    1.3455 H   0  0  0  0  0  0  0  0  0  0  0  0
    2.6823   -4.5485   -2.7083 H   0  0  0  0  0  0  0  0  0  0  0  0
    4.1780   -3.7468   -2.1424 H   0  0  0  0  0  0  0  0  0  0  0  0
  1  2  1  0
  2  3  2  0
  2  4  1  0
  4  5  1  0
  5  6  1  0
  6  7  1  0
  7  8  1  0
  8  9  1  0
  9 10  2  0
 10 11  1  0
 11 12  2  0
 12 13  1  0
 13 14  2  0
 13 15  1  0
 15 16  1  0
 16 17  1  0
 17 18  1  0
 18 19  1  0
 19 20  1  0
 20 21  2  0
 20 22  1  0
 22 23  1  0
 22 24  1  0
 24 25  1  0
 25 26  2  0
 25 27  1  0
 27 28  1  0
 27 29  1  0
 29 30  1  0
 30 31  2  0
 30 32  1  0
 32 33  1  0
 32 34  1  0
 34 35  1  0
 35 36  2  0
 35 37  1  0
 37 38  1  0
 37 39  1  0
 39 40  1  0
 40 41  2  0
 40 42  1  0
 42 43  1  0
 42 44  1  0
 44 45  1  0
 45 46  2  0
 45 47  1  0
 47 48  1  0
 47 49  1  0
 49 50  1  0
 50 51  2  0
 50 52  1  0
 52 53  1  0
 52 54  1  0
 54 55  1  0
 55 56  2  0
 55 57  1  0
 57 58  1  0
 57 59  1  0
 59 60  1  0
 60 61  2  0
 18 62  1  0
 62 63  2  0
 62 64  1  0
 64 65  1  0
 65 66  1  0
 65 67  1  0
 67 68  2  0
 67 69  1  0
 69 70  1  0
 70 71  1  0
 70 72  1  0
 72 73  2  0
 72 74  1  0
 74 75  1  0
 75 76  1  0
 75 77  1  0
 77 78  2  0
 77 79  1  0
 79 80  1  0
 80 81  1  0
 80 82  1  0
 82 83  2  0
 82 84  1  0
 84 85  1  0
 85 86  1  0
 85 87  1  0
 87 88  2  0
 87 89  1  0
 89 90  1  0
 90 91  1  0
 91 92  1  0
 91 93  2  0
 90 94  1  0
 94 95  1  0
 95 96  1  0
 60  5  1  0
 14  9  1  0
 96 11  1  0
  1 97  1  0
  1 98  1  0
  1 99  1  0
  4100  1  0
  5101  1  1
  6102  1  0
  6103  1  0
  8104  1  0
  8105  1  0
 10106  1  0
 12107  1  0
 14108  1  0
 15109  1  0
 15110  1  0
 17111  1  0
 17112  1  0
 18113  1  1
 19114  1  0
 22115  1  6
 23116  1  0
 23117  1  0
 23118  1  0
 24119  1  0
 27120  1  1
 28121  1  0
 28122  1  0
 28123  1  0
 29124  1  0
 32125  1  1
 33126  1  0
 33127  1  0
 33128  1  0
 34129  1  0
 37130  1  1
 38131  1  0
 38132  1  0
 38133  1  0
 39134  1  0
 42135  1  1
 43136  1  0
 43137  1  0
 43138  1  0
 44139  1  0
 47140  1  1
 48141  1  0
 48142  1  0
 48143  1  0
 49144  1  0
 52145  1  6
 53146  1  0
 53147  1  0
 53148  1  0
 54149  1  0
 57150  1  1
 58151  1  0
 58152  1  0
 58153  1  0
 59154  1  0
 64155  1  0
 65156  1  6
 66157  1  0
 66158  1  0
 66159  1  0
 69160  1  0
 70161  1  6
 71162  1  0
 71163  1  0
 71164  1  0
 74165  1  0
 75166  1  1
 76167  1  0
 76168  1  0
 76169  1  0
 79170  1  0
 80171  1  1
 81172  1  0
 81173  1  0
 81174  1  0
 84175  1  0
 85176  1  1
 86177  1  0
 86178  1  0
 86179  1  0
 89180  1  0
 90181  1  6
 92182  1  0
 92183  1  0
 94184  1  0
 94185  1  0
 96186  1  0
 96187  1  0
M  END
