
     RDKit          3D

167169  0  0  0  0  0  0  0  0999 V2000
    2.4933   -8.6514   -2.3986 C   0  0  0  0  0  0  0  0  0  0  0  0
    2.2756   -9.1799   -1.0111 C   0  0  0  0  0  0  0  0  0  0  0  0
    2.1148  -10.4169   -0.8457 O   0  0  0  0  0  0  0  0  0  0  0  0
    2.2289   -8.3049    0.1277 N   0  0  0  0  0  0  0  0  0  0  0  0
    2.1139   -6.8372    0.0553 C   0  0  1  0  0  0  0  0  0  0  0  0
    0.8384   -6.3848    0.7703 C   0  0  0  0  0  0  0  0  0  0  0  0
   -0.6295   -6.9985   -0.1279 S   0  0  0  0  0  0  0  0  0  0  0  0
   -0.9717   -5.4543   -1.0460 C   0  0  0  0  0  0  0  0  0  0  0  0
   -1.7856   -4.5245   -0.1882 C   0  0  0  0  0  0  0  0  0  0  0  0
   -3.0454   -4.9373    0.2578 C   0  0  0  0  0  0  0  0  0  0  0  0
   -3.8417   -4.0848    1.0326 C   0  0  0  0  0  0  0  0  0  0  0  0
   -3.3430   -2.8289    1.4182 C   0  0  0  0  0  0  0  0  0  0  0  0
   -2.0739   -2.3954    0.9800 C   0  0  0  0  0  0  0  0  0  0  0  0
   -1.3070   -3.2502    0.1659 C   0  0  0  0  0  0  0  0  0  0  0  0
   -1.4480   -1.1112    1.4734 C   0  0  0  0  0  0  0  0  0  0  0  0
   -2.6582    0.1660    1.9877 S   0  0  0  0  0  0  0  0  0  0  0  0
   -2.8254    0.9643    0.3531 C   0  0  0  0  0  0  0  0  0  0  0  0
   -3.8976    2.0702    0.3855 C   0  0  2  0  0  0  0  0  0  0  0  0
   -3.6119    3.0104    1.4806 N   0  0  0  0  0  0  0  0  0  0  0  0
   -2.6798    4.1024    1.4098 C   0  0  0  0  0  0  0  0  0  0  0  0
   -2.4737    4.7855    2.4484 O   0  0  0  0  0  0  0  0  0  0  0  0
   -1.9874    4.5031    0.1291 C   0  0  1  0  0  0  0  0  0  0  0  0
   -2.8157    5.5637   -0.6097 C   0  0  0  0  0  0  0  0  0  0  0  0
   -0.6030    4.9228    0.4089 N   0  0  0  0  0  0  0  0  0  0  0  0
   -0.1037    6.2709    0.3477 C   0  0  0  0  0  0  0  0  0  0  0  0
   -0.8518    7.2409    0.6353 O   0  0  0  0  0  0  0  0  0  0  0  0
    1.2923    6.5136   -0.1866 C   0  0  1  0  0  0  0  0  0  0  0  0
    1.2060    6.6714   -1.7083 C   0  0  0  0  0  0  0  0  0  0  0  0
    1.9043    7.7049    0.4291 N   0  0  0  0  0  0  0  0  0  0  0  0
    3.2580    8.1435    0.2076 C   0  0  0  0  0  0  0  0  0  0  0  0
    3.5436    9.3408    0.4725 O   0  0  0  0  0  0  0  0  0  0  0  0
    4.3627    7.2226   -0.2853 C   0  0  1  0  0  0  0  0  0  0  0  0
    4.9778    7.8044   -1.5644 C   0  0  0  0  0  0  0  0  0  0  0  0
    5.3915    7.0914    0.7604 N   0  0  0  0  0  0  0  0  0  0  0  0
    6.3468    6.0172    0.8754 C   0  0  0  0  0  0  0  0  0  0  0  0
    7.0661    5.9632    1.9100 O   0  0  0  0  0  0  0  0  0  0  0  0
    6.5721    4.9810   -0.2036 C   0  0  1  0  0  0  0  0  0  0  0  0
    7.8616    5.3188   -0.9693 C   0  0  0  0  0  0  0  0  0  0  0  0
    6.5997    3.6365    0.3977 N   0  0  0  0  0  0  0  0  0  0  0  0
    7.7919    2.8545    0.5625 C   0  0  0  0  0  0  0  0  0  0  0  0
    8.4354    2.9409    1.6414 O   0  0  0  0  0  0  0  0  0  0  0  0
    8.2486    1.9241   -0.5323 C   0  0  1  0  0  0  0  0  0  0  0  0
    9.7281    2.1448   -0.8849 C   0  0  0  0  0  0  0  0  0  0  0  0
    7.9847    0.5176   -0.1935 N   0  0  0  0  0  0  0  0  0  0  0  0
    8.7938   -0.2442    0.7158 C   0  0  0  0  0  0  0  0  0  0  0  0
    9.2475    0.2978    1.7611 O   0  0  0  0  0  0  0  0  0  0  0  0
    9.1303   -1.6843    0.4145 C   0  0  1  0  0  0  0  0  0  0  0  0
   10.6498   -1.8675    0.4019 C   0  0  0  0  0  0  0  0  0  0  0  0
    8.5201   -2.5719    1.4150 N   0  0  0  0  0  0  0  0  0  0  0  0
    8.2620   -3.9727    1.2047 C   0  0  0  0  0  0  0  0  0  0  0  0
    8.0703   -4.7072    2.2142 O   0  0  0  0  0  0  0  0  0  0  0  0
    8.2150   -4.5824   -0.1821 C   0  0  1  0  0  0  0  0  0  0  0  0
    8.0670   -6.1112   -0.1821 C   0  0  0  0  0  0  0  0  0  0  0  0
    7.1656   -3.9653   -1.0122 N   0  0  0  0  0  0  0  0  0  0  0  0
    5.8316   -3.6085   -0.6096 C   0  0  0  0  0  0  0  0  0  0  0  0
    5.2345   -2.7089   -1.2598 O   0  0  0  0  0  0  0  0  0  0  0  0
    5.0710   -4.3356    0.4812 C   0  0  1  0  0  0  0  0  0  0  0  0
    4.3446   -3.3190    1.3783 C   0  0  0  0  0  0  0  0  0  0  0  0
    4.1068   -5.2635   -0.1171 N   0  0  0  0  0  0  0  0  0  0  0  0
    3.3245   -6.1814    0.6663 C   0  0  0  0  0  0  0  0  0  0  0  0
    3.5970   -6.3758    1.8817 O   0  0  0  0  0  0  0  0  0  0  0  0
   -5.3026    1.5075    0.5275 C   0  0  0  0  0  0  0  0  0  0  0  0
   -5.5171    0.2890    0.2721 O   0  0  0  0  0  0  0  0  0  0  0  0
   -6.4117    2.3365    0.9141 N   0  0  0  0  0  0  0  0  0  0  0  0
   -6.5323    3.7560    0.5581 C   0  0  2  0  0  0  0  0  0  0  0  0
   -6.7427    4.5838    1.8327 C   0  0  0  0  0  0  0  0  0  0  0  0
   -7.6777    3.9705   -0.4040 C   0  0  0  0  0  0  0  0  0  0  0  0
   -8.0140    5.1467   -0.7184 O   0  0  0  0  0  0  0  0  0  0  0  0
   -8.3302    2.8570   -1.0304 N   0  0  0  0  0  0  0  0  0  0  0  0
   -9.7396    2.5189   -0.8101 C   0  0  2  0  0  0  0  0  0  0  0  0
  -10.6660    3.6704   -1.2198 C   0  0  0  0  0  0  0  0  0  0  0  0
   -9.9494    2.0950    0.6302 C   0  0  0  0  0  0  0  0  0  0  0  0
  -10.3063    2.9536    1.4815 O   0  0  0  0  0  0  0  0  0  0  0  0
   -9.7110    0.7463    1.0727 N   0  0  0  0  0  0  0  0  0  0  0  0
   -9.2898   -0.3524    0.1930 C   0  0  2  0  0  0  0  0  0  0  0  0
  -10.5332   -1.0473   -0.3607 C   0  0  0  0  0  0  0  0  0  0  0  0
   -8.3973   -1.3251    0.9404 C   0  0  0  0  0  0  0  0  0  0  0  0
   -7.7364   -0.9257    1.9431 O   0  0  0  0  0  0  0  0  0  0  0  0
   -8.2406   -2.6809    0.5032 N   0  0  0  0  0  0  0  0  0  0  0  0
   -7.7878   -3.0054   -0.8547 C   0  0  2  0  0  0  0  0  0  0  0  0
   -8.7393   -3.9604   -1.5346 C   0  0  0  0  0  0  0  0  0  0  0  0
   -9.3631   -5.0374   -0.8284 N   0  0  0  0  0  0  0  0  0  0  0  0
   -8.9890   -3.7987   -2.7585 O   0  0  0  0  0  0  0  0  0  0  0  0
   -6.3501   -3.5507   -0.8409 C   0  0  0  0  0  0  0  0  0  0  0  0
   -6.2077   -5.1417    0.0680 S   0  0  0  0  0  0  0  0  0  0  0  0
   -5.2125   -4.5309    1.4765 C   0  0  0  0  0  0  0  0  0  0  0  0
    3.4190   -8.0357   -2.4270 H   0  0  0  0  0  0  0  0  0  0  0  0
    2.6076   -9.4970   -3.1172 H   0  0  0  0  0  0  0  0  0  0  0  0
    1.6245   -8.0458   -2.7118 H   0  0  0  0  0  0  0  0  0  0  0  0
    2.1989   -8.7509    1.0752 H   0  0  0  0  0  0  0  0  0  0  0  0
    2.0346   -6.5090   -1.0008 H   0  0  0  0  0  0  0  0  0  0  0  0
    0.8177   -5.2793    0.8592 H   0  0  0  0  0  0  0  0  0  0  0  0
    0.8127   -6.7970    1.8009 H   0  0  0  0  0  0  0  0  0  0  0  0
   -0.0264   -4.9872   -1.3917 H   0  0  0  0  0  0  0  0  0  0  0  0
   -1.5632   -5.7063   -1.9521 H   0  0  0  0  0  0  0  0  0  0  0  0
   -3.4132   -5.9269   -0.0093 H   0  0  0  0  0  0  0  0  0  0  0  0
   -3.9400   -2.2053    2.0689 H   0  0  0  0  0  0  0  0  0  0  0  0
   -0.3230   -2.9378   -0.1618 H   0  0  0  0  0  0  0  0  0  0  0  0
   -0.7608   -0.6901    0.7106 H   0  0  0  0  0  0  0  0  0  0  0  0
   -0.8256   -1.3541    2.3645 H   0  0  0  0  0  0  0  0  0  0  0  0
   -3.0729    0.2009   -0.4160 H   0  0  0  0  0  0  0  0  0  0  0  0
   -1.8458    1.4032    0.0842 H   0  0  0  0  0  0  0  0  0  0  0  0
   -3.8867    2.6079   -0.5841 H   0  0  0  0  0  0  0  0  0  0  0  0
   -4.0358    2.8058    2.4170 H   0  0  0  0  0  0  0  0  0  0  0  0
   -1.9129    3.6377   -0.5494 H   0  0  0  0  0  0  0  0  0  0  0  0
   -2.2688    5.9319   -1.5049 H   0  0  0  0  0  0  0  0  0  0  0  0
   -3.7733    5.1215   -0.9504 H   0  0  0  0  0  0  0  0  0  0  0  0
   -3.0703    6.4190    0.0521 H   0  0  0  0  0  0  0  0  0  0  0  0
    0.1029    4.1578    0.4810 H   0  0  0  0  0  0  0  0  0  0  0  0
    1.9043    5.6197    0.0570 H   0  0  0  0  0  0  0  0  0  0  0  0
    0.6603    5.8165   -2.1549 H   0  0  0  0  0  0  0  0  0  0  0  0
    2.2180    6.6972   -2.1563 H   0  0  0  0  0  0  0  0  0  0  0  0
    0.6769    7.6139   -1.9667 H   0  0  0  0  0  0  0  0  0  0  0  0
    1.2987    8.3538    0.9834 H   0  0  0  0  0  0  0  0  0  0  0  0
    3.9430    6.2286   -0.5066 H   0  0  0  0  0  0  0  0  0  0  0  0
    5.5331    8.7422   -1.3462 H   0  0  0  0  0  0  0  0  0  0  0  0
    5.6815    7.0854   -2.0283 H   0  0  0  0  0  0  0  0  0  0  0  0
    4.1885    8.0273   -2.3109 H   0  0  0  0  0  0  0  0  0  0  0  0
    5.4078    7.8006    1.5280 H   0  0  0  0  0  0  0  0  0  0  0  0
    5.7420    4.9935   -0.9383 H   0  0  0  0  0  0  0  0  0  0  0  0
    8.7519    5.2432   -0.3064 H   0  0  0  0  0  0  0  0  0  0  0  0
    7.8228    6.3509   -1.3684 H   0  0  0  0  0  0  0  0  0  0  0  0
    7.9806    4.6206   -1.8232 H   0  0  0  0  0  0  0  0  0  0  0  0
    5.7370    3.3065    0.8885 H   0  0  0  0  0  0  0  0  0  0  0  0
    7.6602    2.1701   -1.4430 H   0  0  0  0  0  0  0  0  0  0  0  0
    9.8871    3.1769   -1.2594 H   0  0  0  0  0  0  0  0  0  0  0  0
   10.3878    1.9832   -0.0044 H   0  0  0  0  0  0  0  0  0  0  0  0
   10.0277    1.4334   -1.6871 H   0  0  0  0  0  0  0  0  0  0  0  0
    7.3196   -0.0063   -0.8061 H   0  0  0  0  0  0  0  0  0  0  0  0
    8.7424   -1.9287   -0.5979 H   0  0  0  0  0  0  0  0  0  0  0  0
   11.1141   -1.1598   -0.3276 H   0  0  0  0  0  0  0  0  0  0  0  0
   11.0802   -1.6790    1.4078 H   0  0  0  0  0  0  0  0  0  0  0  0
   10.9162   -2.9033    0.0995 H   0  0  0  0  0  0  0  0  0  0  0  0
    8.4476   -2.2235    2.3973 H   0  0  0  0  0  0  0  0  0  0  0  0
    9.1952   -4.3742   -0.6608 H   0  0  0  0  0  0  0  0  0  0  0  0
    8.8875   -6.5714    0.4095 H   0  0  0  0  0  0  0  0  0  0  0  0
    7.0966   -6.4365    0.2336 H   0  0  0  0  0  0  0  0  0  0  0  0
    8.1402   -6.4967   -1.2220 H   0  0  0  0  0  0  0  0  0  0  0  0
    7.4767   -3.6148   -1.9463 H   0  0  0  0  0  0  0  0  0  0  0  0
    5.7617   -4.9040    1.1255 H   0  0  0  0  0  0  0  0  0  0  0  0
    3.9161   -3.8265    2.2724 H   0  0  0  0  0  0  0  0  0  0  0  0
    3.5112   -2.8234    0.8294 H   0  0  0  0  0  0  0  0  0  0  0  0
    5.0558   -2.5440    1.7371 H   0  0  0  0  0  0  0  0  0  0  0  0
    4.0281   -5.3234   -1.1625 H   0  0  0  0  0  0  0  0  0  0  0  0
   -7.2294    1.8688    1.3628 H   0  0  0  0  0  0  0  0  0  0  0  0
   -5.6112    4.1157    0.0641 H   0  0  0  0  0  0  0  0  0  0  0  0
   -6.5630    5.6551    1.6096 H   0  0  0  0  0  0  0  0  0  0  0  0
   -7.7790    4.4654    2.2140 H   0  0  0  0  0  0  0  0  0  0  0  0
   -6.0285    4.2624    2.6156 H   0  0  0  0  0  0  0  0  0  0  0  0
   -7.7440    2.2014   -1.6018 H   0  0  0  0  0  0  0  0  0  0  0  0
  -10.0036    1.6771   -1.4777 H   0  0  0  0  0  0  0  0  0  0  0  0
  -10.5216    4.5627   -0.5723 H   0  0  0  0  0  0  0  0  0  0  0  0
  -11.7267    3.3441   -1.1380 H   0  0  0  0  0  0  0  0  0  0  0  0
  -10.4751    3.9567   -2.2794 H   0  0  0  0  0  0  0  0  0  0  0  0
  -10.0232    0.5078    2.0376 H   0  0  0  0  0  0  0  0  0  0  0  0
   -8.6852    0.0425   -0.6521 H   0  0  0  0  0  0  0  0  0  0  0  0
  -11.0251   -1.6547    0.4310 H   0  0  0  0  0  0  0  0  0  0  0  0
  -10.2680   -1.7012   -1.2102 H   0  0  0  0  0  0  0  0  0  0  0  0
  -11.2628   -0.2992   -0.7356 H   0  0  0  0  0  0  0  0  0  0  0  0
   -8.1737   -3.4060    1.2545 H   0  0  0  0  0  0  0  0  0  0  0  0
   -7.7654   -2.0717   -1.4665 H   0  0  0  0  0  0  0  0  0  0  0  0
   -9.1503   -5.2403    0.1682 H   0  0  0  0  0  0  0  0  0  0  0  0
  -10.0565   -5.6428   -1.3212 H   0  0  0  0  0  0  0  0  0  0  0  0
   -5.6811   -2.7686   -0.4169 H   0  0  0  0  0  0  0  0  0  0  0  0
   -6.0207   -3.7247   -1.8891 H   0  0  0  0  0  0  0  0  0  0  0  0
   -5.7661   -3.7085    1.9801 H   0  0  0  0  0  0  0  0  0  0  0  0
   -5.1042   -5.3572    2.2109 H   0  0  0  0  0  0  0  0  0  0  0  0
  1  2  1  0
  2  3  2  0
  2  4  1  0
  4  5  1  0
  5  6  1  0
  6  7  1  0
  7  8  1  0
  8  9  1  0
  9 10  2  0
 10 11  1  0
 11 12  2  0
 12 13  1  0
 13 14  2  0
 13 15  1  0
 15 16  1  0
 16 17  1  0
 17 18  1  0
 18 19  1  0
 19 20  1  0
 20 21  2  0
 20 22  1  0
 22 23  1  0
 22 24  1  0
 24 25  1  0
 25 26  2  0
 25 27  1  0
 27 28  1  0
 27 29  1  0
 29 30  1  0
 30 31  2  0
 30 32  1  0
 32 33  1  0
 32 34  1  0
 34 35  1  0
 35 36  2  0
 35 37  1  0
 37 38  1  0
 37 39  1  0
 39 40  1  0
 40 41  2  0
 40 42  1  0
 42 43  1  0
 42 44  1  0
 44 45  1  0
 45 46  2  0
 45 47  1  0
 47 48  1  0
 47 49  1  0
 49 50  1  0
 50 51  2  0
 50 52  1  0
 52 53  1  0
 52 54  1  0
 54 55  1  0
 55 56  2  0
 55 57  1  0
 57 58  1  0
 57 59  1  0
 59 60  1  0
 60 61  2  0
 18 62  1  0
 62 63  2  0
 62 64  1  0
 64 65  1  0
 65 66  1  0
 65 67  1  0
 67 68  2  0
 67 69  1  0
 69 70  1  0
 70 71  1  0
 70 72  1  0
 72 73  2  0
 72 74  1  0
 74 75  1  0
 75 76  1  0
 75 77  1  0
 77 78  2  0
 77 79  1  0
 79 80  1  0
 80 81  1  0
 81 82  1  0
 81 83  2  0
 80 84  1  0
 84 85  1  0
 85 86  1  0
 60  5  1  0
 14  9  1  0
 86 11  1  0
  1 87  1  0
  1 88  1  0
  1 89  1  0
  4 90  1  0
  5 91  1  6
  6 92  1  0
  6 93  1  0
  8 94  1  0
  8 95  1  0
 10 96  1  0
 12 97  1  0
 14 98  1  0
 15 99  1  0
 15100  1  0
 17101  1  0
 17102  1  0
 18103  1  6
 19104  1  0
 22105  1  6
 23106  1  0
 23107  1  0
 23108  1  0
 24109  1  0
 27110  1  6
 28111  1  0
 28112  1  0
 28113  1  0
 29114  1  0
 32115  1  6
 33116  1  0
 33117  1  0
 33118  1  0
 34119  1  0
 37120  1  6
 38121  1  0
 38122  1  0
 38123  1  0
 39124  1  0
 42125  1  6
 43126  1  0
 43127  1  0
 43128  1  0
 44129  1  0
 47130  1  6
 48131  1  0
 48132  1  0
 48133  1  0
 49134  1  0
 52135  1  6
 53136  1  0
 53137  1  0
 53138  1  0
 54139  1  0
 57140  1  1
 58141  1  0
 58142  1  0
 58143  1  0
 59144  1  0
 64145  1  0
 65146  1  6
 66147  1  0
 66148  1  0
 66149  1  0
 69150  1  0
 70151  1  6
 71152  1  0
 71153  1  0
 71154  1  0
 74155  1  0
 75156  1  6
 76157  1  0
 76158  1  0
 76159  1  0
 79160  1  0
 80161  1  6
 82162  1  0
 82163  1  0
 84164  1  0
 84165  1  0
 86166  1  0
 86167  1  0
M  END
