
     RDKit          3D

187189  0  0  0  0  0  0  0  0999 V2000
   -3.9084    9.2861   -2.5820 C   0  0  0  0  0  0  0  0  0  0  0  0
   -3.2341    7.9662   -2.3399 C   0  0  0  0  0  0  0  0  0  0  0  0
   -2.8087    7.3084   -3.3234 O   0  0  0  0  0  0  0  0  0  0  0  0
   -2.9097    7.5629   -0.9950 N   0  0  0  0  0  0  0  0  0  0  0  0
   -3.0302    6.1907   -0.4704 C   0  0  2  0  0  0  0  0  0  0  0  0
   -2.1964    5.1776   -1.2891 C   0  0  0  0  0  0  0  0  0  0  0  0
   -0.4044    5.5634   -1.1930 S   0  0  0  0  0  0  0  0  0  0  0  0
   -0.0662    4.6941    0.3940 C   0  0  0  0  0  0  0  0  0  0  0  0
    0.8812    3.5576    0.1533 C   0  0  0  0  0  0  0  0  0  0  0  0
    2.2134    3.6257    0.5921 C   0  0  0  0  0  0  0  0  0  0  0  0
    3.0531    2.5105    0.4849 C   0  0  0  0  0  0  0  0  0  0  0  0
    2.5762    1.3396   -0.1264 C   0  0  0  0  0  0  0  0  0  0  0  0
    1.2624    1.2761   -0.6176 C   0  0  0  0  0  0  0  0  0  0  0  0
    0.4072    2.3761   -0.4473 C   0  0  0  0  0  0  0  0  0  0  0  0
    0.7317   -0.0163   -1.1518 C   0  0  0  0  0  0  0  0  0  0  0  0
   -0.1907   -0.9139    0.1658 S   0  0  0  0  0  0  0  0  0  0  0  0
    1.1278   -2.0843    0.6384 C   0  0  0  0  0  0  0  0  0  0  0  0
    1.1623   -3.3790   -0.2200 C   0  0  2  0  0  0  0  0  0  0  0  0
   -0.1734   -3.9835   -0.3315 N   0  0  0  0  0  0  0  0  0  0  0  0
   -0.4534   -5.1769   -1.0774 C   0  0  0  0  0  0  0  0  0  0  0  0
    0.3261   -5.5564   -1.9959 O   0  0  0  0  0  0  0  0  0  0  0  0
   -1.7047   -5.9596   -0.7705 C   0  0  1  0  0  0  0  0  0  0  0  0
   -2.6896   -6.0477   -1.9494 C   0  0  0  0  0  0  0  0  0  0  0  0
   -1.3556   -7.2992   -0.3009 N   0  0  0  0  0  0  0  0  0  0  0  0
   -2.0573   -7.9777    0.7513 C   0  0  0  0  0  0  0  0  0  0  0  0
   -1.6648   -9.1515    1.0571 O   0  0  0  0  0  0  0  0  0  0  0  0
   -3.3180   -7.4085    1.3808 C   0  0  1  0  0  0  0  0  0  0  0  0
   -4.0076   -8.4296    2.3002 C   0  0  0  0  0  0  0  0  0  0  0  0
   -3.0101   -6.2021    2.1590 N   0  0  0  0  0  0  0  0  0  0  0  0
   -3.9306   -5.1368    2.4894 C   0  0  0  0  0  0  0  0  0  0  0  0
   -3.8548   -4.6469    3.6506 O   0  0  0  0  0  0  0  0  0  0  0  0
   -4.9251   -4.4961    1.5213 C   0  0  1  0  0  0  0  0  0  0  0  0
   -4.2246   -3.7179    0.3767 C   0  0  0  0  0  0  0  0  0  0  0  0
   -5.8905   -5.4933    1.0268 N   0  0  0  0  0  0  0  0  0  0  0  0
   -7.1978   -5.1604    0.5312 C   0  0  0  0  0  0  0  0  0  0  0  0
   -8.1877   -5.8382    0.9482 O   0  0  0  0  0  0  0  0  0  0  0  0
   -7.4220   -4.1961   -0.6096 C   0  0  1  0  0  0  0  0  0  0  0  0
   -7.0111   -4.8549   -1.9293 C   0  0  0  0  0  0  0  0  0  0  0  0
   -8.8479   -3.8430   -0.6881 N   0  0  0  0  0  0  0  0  0  0  0  0
   -9.2941   -2.4826   -0.6732 C   0  0  0  0  0  0  0  0  0  0  0  0
   -9.6555   -1.9369   -1.7491 O   0  0  0  0  0  0  0  0  0  0  0  0
   -9.4593   -1.7226    0.6245 C   0  0  1  0  0  0  0  0  0  0  0  0
   -9.5342   -2.6477    1.8420 C   0  0  0  0  0  0  0  0  0  0  0  0
   -8.3532   -0.7732    0.7903 N   0  0  0  0  0  0  0  0  0  0  0  0
   -8.5678    0.6357    0.9255 C   0  0  0  0  0  0  0  0  0  0  0  0
   -7.9227    1.2631    1.8044 O   0  0  0  0  0  0  0  0  0  0  0  0
   -9.4464    1.4080   -0.0408 C   0  0  1  0  0  0  0  0  0  0  0  0
  -10.7851    1.7654    0.6248 C   0  0  0  0  0  0  0  0  0  0  0  0
   -8.7100    2.5936   -0.5216 N   0  0  0  0  0  0  0  0  0  0  0  0
   -9.3247    3.8596   -0.7782 C   0  0  0  0  0  0  0  0  0  0  0  0
   -9.9543    4.0311   -1.8610 O   0  0  0  0  0  0  0  0  0  0  0  0
   -9.0754    5.0513    0.1210 C   0  0  1  0  0  0  0  0  0  0  0  0
   -8.4211    4.6487    1.4491 C   0  0  0  0  0  0  0  0  0  0  0  0
   -8.2380    6.0467   -0.5756 N   0  0  0  0  0  0  0  0  0  0  0  0
   -7.7420    7.2210    0.0763 C   0  0  0  0  0  0  0  0  0  0  0  0
   -8.5592    8.0335    0.5981 O   0  0  0  0  0  0  0  0  0  0  0  0
   -6.2569    7.5094    0.1104 C   0  0  1  0  0  0  0  0  0  0  0  0
   -5.7493    7.4235    1.5564 C   0  0  0  0  0  0  0  0  0  0  0  0
   -5.5482    6.5988   -0.8003 N   0  0  0  0  0  0  0  0  0  0  0  0
   -4.4698    5.7470   -0.3940 C   0  0  0  0  0  0  0  0  0  0  0  0
   -4.7400    4.5855    0.0369 O   0  0  0  0  0  0  0  0  0  0  0  0
    2.1057   -4.3619    0.4466 C   0  0  0  0  0  0  0  0  0  0  0  0
    1.7245   -4.9239    1.5110 O   0  0  0  0  0  0  0  0  0  0  0  0
    3.4129   -4.6988   -0.0610 N   0  0  0  0  0  0  0  0  0  0  0  0
    4.1525   -4.0313   -1.1456 C   0  0  2  0  0  0  0  0  0  0  0  0
    4.9708   -5.0498   -1.9372 C   0  0  0  0  0  0  0  0  0  0  0  0
    5.0081   -2.9054   -0.6088 C   0  0  0  0  0  0  0  0  0  0  0  0
    4.5674   -1.7187   -0.6755 O   0  0  0  0  0  0  0  0  0  0  0  0
    6.3749   -3.1037   -0.2099 N   0  0  0  0  0  0  0  0  0  0  0  0
    6.7457   -4.0518    0.8465 C   0  0  2  0  0  0  0  0  0  0  0  0
    6.7102   -3.3494    2.2179 C   0  0  0  0  0  0  0  0  0  0  0  0
    8.1059   -4.6626    0.6059 C   0  0  0  0  0  0  0  0  0  0  0  0
    8.4960   -5.6046    1.3653 O   0  0  0  0  0  0  0  0  0  0  0  0
    8.8805   -4.3898   -0.5713 N   0  0  0  0  0  0  0  0  0  0  0  0
    9.7849   -3.2373   -0.7104 C   0  0  2  0  0  0  0  0  0  0  0  0
   10.9552   -3.6046   -1.6530 C   0  0  0  0  0  0  0  0  0  0  0  0
   10.3612   -2.7959    0.6214 C   0  0  0  0  0  0  0  0  0  0  0  0
   10.8862   -3.6681    1.3679 O   0  0  0  0  0  0  0  0  0  0  0  0
   10.4217   -1.4090    1.0474 N   0  0  0  0  0  0  0  0  0  0  0  0
   10.0026   -0.2382    0.2647 C   0  0  2  0  0  0  0  0  0  0  0  0
   10.9961    0.0197   -0.8715 C   0  0  0  0  0  0  0  0  0  0  0  0
    9.8750    0.9776    1.1803 C   0  0  0  0  0  0  0  0  0  0  0  0
    9.0736    0.9226    2.1445 O   0  0  0  0  0  0  0  0  0  0  0  0
   10.6615    2.1576    0.9924 N   0  0  0  0  0  0  0  0  0  0  0  0
   10.1483    3.2787    0.2099 C   0  0  2  0  0  0  0  0  0  0  0  0
   11.2982    3.9528   -0.5543 C   0  0  0  0  0  0  0  0  0  0  0  0
    9.4765    4.2589    1.1361 C   0  0  0  0  0  0  0  0  0  0  0  0
   10.1532    4.8481    2.0289 O   0  0  0  0  0  0  0  0  0  0  0  0
    8.0492    4.3515    1.1480 N   0  0  0  0  0  0  0  0  0  0  0  0
    7.2923    5.2970    0.3205 C   0  0  1  0  0  0  0  0  0  0  0  0
    7.8278    5.4244   -1.0849 C   0  0  0  0  0  0  0  0  0  0  0  0
    8.3788    6.6755   -1.5298 N   0  0  0  0  0  0  0  0  0  0  0  0
    7.6962    4.4899   -1.9153 O   0  0  0  0  0  0  0  0  0  0  0  0
    5.8059    4.8852    0.3024 C   0  0  0  0  0  0  0  0  0  0  0  0
    5.6328    3.1375   -0.2404 S   0  0  0  0  0  0  0  0  0  0  0  0
    4.4545    2.5583    1.0208 C   0  0  0  0  0  0  0  0  0  0  0  0
   -4.1940    9.7689   -1.6083 H   0  0  0  0  0  0  0  0  0  0  0  0
   -3.2322    9.9724   -3.1341 H   0  0  0  0  0  0  0  0  0  0  0  0
   -4.8282    9.1135   -3.1652 H   0  0  0  0  0  0  0  0  0  0  0  0
   -2.7646    8.3054   -0.2740 H   0  0  0  0  0  0  0  0  0  0  0  0
   -2.6265    6.1782    0.5688 H   0  0  0  0  0  0  0  0  0  0  0  0
   -2.3673    4.1402   -0.9375 H   0  0  0  0  0  0  0  0  0  0  0  0
   -2.5202    5.2005   -2.3444 H   0  0  0  0  0  0  0  0  0  0  0  0
    0.3581    5.4283    1.1114 H   0  0  0  0  0  0  0  0  0  0  0  0
   -0.9791    4.2571    0.8444 H   0  0  0  0  0  0  0  0  0  0  0  0
    2.5992    4.5407    1.0182 H   0  0  0  0  0  0  0  0  0  0  0  0
    3.1990    0.4505   -0.1631 H   0  0  0  0  0  0  0  0  0  0  0  0
   -0.6100    2.3129   -0.7624 H   0  0  0  0  0  0  0  0  0  0  0  0
    0.0265    0.1762   -1.9882 H   0  0  0  0  0  0  0  0  0  0  0  0
    1.5627   -0.6226   -1.5695 H   0  0  0  0  0  0  0  0  0  0  0  0
    2.1260   -1.5907    0.6326 H   0  0  0  0  0  0  0  0  0  0  0  0
    0.9270   -2.3512    1.6974 H   0  0  0  0  0  0  0  0  0  0  0  0
    1.4831   -3.0949   -1.2434 H   0  0  0  0  0  0  0  0  0  0  0  0
   -1.0148   -3.3827   -0.1476 H   0  0  0  0  0  0  0  0  0  0  0  0
   -2.2232   -5.4211    0.0303 H   0  0  0  0  0  0  0  0  0  0  0  0
   -3.6860   -6.4204   -1.5789 H   0  0  0  0  0  0  0  0  0  0  0  0
   -2.8468   -5.0299   -2.3776 H   0  0  0  0  0  0  0  0  0  0  0  0
   -2.2967   -6.7301   -2.7384 H   0  0  0  0  0  0  0  0  0  0  0  0
   -0.5255   -7.7883   -0.7269 H   0  0  0  0  0  0  0  0  0  0  0  0
   -3.9960   -7.1712    0.5442 H   0  0  0  0  0  0  0  0  0  0  0  0
   -3.2988   -8.7745    3.0825 H   0  0  0  0  0  0  0  0  0  0  0  0
   -4.3662   -9.2945    1.6987 H   0  0  0  0  0  0  0  0  0  0  0  0
   -4.8779   -7.9844    2.8257 H   0  0  0  0  0  0  0  0  0  0  0  0
   -2.1203   -6.2222    2.7090 H   0  0  0  0  0  0  0  0  0  0  0  0
   -5.5040   -3.7461    2.1062 H   0  0  0  0  0  0  0  0  0  0  0  0
   -4.2966   -4.2620   -0.5899 H   0  0  0  0  0  0  0  0  0  0  0  0
   -3.1531   -3.4812    0.5867 H   0  0  0  0  0  0  0  0  0  0  0  0
   -4.7069   -2.7265    0.2387 H   0  0  0  0  0  0  0  0  0  0  0  0
   -5.8573   -6.4471    1.4435 H   0  0  0  0  0  0  0  0  0  0  0  0
   -6.8196   -3.2759   -0.4540 H   0  0  0  0  0  0  0  0  0  0  0  0
   -5.9116   -5.0089   -1.9843 H   0  0  0  0  0  0  0  0  0  0  0  0
   -7.3215   -4.2130   -2.7909 H   0  0  0  0  0  0  0  0  0  0  0  0
   -7.5107   -5.8447   -2.0430 H   0  0  0  0  0  0  0  0  0  0  0  0
   -9.5198   -4.5763   -1.0252 H   0  0  0  0  0  0  0  0  0  0  0  0
  -10.4365   -1.1807    0.5774 H   0  0  0  0  0  0  0  0  0  0  0  0
   -9.7756   -2.0587    2.7539 H   0  0  0  0  0  0  0  0  0  0  0  0
   -8.5687   -3.1683    2.0112 H   0  0  0  0  0  0  0  0  0  0  0  0
  -10.3351   -3.4125    1.7046 H   0  0  0  0  0  0  0  0  0  0  0  0
   -7.4126   -1.1556    1.0410 H   0  0  0  0  0  0  0  0  0  0  0  0
   -9.6564    0.7523   -0.9130 H   0  0  0  0  0  0  0  0  0  0  0  0
  -11.4045    2.3863   -0.0592 H   0  0  0  0  0  0  0  0  0  0  0  0
  -11.3772    0.8549    0.8368 H   0  0  0  0  0  0  0  0  0  0  0  0
  -10.6360    2.3217    1.5795 H   0  0  0  0  0  0  0  0  0  0  0  0
   -7.7632    2.4258   -0.9449 H   0  0  0  0  0  0  0  0  0  0  0  0
  -10.0514    5.5222    0.3442 H   0  0  0  0  0  0  0  0  0  0  0  0
   -7.4101    4.2108    1.2822 H   0  0  0  0  0  0  0  0  0  0  0  0
   -8.3161    5.5224    2.1157 H   0  0  0  0  0  0  0  0  0  0  0  0
   -9.0512    3.9061    1.9810 H   0  0  0  0  0  0  0  0  0  0  0  0
   -8.3368    6.1248   -1.6188 H   0  0  0  0  0  0  0  0  0  0  0  0
   -6.1039    8.5521   -0.2426 H   0  0  0  0  0  0  0  0  0  0  0  0
   -4.6526    7.5744    1.5848 H   0  0  0  0  0  0  0  0  0  0  0  0
   -6.2113    8.1964    2.2021 H   0  0  0  0  0  0  0  0  0  0  0  0
   -5.9665    6.4275    1.9924 H   0  0  0  0  0  0  0  0  0  0  0  0
   -5.8190    6.5675   -1.8086 H   0  0  0  0  0  0  0  0  0  0  0  0
    3.8781   -5.4971    0.4346 H   0  0  0  0  0  0  0  0  0  0  0  0
    3.4380   -3.5982   -1.8859 H   0  0  0  0  0  0  0  0  0  0  0  0
    4.2646   -5.6953   -2.5240 H   0  0  0  0  0  0  0  0  0  0  0  0
    5.5751   -5.7090   -1.2787 H   0  0  0  0  0  0  0  0  0  0  0  0
    5.6557   -4.5508   -2.6573 H   0  0  0  0  0  0  0  0  0  0  0  0
    7.0242   -2.3104   -0.4009 H   0  0  0  0  0  0  0  0  0  0  0  0
    6.0194   -4.8916    0.8828 H   0  0  0  0  0  0  0  0  0  0  0  0
    5.6585   -3.2310    2.5389 H   0  0  0  0  0  0  0  0  0  0  0  0
    7.2314   -3.9542    2.9950 H   0  0  0  0  0  0  0  0  0  0  0  0
    7.1701   -2.3418    2.1618 H   0  0  0  0  0  0  0  0  0  0  0  0
    9.0686   -5.2214   -1.1747 H   0  0  0  0  0  0  0  0  0  0  0  0
    9.2249   -2.4055   -1.1712 H   0  0  0  0  0  0  0  0  0  0  0  0
   11.4804   -4.5140   -1.2912 H   0  0  0  0  0  0  0  0  0  0  0  0
   11.7103   -2.7929   -1.7165 H   0  0  0  0  0  0  0  0  0  0  0  0
   10.5619   -3.7886   -2.6757 H   0  0  0  0  0  0  0  0  0  0  0  0
   10.8104   -1.2457    2.0069 H   0  0  0  0  0  0  0  0  0  0  0  0
    8.9907   -0.4168   -0.1639 H   0  0  0  0  0  0  0  0  0  0  0  0
   10.7986    0.9925   -1.3764 H   0  0  0  0  0  0  0  0  0  0  0  0
   10.8844   -0.7387   -1.6690 H   0  0  0  0  0  0  0  0  0  0  0  0
   12.0484    0.0059   -0.5082 H   0  0  0  0  0  0  0  0  0  0  0  0
   11.4430    2.3200    1.6690 H   0  0  0  0  0  0  0  0  0  0  0  0
    9.4114    2.9100   -0.5369 H   0  0  0  0  0  0  0  0  0  0  0  0
   11.9933    4.4626    0.1514 H   0  0  0  0  0  0  0  0  0  0  0  0
   11.8709    3.1856   -1.1204 H   0  0  0  0  0  0  0  0  0  0  0  0
   10.9009    4.6915   -1.2840 H   0  0  0  0  0  0  0  0  0  0  0  0
    7.6210    4.1065    2.0800 H   0  0  0  0  0  0  0  0  0  0  0  0
    7.3486    6.2997    0.7913 H   0  0  0  0  0  0  0  0  0  0  0  0
    9.2335    7.0378   -1.0481 H   0  0  0  0  0  0  0  0  0  0  0  0
    8.0591    7.0998   -2.4266 H   0  0  0  0  0  0  0  0  0  0  0  0
    5.2418    5.5145   -0.4120 H   0  0  0  0  0  0  0  0  0  0  0  0
    5.3659    5.0635    1.2962 H   0  0  0  0  0  0  0  0  0  0  0  0
    4.7641    1.5396    1.3203 H   0  0  0  0  0  0  0  0  0  0  0  0
    4.4857    3.1650    1.9478 H   0  0  0  0  0  0  0  0  0  0  0  0
  1  2  1  0
  2  3  2  0
  2  4  1  0
  4  5  1  0
  5  6  1  0
  6  7  1  0
  7  8  1  0
  8  9  1  0
  9 10  2  0
 10 11  1  0
 11 12  2  0
 12 13  1  0
 13 14  2  0
 13 15  1  0
 15 16  1  0
 16 17  1  0
 17 18  1  0
 18 19  1  0
 19 20  1  0
 20 21  2  0
 20 22  1  0
 22 23  1  0
 22 24  1  0
 24 25  1  0
 25 26  2  0
 25 27  1  0
 27 28  1  0
 27 29  1  0
 29 30  1  0
 30 31  2  0
 30 32  1  0
 32 33  1  0
 32 34  1  0
 34 35  1  0
 35 36  2  0
 35 37  1  0
 37 38  1  0
 37 39  1  0
 39 40  1  0
 40 41  2  0
 40 42  1  0
 42 43  1  0
 42 44  1  0
 44 45  1  0
 45 46  2  0
 45 47  1  0
 47 48  1  0
 47 49  1  0
 49 50  1  0
 50 51  2  0
 50 52  1  0
 52 53  1  0
 52 54  1  0
 54 55  1  0
 55 56  2  0
 55 57  1  0
 57 58  1  0
 57 59  1  0
 59 60  1  0
 60 61  2  0
 18 62  1  0
 62 63  2  0
 62 64  1  0
 64 65  1  0
 65 66  1  0
 65 67  1  0
 67 68  2  0
 67 69  1  0
 69 70  1  0
 70 71  1  0
 70 72  1  0
 72 73  2  0
 72 74  1  0
 74 75  1  0
 75 76  1  0
 75 77  1  0
 77 78  2  0
 77 79  1  0
 79 80  1  0
 80 81  1  0
 80 82  1  0
 82 83  2  0
 82 84  1  0
 84 85  1  0
 85 86  1  0
 85 87  1  0
 87 88  2  0
 87 89  1  0
 89 90  1  0
 90 91  1  0
 91 92  1  0
 91 93  2  0
 90 94  1  0
 94 95  1  0
 95 96  1  0
 60  5  1  0
 14  9  1  0
 96 11  1  0
  1 97  1  0
  1 98  1  0
  1 99  1  0
  4100  1  0
  5101  1  1
  6102  1  0
  6103  1  0
  8104  1  0
  8105  1  0
 10106  1  0
 12107  1  0
 14108  1  0
 15109  1  0
 15110  1  0
 17111  1  0
 17112  1  0
 18113  1  6
 19114  1  0
 22115  1  1
 23116  1  0
 23117  1  0
 23118  1  0
 24119  1  0
 27120  1  6
 28121  1  0
 28122  1  0
 28123  1  0
 29124  1  0
 32125  1  1
 33126  1  0
 33127  1  0
 33128  1  0
 34129  1  0
 37130  1  1
 38131  1  0
 38132  1  0
 38133  1  0
 39134  1  0
 42135  1  6
 43136  1  0
 43137  1  0
 43138  1  0
 44139  1  0
 47140  1  6
 48141  1  0
 48142  1  0
 48143  1  0
 49144  1  0
 52145  1  1
 53146  1  0
 53147  1  0
 53148  1  0
 54149  1  0
 57150  1  6
 58151  1  0
 58152  1  0
 58153  1  0
 59154  1  0
 64155  1  0
 65156  1  6
 66157  1  0
 66158  1  0
 66159  1  0
 69160  1  0
 70161  1  1
 71162  1  0
 71163  1  0
 71164  1  0
 74165  1  0
 75166  1  6
 76167  1  0
 76168  1  0
 76169  1  0
 79170  1  0
 80171  1  6
 81172  1  0
 81173  1  0
 81174  1  0
 84175  1  0
 85176  1  6
 86177  1  0
 86178  1  0
 86179  1  0
 89180  1  0
 90181  1  1
 92182  1  0
 92183  1  0
 94184  1  0
 94185  1  0
 96186  1  0
 96187  1  0
M  END
