
     RDKit          3D

177179  0  0  0  0  0  0  0  0999 V2000
   -0.8025    7.7536   -1.9165 C   0  0  0  0  0  0  0  0  0  0  0  0
   -0.8571    7.7589   -0.4147 C   0  0  0  0  0  0  0  0  0  0  0  0
   -0.5556    8.8178    0.1963 O   0  0  0  0  0  0  0  0  0  0  0  0
   -1.2215    6.5933    0.3379 N   0  0  0  0  0  0  0  0  0  0  0  0
   -1.7767    5.3614   -0.2425 C   0  0  1  0  0  0  0  0  0  0  0  0
   -0.9444    4.1702    0.2796 C   0  0  0  0  0  0  0  0  0  0  0  0
   -1.2808    2.6068   -0.6153 S   0  0  0  0  0  0  0  0  0  0  0  0
   -0.2127    2.9167   -2.0689 C   0  0  0  0  0  0  0  0  0  0  0  0
    1.2469    2.7227   -1.7458 C   0  0  0  0  0  0  0  0  0  0  0  0
    2.1574    3.7730   -1.9329 C   0  0  0  0  0  0  0  0  0  0  0  0
    3.5309    3.5654   -1.7506 C   0  0  0  0  0  0  0  0  0  0  0  0
    3.9874    2.3219   -1.2903 C   0  0  0  0  0  0  0  0  0  0  0  0
    3.0861    1.2677   -1.0693 C   0  0  0  0  0  0  0  0  0  0  0  0
    1.7199    1.4671   -1.3322 C   0  0  0  0  0  0  0  0  0  0  0  0
    3.5914   -0.0959   -0.6845 C   0  0  0  0  0  0  0  0  0  0  0  0
    2.7809   -0.6855    0.8464 S   0  0  0  0  0  0  0  0  0  0  0  0
    1.8822   -2.0959    0.0993 C   0  0  0  0  0  0  0  0  0  0  0  0
    2.8275   -3.2826   -0.1825 C   0  0  2  0  0  0  0  0  0  0  0  0
    2.2179   -4.1926   -1.1617 N   0  0  0  0  0  0  0  0  0  0  0  0
    1.3561   -5.2771   -0.7968 C   0  0  0  0  0  0  0  0  0  0  0  0
    1.7828   -6.4594   -0.8957 O   0  0  0  0  0  0  0  0  0  0  0  0
   -0.0900   -5.0342   -0.4572 C   0  0  1  0  0  0  0  0  0  0  0  0
   -0.9397   -5.2914   -1.7079 C   0  0  0  0  0  0  0  0  0  0  0  0
   -0.4823   -5.8837    0.6738 N   0  0  0  0  0  0  0  0  0  0  0  0
   -1.8435   -6.2497    0.9336 C   0  0  0  0  0  0  0  0  0  0  0  0
   -2.5734   -5.4678    1.5986 O   0  0  0  0  0  0  0  0  0  0  0  0
   -2.3911   -7.5575    0.4175 C   0  0  1  0  0  0  0  0  0  0  0  0
   -1.4470   -8.7128    0.7585 C   0  0  0  0  0  0  0  0  0  0  0  0
   -3.7187   -7.8226    0.9801 N   0  0  0  0  0  0  0  0  0  0  0  0
   -4.9331   -7.6708    0.2361 C   0  0  0  0  0  0  0  0  0  0  0  0
   -5.8671   -8.4956    0.4251 O   0  0  0  0  0  0  0  0  0  0  0  0
   -5.1579   -6.4751   -0.6681 C   0  0  1  0  0  0  0  0  0  0  0  0
   -6.0985   -6.8123   -1.8318 C   0  0  0  0  0  0  0  0  0  0  0  0
   -5.6825   -5.3286    0.0821 N   0  0  0  0  0  0  0  0  0  0  0  0
   -6.8499   -5.4049    0.9109 C   0  0  0  0  0  0  0  0  0  0  0  0
   -6.9122   -6.2582    1.8380 O   0  0  0  0  0  0  0  0  0  0  0  0
   -7.9679   -4.4094    0.7364 C   0  0  1  0  0  0  0  0  0  0  0  0
   -9.3213   -5.1367    0.7411 C   0  0  0  0  0  0  0  0  0  0  0  0
   -7.9240   -3.4044    1.8039 N   0  0  0  0  0  0  0  0  0  0  0  0
   -8.6689   -2.1717    1.7991 C   0  0  0  0  0  0  0  0  0  0  0  0
   -8.8012   -1.5477    2.8866 O   0  0  0  0  0  0  0  0  0  0  0  0
   -9.2282   -1.5697    0.5256 C   0  0  1  0  0  0  0  0  0  0  0  0
  -10.5670   -0.8606    0.7656 C   0  0  0  0  0  0  0  0  0  0  0  0
   -8.2621   -0.6565   -0.0948 N   0  0  0  0  0  0  0  0  0  0  0  0
   -7.8593    0.5940    0.4941 C   0  0  0  0  0  0  0  0  0  0  0  0
   -7.5295    0.6328    1.7110 O   0  0  0  0  0  0  0  0  0  0  0  0
   -7.8813    1.8890   -0.2817 C   0  0  1  0  0  0  0  0  0  0  0  0
   -7.9686    1.6808   -1.8001 C   0  0  0  0  0  0  0  0  0  0  0  0
   -9.0143    2.7024    0.1764 N   0  0  0  0  0  0  0  0  0  0  0  0
   -9.1466    4.0733   -0.2109 C   0  0  0  0  0  0  0  0  0  0  0  0
   -9.9871    4.3768   -1.0997 O   0  0  0  0  0  0  0  0  0  0  0  0
   -8.4029    5.1817    0.4918 C   0  0  1  0  0  0  0  0  0  0  0  0
   -9.3427    5.9064    1.4600 C   0  0  0  0  0  0  0  0  0  0  0  0
   -7.2337    4.6885    1.2341 N   0  0  0  0  0  0  0  0  0  0  0  0
   -6.0545    5.4894    1.4413 C   0  0  0  0  0  0  0  0  0  0  0  0
   -5.4687    5.4326    2.5558 O   0  0  0  0  0  0  0  0  0  0  0  0
   -5.5164    6.4035    0.3618 C   0  0  1  0  0  0  0  0  0  0  0  0
   -6.0547    7.8274    0.5543 C   0  0  0  0  0  0  0  0  0  0  0  0
   -4.0459    6.4148    0.3741 N   0  0  0  0  0  0  0  0  0  0  0  0
   -3.2565    5.2458    0.0904 C   0  0  0  0  0  0  0  0  0  0  0  0
   -3.8220    4.1202    0.0471 O   0  0  0  0  0  0  0  0  0  0  0  0
    3.2568   -4.0268    1.0676 C   0  0  0  0  0  0  0  0  0  0  0  0
    2.6704   -3.8070    2.1606 O   0  0  0  0  0  0  0  0  0  0  0  0
    4.3167   -4.9997    1.0409 N   0  0  0  0  0  0  0  0  0  0  0  0
    5.1875   -5.2397   -0.1188 C   0  0  2  0  0  0  0  0  0  0  0  0
    5.8910   -6.5935    0.0140 C   0  0  0  0  0  0  0  0  0  0  0  0
    6.2212   -4.1499   -0.2805 C   0  0  0  0  0  0  0  0  0  0  0  0
    6.7696   -3.9951   -1.4063 O   0  0  0  0  0  0  0  0  0  0  0  0
    6.6506   -3.3515    0.8366 N   0  0  0  0  0  0  0  0  0  0  0  0
    8.0317   -2.8459    0.9219 C   0  0  2  0  0  0  0  0  0  0  0  0
    8.9945   -4.0348    1.0340 C   0  0  0  0  0  0  0  0  0  0  0  0
    8.2389   -1.9235    2.1065 C   0  0  0  0  0  0  0  0  0  0  0  0
    7.4049   -1.9132    3.0539 O   0  0  0  0  0  0  0  0  0  0  0  0
    9.4348   -1.1359    2.2470 N   0  0  0  0  0  0  0  0  0  0  0  0
   10.0422   -0.3495    1.1600 C   0  0  2  0  0  0  0  0  0  0  0  0
   10.9856   -1.2069    0.3071 C   0  0  0  0  0  0  0  0  0  0  0  0
   10.8438    0.7961    1.7576 C   0  0  0  0  0  0  0  0  0  0  0  0
   11.8068    0.5077    2.5216 O   0  0  0  0  0  0  0  0  0  0  0  0
   10.5639    2.1840    1.5068 N   0  0  0  0  0  0  0  0  0  0  0  0
    9.5163    2.7119    0.6221 C   0  0  2  0  0  0  0  0  0  0  0  0
    9.9565    2.6121   -0.8415 C   0  0  0  0  0  0  0  0  0  0  0  0
    9.2301    4.1508    0.9671 C   0  0  0  0  0  0  0  0  0  0  0  0
   10.1785    4.9744    1.0804 O   0  0  0  0  0  0  0  0  0  0  0  0
    7.8899    4.6043    1.1560 N   0  0  0  0  0  0  0  0  0  0  0  0
    7.0429    4.8864   -0.0034 C   0  0  2  0  0  0  0  0  0  0  0  0
    7.5864    6.0886   -0.7383 C   0  0  0  0  0  0  0  0  0  0  0  0
    7.7123    7.3497   -0.0801 N   0  0  0  0  0  0  0  0  0  0  0  0
    7.9495    5.9705   -1.9407 O   0  0  0  0  0  0  0  0  0  0  0  0
    5.5735    5.0957    0.4356 C   0  0  0  0  0  0  0  0  0  0  0  0
    4.5201    5.9487   -0.8061 S   0  0  0  0  0  0  0  0  0  0  0  0
    4.5089    4.6533   -2.0923 C   0  0  0  0  0  0  0  0  0  0  0  0
   -0.4249    8.7251   -2.2949 H   0  0  0  0  0  0  0  0  0  0  0  0
   -1.8199    7.5883   -2.3262 H   0  0  0  0  0  0  0  0  0  0  0  0
   -0.1233    6.9491   -2.2653 H   0  0  0  0  0  0  0  0  0  0  0  0
   -1.1691    6.6592    1.3804 H   0  0  0  0  0  0  0  0  0  0  0  0
   -1.6980    5.3849   -1.3450 H   0  0  0  0  0  0  0  0  0  0  0  0
   -1.1633    4.0115    1.3581 H   0  0  0  0  0  0  0  0  0  0  0  0
    0.1392    4.4101    0.2004 H   0  0  0  0  0  0  0  0  0  0  0  0
   -0.4006    3.9328   -2.4770 H   0  0  0  0  0  0  0  0  0  0  0  0
   -0.5001    2.1968   -2.8635 H   0  0  0  0  0  0  0  0  0  0  0  0
    1.8067    4.7395   -2.2687 H   0  0  0  0  0  0  0  0  0  0  0  0
    5.0497    2.1624   -1.1412 H   0  0  0  0  0  0  0  0  0  0  0  0
    1.0195    0.6528   -1.2157 H   0  0  0  0  0  0  0  0  0  0  0  0
    4.6818   -0.0628   -0.4845 H   0  0  0  0  0  0  0  0  0  0  0  0
    3.4341   -0.7757   -1.5502 H   0  0  0  0  0  0  0  0  0  0  0  0
    1.3998   -1.7731   -0.8484 H   0  0  0  0  0  0  0  0  0  0  0  0
    1.0744   -2.3878    0.7986 H   0  0  0  0  0  0  0  0  0  0  0  0
    3.7475   -2.8638   -0.6445 H   0  0  0  0  0  0  0  0  0  0  0  0
    2.6595   -4.2391   -2.1090 H   0  0  0  0  0  0  0  0  0  0  0  0
   -0.2339   -3.9762   -0.1641 H   0  0  0  0  0  0  0  0  0  0  0  0
   -0.5943   -4.6444   -2.5449 H   0  0  0  0  0  0  0  0  0  0  0  0
   -0.8611   -6.3543   -2.0214 H   0  0  0  0  0  0  0  0  0  0  0  0
   -2.0046   -5.0467   -1.5119 H   0  0  0  0  0  0  0  0  0  0  0  0
    0.1503   -5.8736    1.5083 H   0  0  0  0  0  0  0  0  0  0  0  0
   -2.4534   -7.5080   -0.6890 H   0  0  0  0  0  0  0  0  0  0  0  0
   -0.4577   -8.5622    0.2709 H   0  0  0  0  0  0  0  0  0  0  0  0
   -1.3006   -8.7905    1.8583 H   0  0  0  0  0  0  0  0  0  0  0  0
   -1.8761   -9.6692    0.3870 H   0  0  0  0  0  0  0  0  0  0  0  0
   -3.7806   -8.2816    1.9162 H   0  0  0  0  0  0  0  0  0  0  0  0
   -4.1918   -6.1696   -1.1210 H   0  0  0  0  0  0  0  0  0  0  0  0
   -6.1886   -5.9340   -2.5089 H   0  0  0  0  0  0  0  0  0  0  0  0
   -5.6923   -7.6627   -2.4167 H   0  0  0  0  0  0  0  0  0  0  0  0
   -7.1116   -7.0719   -1.4574 H   0  0  0  0  0  0  0  0  0  0  0  0
   -5.3811   -4.3791   -0.2356 H   0  0  0  0  0  0  0  0  0  0  0  0
   -7.8259   -3.9127   -0.2456 H   0  0  0  0  0  0  0  0  0  0  0  0
   -9.3442   -5.9001   -0.0686 H   0  0  0  0  0  0  0  0  0  0  0  0
   -9.4917   -5.6374    1.7169 H   0  0  0  0  0  0  0  0  0  0  0  0
  -10.1550   -4.4263    0.5711 H   0  0  0  0  0  0  0  0  0  0  0  0
   -7.3903   -3.6237    2.6756 H   0  0  0  0  0  0  0  0  0  0  0  0
   -9.4481   -2.3757   -0.2025 H   0  0  0  0  0  0  0  0  0  0  0  0
  -10.4517   -0.0165    1.4776 H   0  0  0  0  0  0  0  0  0  0  0  0
  -11.3081   -1.5797    1.1793 H   0  0  0  0  0  0  0  0  0  0  0  0
  -10.9597   -0.4666   -0.1954 H   0  0  0  0  0  0  0  0  0  0  0  0
   -7.9498   -0.8786   -1.0667 H   0  0  0  0  0  0  0  0  0  0  0  0
   -6.9324    2.4254   -0.0739 H   0  0  0  0  0  0  0  0  0  0  0  0
   -7.1188    1.0606   -2.1577 H   0  0  0  0  0  0  0  0  0  0  0  0
   -8.9295    1.1839   -2.0653 H   0  0  0  0  0  0  0  0  0  0  0  0
   -7.9236    2.6601   -2.3249 H   0  0  0  0  0  0  0  0  0  0  0  0
   -9.9108    2.1975    0.3679 H   0  0  0  0  0  0  0  0  0  0  0  0
   -8.0892    5.8986   -0.2910 H   0  0  0  0  0  0  0  0  0  0  0  0
   -9.7287    5.2032    2.2307 H   0  0  0  0  0  0  0  0  0  0  0  0
   -8.8006    6.7312    1.9717 H   0  0  0  0  0  0  0  0  0  0  0  0
  -10.2050    6.3497    0.9096 H   0  0  0  0  0  0  0  0  0  0  0  0
   -7.3990    3.9166    1.9240 H   0  0  0  0  0  0  0  0  0  0  0  0
   -5.8398    6.0327   -0.6363 H   0  0  0  0  0  0  0  0  0  0  0  0
   -7.1596    7.8519    0.4630 H   0  0  0  0  0  0  0  0  0  0  0  0
   -5.7793    8.2178    1.5535 H   0  0  0  0  0  0  0  0  0  0  0  0
   -5.6367    8.4995   -0.2239 H   0  0  0  0  0  0  0  0  0  0  0  0
   -3.5631    7.3399    0.4706 H   0  0  0  0  0  0  0  0  0  0  0  0
    4.4556   -5.5758    1.9012 H   0  0  0  0  0  0  0  0  0  0  0  0
    4.5746   -5.2864   -1.0373 H   0  0  0  0  0  0  0  0  0  0  0  0
    6.5395   -6.6100    0.9186 H   0  0  0  0  0  0  0  0  0  0  0  0
    5.1323   -7.4028    0.0967 H   0  0  0  0  0  0  0  0  0  0  0  0
    6.5198   -6.7953   -0.8799 H   0  0  0  0  0  0  0  0  0  0  0  0
    5.9850   -3.2073    1.6307 H   0  0  0  0  0  0  0  0  0  0  0  0
    8.2442   -2.2740   -0.0024 H   0  0  0  0  0  0  0  0  0  0  0  0
    8.6694   -4.7142    1.8504 H   0  0  0  0  0  0  0  0  0  0  0  0
   10.0284   -3.6998    1.2628 H   0  0  0  0  0  0  0  0  0  0  0  0
    9.0165   -4.5981    0.0810 H   0  0  0  0  0  0  0  0  0  0  0  0
    9.7117   -0.9120    3.2320 H   0  0  0  0  0  0  0  0  0  0  0  0
    9.2347    0.0369    0.5069 H   0  0  0  0  0  0  0  0  0  0  0  0
   11.6057   -0.5582   -0.3538 H   0  0  0  0  0  0  0  0  0  0  0  0
   11.6642   -1.8040    0.9512 H   0  0  0  0  0  0  0  0  0  0  0  0
   10.4216   -1.8916   -0.3588 H   0  0  0  0  0  0  0  0  0  0  0  0
   11.1791    2.8626    2.0115 H   0  0  0  0  0  0  0  0  0  0  0  0
    8.5752    2.1393    0.7628 H   0  0  0  0  0  0  0  0  0  0  0  0
   10.1429    1.5525   -1.1200 H   0  0  0  0  0  0  0  0  0  0  0  0
   10.8920    3.1885   -1.0075 H   0  0  0  0  0  0  0  0  0  0  0  0
    9.1638    3.0092   -1.5068 H   0  0  0  0  0  0  0  0  0  0  0  0
    7.7066    5.1373    2.0355 H   0  0  0  0  0  0  0  0  0  0  0  0
    7.0790    4.0051   -0.6757 H   0  0  0  0  0  0  0  0  0  0  0  0
    7.4242    7.4659    0.9178 H   0  0  0  0  0  0  0  0  0  0  0  0
    8.0640    8.1799   -0.6071 H   0  0  0  0  0  0  0  0  0  0  0  0
    5.1235    4.1161    0.6965 H   0  0  0  0  0  0  0  0  0  0  0  0
    5.5434    5.7193    1.3514 H   0  0  0  0  0  0  0  0  0  0  0  0
    4.2059    5.1306   -3.0449 H   0  0  0  0  0  0  0  0  0  0  0  0
    5.5217    4.2430   -2.2789 H   0  0  0  0  0  0  0  0  0  0  0  0
  1  2  1  0
  2  3  2  0
  2  4  1  0
  4  5  1  0
  5  6  1  0
  6  7  1  0
  7  8  1  0
  8  9  1  0
  9 10  2  0
 10 11  1  0
 11 12  2  0
 12 13  1  0
 13 14  2  0
 13 15  1  0
 15 16  1  0
 16 17  1  0
 17 18  1  0
 18 19  1  0
 19 20  1  0
 20 21  2  0
 20 22  1  0
 22 23  1  0
 22 24  1  0
 24 25  1  0
 25 26  2  0
 25 27  1  0
 27 28  1  0
 27 29  1  0
 29 30  1  0
 30 31  2  0
 30 32  1  0
 32 33  1  0
 32 34  1  0
 34 35  1  0
 35 36  2  0
 35 37  1  0
 37 38  1  0
 37 39  1  0
 39 40  1  0
 40 41  2  0
 40 42  1  0
 42 43  1  0
 42 44  1  0
 44 45  1  0
 45 46  2  0
 45 47  1  0
 47 48  1  0
 47 49  1  0
 49 50  1  0
 50 51  2  0
 50 52  1  0
 52 53  1  0
 52 54  1  0
 54 55  1  0
 55 56  2  0
 55 57  1  0
 57 58  1  0
 57 59  1  0
 59 60  1  0
 60 61  2  0
 18 62  1  0
 62 63  2  0
 62 64  1  0
 64 65  1  0
 65 66  1  0
 65 67  1  0
 67 68  2  0
 67 69  1  0
 69 70  1  0
 70 71  1  0
 70 72  1  0
 72 73  2  0
 72 74  1  0
 74 75  1  0
 75 76  1  0
 75 77  1  0
 77 78  2  0
 77 79  1  0
 79 80  1  0
 80 81  1  0
 80 82  1  0
 82 83  2  0
 82 84  1  0
 84 85  1  0
 85 86  1  0
 86 87  1  0
 86 88  2  0
 85 89  1  0
 89 90  1  0
 90 91  1  0
 60  5  1  0
 14  9  1  0
 91 11  1  0
  1 92  1  0
  1 93  1  0
  1 94  1  0
  4 95  1  0
  5 96  1  6
  6 97  1  0
  6 98  1  0
  8 99  1  0
  8100  1  0
 10101  1  0
 12102  1  0
 14103  1  0
 15104  1  0
 15105  1  0
 17106  1  0
 17107  1  0
 18108  1  6
 19109  1  0
 22110  1  1
 23111  1  0
 23112  1  0
 23113  1  0
 24114  1  0
 27115  1  6
 28116  1  0
 28117  1  0
 28118  1  0
 29119  1  0
 32120  1  6
 33121  1  0
 33122  1  0
 33123  1  0
 34124  1  0
 37125  1  6
 38126  1  0
 38127  1  0
 38128  1  0
 39129  1  0
 42130  1  6
 43131  1  0
 43132  1  0
 43133  1  0
 44134  1  0
 47135  1  6
 48136  1  0
 48137  1  0
 48138  1  0
 49139  1  0
 52140  1  6
 53141  1  0
 53142  1  0
 53143  1  0
 54144  1  0
 57145  1  6
 58146  1  0
 58147  1  0
 58148  1  0
 59149  1  0
 64150  1  0
 65151  1  6
 66152  1  0
 66153  1  0
 66154  1  0
 69155  1  0
 70156  1  6
 71157  1  0
 71158  1  0
 71159  1  0
 74160  1  0
 75161  1  6
 76162  1  0
 76163  1  0
 76164  1  0
 79165  1  0
 80166  1  6
 81167  1  0
 81168  1  0
 81169  1  0
 84170  1  0
 85171  1  6
 87172  1  0
 87173  1  0
 89174  1  0
 89175  1  0
 91176  1  0
 91177  1  0
M  END
