
     RDKit          3D

197199  0  0  0  0  0  0  0  0999 V2000
    3.4006    8.6776    0.6312 C   0  0  0  0  0  0  0  0  0  0  0  0
    3.5439    7.6882    1.7444 C   0  0  0  0  0  0  0  0  0  0  0  0
    3.6451    8.1152    2.9220 O   0  0  0  0  0  0  0  0  0  0  0  0
    3.6127    6.2706    1.5109 N   0  0  0  0  0  0  0  0  0  0  0  0
    3.3719    5.5833    0.2358 C   0  0  1  0  0  0  0  0  0  0  0  0
    1.8823    5.7035   -0.2139 C   0  0  0  0  0  0  0  0  0  0  0  0
    0.7100    6.0997    1.1414 S   0  0  0  0  0  0  0  0  0  0  0  0
    0.6882    4.4491    1.9367 C   0  0  0  0  0  0  0  0  0  0  0  0
   -0.4542    3.5528    1.5113 C   0  0  0  0  0  0  0  0  0  0  0  0
   -1.5638    4.0165    0.7782 C   0  0  0  0  0  0  0  0  0  0  0  0
   -2.6244    3.1500    0.4600 C   0  0  0  0  0  0  0  0  0  0  0  0
   -2.6063    1.8339    0.9338 C   0  0  0  0  0  0  0  0  0  0  0  0
   -1.5319    1.3767    1.7082 C   0  0  0  0  0  0  0  0  0  0  0  0
   -0.4546    2.2288    1.9747 C   0  0  0  0  0  0  0  0  0  0  0  0
   -1.5644   -0.0076    2.2995 C   0  0  0  0  0  0  0  0  0  0  0  0
   -0.3460   -1.0993    1.4963 S   0  0  0  0  0  0  0  0  0  0  0  0
   -1.2135   -1.2197   -0.1035 C   0  0  0  0  0  0  0  0  0  0  0  0
   -0.6605   -2.4059   -0.9017 C   0  0  2  0  0  0  0  0  0  0  0  0
    0.7404   -2.1491   -1.2768 N   0  0  0  0  0  0  0  0  0  0  0  0
    1.8115   -3.0991   -1.1535 C   0  0  0  0  0  0  0  0  0  0  0  0
    2.9987   -2.6730   -1.1084 O   0  0  0  0  0  0  0  0  0  0  0  0
    1.5577   -4.5787   -1.0369 C   0  0  1  0  0  0  0  0  0  0  0  0
    2.5721   -5.3870   -1.8607 C   0  0  0  0  0  0  0  0  0  0  0  0
    1.5255   -4.9560    0.3838 N   0  0  0  0  0  0  0  0  0  0  0  0
    2.0777   -6.1686    0.9017 C   0  0  0  0  0  0  0  0  0  0  0  0
    1.3161   -7.1457    1.1560 O   0  0  0  0  0  0  0  0  0  0  0  0
    3.5483   -6.2524    1.2182 C   0  0  1  0  0  0  0  0  0  0  0  0
    3.7586   -6.2339    2.7344 C   0  0  0  0  0  0  0  0  0  0  0  0
    4.1335   -7.4711    0.6421 N   0  0  0  0  0  0  0  0  0  0  0  0
    5.5422   -7.7566    0.6162 C   0  0  0  0  0  0  0  0  0  0  0  0
    5.9115   -8.9634    0.5615 O   0  0  0  0  0  0  0  0  0  0  0  0
    6.5930   -6.6721    0.5372 C   0  0  1  0  0  0  0  0  0  0  0  0
    7.7169   -6.9461    1.5415 C   0  0  0  0  0  0  0  0  0  0  0  0
    7.1363   -6.6199   -0.8254 N   0  0  0  0  0  0  0  0  0  0  0  0
    7.4142   -5.4034   -1.5311 C   0  0  0  0  0  0  0  0  0  0  0  0
    7.2199   -5.3698   -2.7763 O   0  0  0  0  0  0  0  0  0  0  0  0
    8.0856   -4.2367   -0.8467 C   0  0  1  0  0  0  0  0  0  0  0  0
    9.5873   -4.5143   -0.7232 C   0  0  0  0  0  0  0  0  0  0  0  0
    7.8803   -3.0043   -1.6128 N   0  0  0  0  0  0  0  0  0  0  0  0
    7.5338   -1.7740   -0.9724 C   0  0  0  0  0  0  0  0  0  0  0  0
    6.3238   -1.5429   -0.7070 O   0  0  0  0  0  0  0  0  0  0  0  0
    8.5879   -0.7748   -0.5442 C   0  0  1  0  0  0  0  0  0  0  0  0
    8.8307   -0.9156    0.9644 C   0  0  0  0  0  0  0  0  0  0  0  0
    9.8487   -0.9477   -1.2832 N   0  0  0  0  0  0  0  0  0  0  0  0
   10.8610    0.0564   -1.4727 C   0  0  0  0  0  0  0  0  0  0  0  0
   11.8289   -0.2070   -2.2385 O   0  0  0  0  0  0  0  0  0  0  0  0
   10.8543    1.3924   -0.7590 C   0  0  1  0  0  0  0  0  0  0  0  0
   11.9990    1.4213    0.2619 C   0  0  0  0  0  0  0  0  0  0  0  0
   11.0140    2.4880   -1.7277 N   0  0  0  0  0  0  0  0  0  0  0  0
   10.5403    3.8334   -1.5361 C   0  0  0  0  0  0  0  0  0  0  0  0
   10.5229    4.6110   -2.5296 O   0  0  0  0  0  0  0  0  0  0  0  0
   10.1333    4.3828   -0.1901 C   0  0  1  0  0  0  0  0  0  0  0  0
   11.2083    5.3331    0.3405 C   0  0  0  0  0  0  0  0  0  0  0  0
    8.8607    5.0972   -0.3153 N   0  0  0  0  0  0  0  0  0  0  0  0
    7.6165    4.5243    0.1147 C   0  0  0  0  0  0  0  0  0  0  0  0
    7.4646    3.2694    0.0907 O   0  0  0  0  0  0  0  0  0  0  0  0
    6.4736    5.3942    0.5607 C   0  0  1  0  0  0  0  0  0  0  0  0
    6.9810    6.5138    1.4762 C   0  0  0  0  0  0  0  0  0  0  0  0
    5.8022    5.9685   -0.6092 N   0  0  0  0  0  0  0  0  0  0  0  0
    4.3771    6.0179   -0.8231 C   0  0  0  0  0  0  0  0  0  0  0  0
    3.9574    6.4379   -1.9404 O   0  0  0  0  0  0  0  0  0  0  0  0
   -1.4971   -2.6469   -2.1343 C   0  0  0  0  0  0  0  0  0  0  0  0
   -1.2183   -2.0142   -3.1900 O   0  0  0  0  0  0  0  0  0  0  0  0
   -2.6134   -3.5583   -2.1546 N   0  0  0  0  0  0  0  0  0  0  0  0
   -3.1584   -4.2654   -0.9830 C   0  0  2  0  0  0  0  0  0  0  0  0
   -2.4104   -5.5837   -0.7506 C   0  0  0  0  0  0  0  0  0  0  0  0
   -4.6203   -4.5675   -1.1926 C   0  0  0  0  0  0  0  0  0  0  0  0
   -4.9715   -5.2971   -2.1614 O   0  0  0  0  0  0  0  0  0  0  0  0
   -5.6022   -4.0618   -0.2721 N   0  0  0  0  0  0  0  0  0  0  0  0
   -6.6288   -4.9015    0.3704 C   0  0  2  0  0  0  0  0  0  0  0  0
   -5.9962   -6.1661    0.9655 C   0  0  0  0  0  0  0  0  0  0  0  0
   -7.7453   -5.2621   -0.5912 C   0  0  0  0  0  0  0  0  0  0  0  0
   -7.4727   -5.9562   -1.6033 O   0  0  0  0  0  0  0  0  0  0  0  0
   -9.1173   -4.8618   -0.3979 N   0  0  0  0  0  0  0  0  0  0  0  0
   -9.6705   -4.2143    0.8010 C   0  0  2  0  0  0  0  0  0  0  0  0
   -9.6783   -5.1878    1.9891 C   0  0  0  0  0  0  0  0  0  0  0  0
  -11.0883   -3.7658    0.5348 C   0  0  0  0  0  0  0  0  0  0  0  0
  -11.9649   -4.6300    0.2586 O   0  0  0  0  0  0  0  0  0  0  0  0
  -11.4872   -2.3925    0.6690 N   0  0  0  0  0  0  0  0  0  0  0  0
  -11.0407   -1.2954   -0.1984 C   0  0  2  0  0  0  0  0  0  0  0  0
  -10.4025   -1.7892   -1.5113 C   0  0  0  0  0  0  0  0  0  0  0  0
  -10.0990   -0.3900    0.5568 C   0  0  0  0  0  0  0  0  0  0  0  0
   -8.9755   -0.8341    0.9108 O   0  0  0  0  0  0  0  0  0  0  0  0
  -10.4561    0.9469    0.9495 N   0  0  0  0  0  0  0  0  0  0  0  0
  -11.4509    1.8058    0.2873 C   0  0  2  0  0  0  0  0  0  0  0  0
  -11.1554    1.9767   -1.2094 C   0  0  0  0  0  0  0  0  0  0  0  0
  -11.5315    3.1546    0.9781 C   0  0  0  0  0  0  0  0  0  0  0  0
  -12.6627    3.5827    1.3316 O   0  0  0  0  0  0  0  0  0  0  0  0
  -10.3653    3.9100    1.3560 N   0  0  0  0  0  0  0  0  0  0  0  0
   -9.4671    4.6220    0.4263 C   0  0  2  0  0  0  0  0  0  0  0  0
  -10.2623    5.2853   -0.7073 C   0  0  0  0  0  0  0  0  0  0  0  0
   -8.3635    3.7116   -0.0708 C   0  0  0  0  0  0  0  0  0  0  0  0
   -8.1887    2.5930    0.4822 O   0  0  0  0  0  0  0  0  0  0  0  0
   -7.4937    4.0721   -1.1532 N   0  0  0  0  0  0  0  0  0  0  0  0
   -6.5656    5.2130   -1.1473 C   0  0  1  0  0  0  0  0  0  0  0  0
   -7.2360    6.4368   -1.7296 C   0  0  0  0  0  0  0  0  0  0  0  0
   -7.2729    7.7011   -1.0551 N   0  0  0  0  0  0  0  0  0  0  0  0
   -7.7539    6.3464   -2.8742 O   0  0  0  0  0  0  0  0  0  0  0  0
   -5.9035    5.4440    0.2287 C   0  0  0  0  0  0  0  0  0  0  0  0
   -5.1805    3.9252    0.9536 S   0  0  0  0  0  0  0  0  0  0  0  0
   -3.8333    3.6745   -0.2594 C   0  0  0  0  0  0  0  0  0  0  0  0
    4.3007    8.6450   -0.0192 H   0  0  0  0  0  0  0  0  0  0  0  0
    3.3078    9.7081    1.0416 H   0  0  0  0  0  0  0  0  0  0  0  0
    2.4916    8.4673    0.0369 H   0  0  0  0  0  0  0  0  0  0  0  0
    3.7983    5.6658    2.3413 H   0  0  0  0  0  0  0  0  0  0  0  0
    3.5527    4.5004    0.3962 H   0  0  0  0  0  0  0  0  0  0  0  0
    1.5620    4.7586   -0.7085 H   0  0  0  0  0  0  0  0  0  0  0  0
    1.7529    6.5050   -0.9683 H   0  0  0  0  0  0  0  0  0  0  0  0
    0.5887    4.6230    3.0323 H   0  0  0  0  0  0  0  0  0  0  0  0
    1.6588    3.9305    1.7811 H   0  0  0  0  0  0  0  0  0  0  0  0
   -1.6385    5.0528    0.4720 H   0  0  0  0  0  0  0  0  0  0  0  0
   -3.4470    1.1780    0.7269 H   0  0  0  0  0  0  0  0  0  0  0  0
    0.3701    1.8656    2.5713 H   0  0  0  0  0  0  0  0  0  0  0  0
   -2.5741   -0.4655    2.2389 H   0  0  0  0  0  0  0  0  0  0  0  0
   -1.3089    0.0591    3.3794 H   0  0  0  0  0  0  0  0  0  0  0  0
   -2.3008   -1.3596    0.0710 H   0  0  0  0  0  0  0  0  0  0  0  0
   -1.0686   -0.2741   -0.6667 H   0  0  0  0  0  0  0  0  0  0  0  0
   -0.7139   -3.2897   -0.2416 H   0  0  0  0  0  0  0  0  0  0  0  0
    0.9830   -1.1941   -1.6230 H   0  0  0  0  0  0  0  0  0  0  0  0
    0.5694   -4.8061   -1.4830 H   0  0  0  0  0  0  0  0  0  0  0  0
    2.5128   -5.0950   -2.9274 H   0  0  0  0  0  0  0  0  0  0  0  0
    3.6131   -5.2211   -1.5119 H   0  0  0  0  0  0  0  0  0  0  0  0
    2.3424   -6.4723   -1.8007 H   0  0  0  0  0  0  0  0  0  0  0  0
    0.8241   -4.4825    0.9953 H   0  0  0  0  0  0  0  0  0  0  0  0
    4.0297   -5.3568    0.7823 H   0  0  0  0  0  0  0  0  0  0  0  0
    3.2685   -5.3394    3.1802 H   0  0  0  0  0  0  0  0  0  0  0  0
    3.3334   -7.1461    3.2009 H   0  0  0  0  0  0  0  0  0  0  0  0
    4.8428   -6.1838    2.9752 H   0  0  0  0  0  0  0  0  0  0  0  0
    3.4940   -8.2614    0.3957 H   0  0  0  0  0  0  0  0  0  0  0  0
    6.1557   -5.6915    0.8017 H   0  0  0  0  0  0  0  0  0  0  0  0
    8.3950   -6.0706    1.6033 H   0  0  0  0  0  0  0  0  0  0  0  0
    7.2974   -7.1157    2.5541 H   0  0  0  0  0  0  0  0  0  0  0  0
    8.3117   -7.8370    1.2406 H   0  0  0  0  0  0  0  0  0  0  0  0
    7.1901   -7.5130   -1.3709 H   0  0  0  0  0  0  0  0  0  0  0  0
    7.6694   -4.1093    0.1738 H   0  0  0  0  0  0  0  0  0  0  0  0
   10.0751   -3.7146   -0.1317 H   0  0  0  0  0  0  0  0  0  0  0  0
    9.7708   -5.4797   -0.2070 H   0  0  0  0  0  0  0  0  0  0  0  0
   10.0638   -4.5558   -1.7250 H   0  0  0  0  0  0  0  0  0  0  0  0
    8.1956   -2.9636   -2.6076 H   0  0  0  0  0  0  0  0  0  0  0  0
    8.1742    0.2366   -0.7522 H   0  0  0  0  0  0  0  0  0  0  0  0
    9.5787   -0.1756    1.3189 H   0  0  0  0  0  0  0  0  0  0  0  0
    7.8838   -0.7414    1.5210 H   0  0  0  0  0  0  0  0  0  0  0  0
    9.1971   -1.9335    1.2080 H   0  0  0  0  0  0  0  0  0  0  0  0
   10.0426   -1.8575   -1.7593 H   0  0  0  0  0  0  0  0  0  0  0  0
    9.8996    1.5266   -0.2258 H   0  0  0  0  0  0  0  0  0  0  0  0
   11.8759    0.5988    0.9957 H   0  0  0  0  0  0  0  0  0  0  0  0
   12.0056    2.3769    0.8205 H   0  0  0  0  0  0  0  0  0  0  0  0
   12.9820    1.3029   -0.2424 H   0  0  0  0  0  0  0  0  0  0  0  0
   11.5066    2.2920   -2.6334 H   0  0  0  0  0  0  0  0  0  0  0  0
   10.0160    3.5751    0.5559 H   0  0  0  0  0  0  0  0  0  0  0  0
   12.1587    4.7816    0.5061 H   0  0  0  0  0  0  0  0  0  0  0  0
   10.8794    5.7720    1.3094 H   0  0  0  0  0  0  0  0  0  0  0  0
   11.3958    6.1588   -0.3791 H   0  0  0  0  0  0  0  0  0  0  0  0
    8.8586    6.0782   -0.6728 H   0  0  0  0  0  0  0  0  0  0  0  0
    5.7680    4.7623    1.1462 H   0  0  0  0  0  0  0  0  0  0  0  0
    6.1341    7.0566    1.9345 H   0  0  0  0  0  0  0  0  0  0  0  0
    7.5841    7.2515    0.9090 H   0  0  0  0  0  0  0  0  0  0  0  0
    7.5992    6.0988    2.2949 H   0  0  0  0  0  0  0  0  0  0  0  0
    6.4002    6.4364   -1.3315 H   0  0  0  0  0  0  0  0  0  0  0  0
   -3.1089   -3.6644   -3.0723 H   0  0  0  0  0  0  0  0  0  0  0  0
   -3.0576   -3.6332   -0.0737 H   0  0  0  0  0  0  0  0  0  0  0  0
   -2.4327   -6.2109   -1.6668 H   0  0  0  0  0  0  0  0  0  0  0  0
   -1.3585   -5.4138   -0.4640 H   0  0  0  0  0  0  0  0  0  0  0  0
   -2.8863   -6.1532    0.0774 H   0  0  0  0  0  0  0  0  0  0  0  0
   -5.4306   -3.1191    0.1511 H   0  0  0  0  0  0  0  0  0  0  0  0
   -7.0334   -4.3209    1.2215 H   0  0  0  0  0  0  0  0  0  0  0  0
   -6.7549   -6.7627    1.5094 H   0  0  0  0  0  0  0  0  0  0  0  0
   -5.1901   -5.8860    1.6797 H   0  0  0  0  0  0  0  0  0  0  0  0
   -5.5566   -6.8032    0.1701 H   0  0  0  0  0  0  0  0  0  0  0  0
   -9.7644   -5.0652   -1.1908 H   0  0  0  0  0  0  0  0  0  0  0  0
   -9.0588   -3.3295    1.0591 H   0  0  0  0  0  0  0  0  0  0  0  0
  -10.1524   -4.7036    2.8701 H   0  0  0  0  0  0  0  0  0  0  0  0
   -8.6511   -5.4875    2.2810 H   0  0  0  0  0  0  0  0  0  0  0  0
  -10.2530   -6.1025    1.7328 H   0  0  0  0  0  0  0  0  0  0  0  0
  -12.3796   -2.2322    1.1829 H   0  0  0  0  0  0  0  0  0  0  0  0
  -11.9452   -0.7321   -0.4865 H   0  0  0  0  0  0  0  0  0  0  0  0
  -11.1026   -2.4736   -2.0390 H   0  0  0  0  0  0  0  0  0  0  0  0
  -10.1910   -0.9285   -2.1801 H   0  0  0  0  0  0  0  0  0  0  0  0
   -9.4448   -2.3151   -1.3231 H   0  0  0  0  0  0  0  0  0  0  0  0
   -9.9440    1.3223    1.7808 H   0  0  0  0  0  0  0  0  0  0  0  0
  -12.4472    1.3202    0.3807 H   0  0  0  0  0  0  0  0  0  0  0  0
  -10.0903    2.2066   -1.3882 H   0  0  0  0  0  0  0  0  0  0  0  0
  -11.7929    2.7798   -1.6351 H   0  0  0  0  0  0  0  0  0  0  0  0
  -11.3988    1.0523   -1.7655 H   0  0  0  0  0  0  0  0  0  0  0  0
  -10.3395    4.2343    2.3538 H   0  0  0  0  0  0  0  0  0  0  0  0
   -8.9739    5.4400    0.9975 H   0  0  0  0  0  0  0  0  0  0  0  0
   -9.7561    6.2107   -1.0405 H   0  0  0  0  0  0  0  0  0  0  0  0
  -10.3690    4.6208   -1.5868 H   0  0  0  0  0  0  0  0  0  0  0  0
  -11.2695    5.5859   -0.3569 H   0  0  0  0  0  0  0  0  0  0  0  0
   -7.2779    3.3070   -1.8314 H   0  0  0  0  0  0  0  0  0  0  0  0
   -5.7422    4.9732   -1.8537 H   0  0  0  0  0  0  0  0  0  0  0  0
   -7.8297    8.4852   -1.4662 H   0  0  0  0  0  0  0  0  0  0  0  0
   -6.7021    7.9078   -0.2049 H   0  0  0  0  0  0  0  0  0  0  0  0
   -5.0981    6.2033    0.1350 H   0  0  0  0  0  0  0  0  0  0  0  0
   -6.6498    5.8327    0.9507 H   0  0  0  0  0  0  0  0  0  0  0  0
   -3.5885    4.6157   -0.7977 H   0  0  0  0  0  0  0  0  0  0  0  0
   -4.1691    2.9297   -1.0163 H   0  0  0  0  0  0  0  0  0  0  0  0
  1  2  1  0
  2  3  2  0
  2  4  1  0
  4  5  1  0
  5  6  1  0
  6  7  1  0
  7  8  1  0
  8  9  1  0
  9 10  2  0
 10 11  1  0
 11 12  2  0
 12 13  1  0
 13 14  2  0
 13 15  1  0
 15 16  1  0
 16 17  1  0
 17 18  1  0
 18 19  1  0
 19 20  1  0
 20 21  2  0
 20 22  1  0
 22 23  1  0
 22 24  1  0
 24 25  1  0
 25 26  2  0
 25 27  1  0
 27 28  1  0
 27 29  1  0
 29 30  1  0
 30 31  2  0
 30 32  1  0
 32 33  1  0
 32 34  1  0
 34 35  1  0
 35 36  2  0
 35 37  1  0
 37 38  1  0
 37 39  1  0
 39 40  1  0
 40 41  2  0
 40 42  1  0
 42 43  1  0
 42 44  1  0
 44 45  1  0
 45 46  2  0
 45 47  1  0
 47 48  1  0
 47 49  1  0
 49 50  1  0
 50 51  2  0
 50 52  1  0
 52 53  1  0
 52 54  1  0
 54 55  1  0
 55 56  2  0
 55 57  1  0
 57 58  1  0
 57 59  1  0
 59 60  1  0
 60 61  2  0
 18 62  1  0
 62 63  2  0
 62 64  1  0
 64 65  1  0
 65 66  1  0
 65 67  1  0
 67 68  2  0
 67 69  1  0
 69 70  1  0
 70 71  1  0
 70 72  1  0
 72 73  2  0
 72 74  1  0
 74 75  1  0
 75 76  1  0
 75 77  1  0
 77 78  2  0
 77 79  1  0
 79 80  1  0
 80 81  1  0
 80 82  1  0
 82 83  2  0
 82 84  1  0
 84 85  1  0
 85 86  1  0
 85 87  1  0
 87 88  2  0
 87 89  1  0
 89 90  1  0
 90 91  1  0
 90 92  1  0
 92 93  2  0
 92 94  1  0
 94 95  1  0
 95 96  1  0
 96 97  1  0
 96 98  2  0
 95 99  1  0
 99100  1  0
100101  1  0
 60  5  1  0
 14  9  1  0
101 11  1  0
  1102  1  0
  1103  1  0
  1104  1  0
  4105  1  0
  5106  1  1
  6107  1  0
  6108  1  0
  8109  1  0
  8110  1  0
 10111  1  0
 12112  1  0
 14113  1  0
 15114  1  0
 15115  1  0
 17116  1  0
 17117  1  0
 18118  1  1
 19119  1  0
 22120  1  6
 23121  1  0
 23122  1  0
 23123  1  0
 24124  1  0
 27125  1  6
 28126  1  0
 28127  1  0
 28128  1  0
 29129  1  0
 32130  1  1
 33131  1  0
 33132  1  0
 33133  1  0
 34134  1  0
 37135  1  1
 38136  1  0
 38137  1  0
 38138  1  0
 39139  1  0
 42140  1  1
 43141  1  0
 43142  1  0
 43143  1  0
 44144  1  0
 47145  1  1
 48146  1  0
 48147  1  0
 48148  1  0
 49149  1  0
 52150  1  1
 53151  1  0
 53152  1  0
 53153  1  0
 54154  1  0
 57155  1  1
 58156  1  0
 58157  1  0
 58158  1  0
 59159  1  0
 64160  1  0
 65161  1  1
 66162  1  0
 66163  1  0
 66164  1  0
 69165  1  0
 70166  1  1
 71167  1  0
 71168  1  0
 71169  1  0
 74170  1  0
 75171  1  1
 76172  1  0
 76173  1  0
 76174  1  0
 79175  1  0
 80176  1  6
 81177  1  0
 81178  1  0
 81179  1  0
 84180  1  0
 85181  1  6
 86182  1  0
 86183  1  0
 86184  1  0
 89185  1  0
 90186  1  1
 91187  1  0
 91188  1  0
 91189  1  0
 94190  1  0
 95191  1  6
 97192  1  0
 97193  1  0
 99194  1  0
 99195  1  0
101196  1  0
101197  1  0
M  END
