
     RDKit          3D

137139  0  0  0  0  0  0  0  0999 V2000
    7.8325    0.4575    2.3281 C   0  0  0  0  0  0  0  0  0  0  0  0
    8.9814    0.6382    1.3812 C   0  0  0  0  0  0  0  0  0  0  0  0
   10.1481    0.6912    1.8573 O   0  0  0  0  0  0  0  0  0  0  0  0
    8.8099    0.7208   -0.0447 N   0  0  0  0  0  0  0  0  0  0  0  0
    7.5218    0.7787   -0.7471 C   0  0  1  0  0  0  0  0  0  0  0  0
    7.2204    2.2290   -1.1813 C   0  0  0  0  0  0  0  0  0  0  0  0
    6.8992    3.3192    0.2596 S   0  0  0  0  0  0  0  0  0  0  0  0
    5.6080    4.3613   -0.5340 C   0  0  0  0  0  0  0  0  0  0  0  0
    4.2114    3.9158   -0.1628 C   0  0  0  0  0  0  0  0  0  0  0  0
    3.2342    4.8697    0.1760 C   0  0  0  0  0  0  0  0  0  0  0  0
    1.9172    4.4714    0.4684 C   0  0  0  0  0  0  0  0  0  0  0  0
    1.5834    3.1092    0.4372 C   0  0  0  0  0  0  0  0  0  0  0  0
    2.5543    2.1450    0.1236 C   0  0  0  0  0  0  0  0  0  0  0  0
    3.8546    2.5594   -0.2057 C   0  0  0  0  0  0  0  0  0  0  0  0
    2.2288    0.6800    0.1594 C   0  0  0  0  0  0  0  0  0  0  0  0
    3.2594   -0.1452    1.4261 S   0  0  0  0  0  0  0  0  0  0  0  0
    3.8668   -1.4981    0.3508 C   0  0  0  0  0  0  0  0  0  0  0  0
    4.6777   -2.5357    1.1475 C   0  0  2  0  0  0  0  0  0  0  0  0
    5.1844   -3.5901    0.2531 N   0  0  0  0  0  0  0  0  0  0  0  0
    6.2066   -3.4105   -0.7462 C   0  0  0  0  0  0  0  0  0  0  0  0
    6.2460   -4.2203   -1.7137 O   0  0  0  0  0  0  0  0  0  0  0  0
    7.2750   -2.3395   -0.6548 C   0  0  1  0  0  0  0  0  0  0  0  0
    8.6435   -2.9932   -0.4495 C   0  0  0  0  0  0  0  0  0  0  0  0
    7.2878   -1.5468   -1.8862 N   0  0  0  0  0  0  0  0  0  0  0  0
    7.5813   -0.1373   -1.9574 C   0  0  0  0  0  0  0  0  0  0  0  0
    7.9404    0.3397   -3.0666 O   0  0  0  0  0  0  0  0  0  0  0  0
    3.9043   -3.1257    2.3148 C   0  0  0  0  0  0  0  0  0  0  0  0
    4.0302   -2.5919    3.4477 O   0  0  0  0  0  0  0  0  0  0  0  0
    3.0577   -4.2813    2.1902 N   0  0  0  0  0  0  0  0  0  0  0  0
    1.9393   -4.3408    1.2386 C   0  0  2  0  0  0  0  0  0  0  0  0
    0.8008   -3.4586    1.7709 C   0  0  0  0  0  0  0  0  0  0  0  0
    1.4579   -5.7618    1.0476 C   0  0  0  0  0  0  0  0  0  0  0  0
    2.0248   -6.7062    1.6567 O   0  0  0  0  0  0  0  0  0  0  0  0
    0.2946   -6.0634    0.2597 N   0  0  0  0  0  0  0  0  0  0  0  0
    0.1892   -5.7987   -1.1855 C   0  0  2  0  0  0  0  0  0  0  0  0
   -0.1147   -4.3296   -1.5161 C   0  0  0  0  0  0  0  0  0  0  0  0
   -0.8647   -6.6860   -1.8204 C   0  0  0  0  0  0  0  0  0  0  0  0
   -0.4899   -7.5618   -2.6453 O   0  0  0  0  0  0  0  0  0  0  0  0
   -2.2764   -6.5315   -1.5775 N   0  0  0  0  0  0  0  0  0  0  0  0
   -2.8669   -6.0789   -0.3099 C   0  0  2  0  0  0  0  0  0  0  0  0
   -3.2918   -7.2895    0.5251 C   0  0  0  0  0  0  0  0  0  0  0  0
   -4.0527   -5.1866   -0.5693 C   0  0  0  0  0  0  0  0  0  0  0  0
   -5.0834   -5.6619   -1.1170 O   0  0  0  0  0  0  0  0  0  0  0  0
   -4.0195   -3.8090   -0.1555 N   0  0  0  0  0  0  0  0  0  0  0  0
   -5.1948   -3.0715    0.3319 C   0  0  2  0  0  0  0  0  0  0  0  0
   -5.9055   -3.8751    1.4297 C   0  0  0  0  0  0  0  0  0  0  0  0
   -6.1431   -2.7000   -0.7906 C   0  0  0  0  0  0  0  0  0  0  0  0
   -5.9667   -3.1779   -1.9471 O   0  0  0  0  0  0  0  0  0  0  0  0
   -7.2669   -1.8249   -0.5847 N   0  0  0  0  0  0  0  0  0  0  0  0
   -7.3418   -0.8054    0.4696 C   0  0  2  0  0  0  0  0  0  0  0  0
   -8.7800   -0.7120    0.9876 C   0  0  0  0  0  0  0  0  0  0  0  0
   -6.8028    0.5049   -0.0554 C   0  0  0  0  0  0  0  0  0  0  0  0
   -5.5640    0.5969   -0.2879 O   0  0  0  0  0  0  0  0  0  0  0  0
   -7.6582    1.6249   -0.3371 N   0  0  0  0  0  0  0  0  0  0  0  0
   -7.2318    3.0035   -0.0548 C   0  0  2  0  0  0  0  0  0  0  0  0
   -8.4348    3.9451   -0.1385 C   0  0  0  0  0  0  0  0  0  0  0  0
   -6.1563    3.4316   -1.0253 C   0  0  0  0  0  0  0  0  0  0  0  0
   -6.3290    3.2306   -2.2593 O   0  0  0  0  0  0  0  0  0  0  0  0
   -4.9108    3.9968   -0.5839 N   0  0  0  0  0  0  0  0  0  0  0  0
   -4.8198    5.0261    0.4594 C   0  0  2  0  0  0  0  0  0  0  0  0
   -5.3554    6.3710   -0.0555 C   0  0  0  0  0  0  0  0  0  0  0  0
   -3.3998    5.1303    0.9758 C   0  0  0  0  0  0  0  0  0  0  0  0
   -3.0653    4.4037    1.9500 O   0  0  0  0  0  0  0  0  0  0  0  0
   -2.4495    6.0817    0.4675 N   0  0  0  0  0  0  0  0  0  0  0  0
   -2.1851    6.2868   -0.9598 C   0  0  1  0  0  0  0  0  0  0  0  0
   -2.3748    7.7314   -1.3682 C   0  0  0  0  0  0  0  0  0  0  0  0
   -2.4624    8.7922   -0.4139 N   0  0  0  0  0  0  0  0  0  0  0  0
   -2.4780    8.0059   -2.5942 O   0  0  0  0  0  0  0  0  0  0  0  0
   -0.7922    5.7581   -1.3444 C   0  0  0  0  0  0  0  0  0  0  0  0
    0.5823    6.6712   -0.5405 S   0  0  0  0  0  0  0  0  0  0  0  0
    0.8779    5.5018    0.8382 C   0  0  0  0  0  0  0  0  0  0  0  0
    8.1904    0.4582    3.3786 H   0  0  0  0  0  0  0  0  0  0  0  0
    7.3340   -0.5114    2.1394 H   0  0  0  0  0  0  0  0  0  0  0  0
    7.0981    1.2801    2.2143 H   0  0  0  0  0  0  0  0  0  0  0  0
    9.6724    0.8642   -0.6202 H   0  0  0  0  0  0  0  0  0  0  0  0
    6.6895    0.4516   -0.0899 H   0  0  0  0  0  0  0  0  0  0  0  0
    8.0803    2.6479   -1.7470 H   0  0  0  0  0  0  0  0  0  0  0  0
    6.3457    2.2126   -1.8617 H   0  0  0  0  0  0  0  0  0  0  0  0
    5.7173    4.3758   -1.6368 H   0  0  0  0  0  0  0  0  0  0  0  0
    5.7732    5.4028   -0.1887 H   0  0  0  0  0  0  0  0  0  0  0  0
    3.4921    5.9195    0.2066 H   0  0  0  0  0  0  0  0  0  0  0  0
    0.5730    2.7920    0.6745 H   0  0  0  0  0  0  0  0  0  0  0  0
    4.5832    1.8061   -0.4586 H   0  0  0  0  0  0  0  0  0  0  0  0
    1.1637    0.5116    0.4281 H   0  0  0  0  0  0  0  0  0  0  0  0
    2.3806    0.2506   -0.8492 H   0  0  0  0  0  0  0  0  0  0  0  0
    4.5200   -1.0511   -0.4288 H   0  0  0  0  0  0  0  0  0  0  0  0
    3.0108   -1.9720   -0.1655 H   0  0  0  0  0  0  0  0  0  0  0  0
    5.5395   -2.0148    1.6077 H   0  0  0  0  0  0  0  0  0  0  0  0
    4.6931   -4.5097    0.2364 H   0  0  0  0  0  0  0  0  0  0  0  0
    7.1036   -1.6887    0.2093 H   0  0  0  0  0  0  0  0  0  0  0  0
    8.9119   -3.6285   -1.3215 H   0  0  0  0  0  0  0  0  0  0  0  0
    9.4202   -2.2057   -0.3291 H   0  0  0  0  0  0  0  0  0  0  0  0
    8.6357   -3.6197    0.4695 H   0  0  0  0  0  0  0  0  0  0  0  0
    7.2906   -2.0644   -2.7952 H   0  0  0  0  0  0  0  0  0  0  0  0
    2.9489   -4.8423    3.0658 H   0  0  0  0  0  0  0  0  0  0  0  0
    2.2836   -3.9801    0.2574 H   0  0  0  0  0  0  0  0  0  0  0  0
   -0.0696   -3.4600    1.0871 H   0  0  0  0  0  0  0  0  0  0  0  0
    0.4603   -3.8196    2.7661 H   0  0  0  0  0  0  0  0  0  0  0  0
    1.1483   -2.4097    1.8700 H   0  0  0  0  0  0  0  0  0  0  0  0
   -0.2986   -6.8347    0.6454 H   0  0  0  0  0  0  0  0  0  0  0  0
    1.1706   -6.0389   -1.6522 H   0  0  0  0  0  0  0  0  0  0  0  0
   -1.0269   -3.9731   -1.0084 H   0  0  0  0  0  0  0  0  0  0  0  0
    0.7293   -3.6711   -1.2482 H   0  0  0  0  0  0  0  0  0  0  0  0
   -0.2633   -4.2194   -2.6123 H   0  0  0  0  0  0  0  0  0  0  0  0
   -2.9206   -6.9999   -2.2530 H   0  0  0  0  0  0  0  0  0  0  0  0
   -2.1336   -5.5008    0.2882 H   0  0  0  0  0  0  0  0  0  0  0  0
   -2.4246   -7.9544    0.7088 H   0  0  0  0  0  0  0  0  0  0  0  0
   -4.0765   -7.8706   -0.0008 H   0  0  0  0  0  0  0  0  0  0  0  0
   -3.6938   -6.9500    1.5045 H   0  0  0  0  0  0  0  0  0  0  0  0
   -3.0882   -3.3632   -0.0057 H   0  0  0  0  0  0  0  0  0  0  0  0
   -4.8215   -2.1266    0.7830 H   0  0  0  0  0  0  0  0  0  0  0  0
   -5.1760   -4.1547    2.2177 H   0  0  0  0  0  0  0  0  0  0  0  0
   -6.3598   -4.8002    1.0169 H   0  0  0  0  0  0  0  0  0  0  0  0
   -6.7102   -3.2788    1.9062 H   0  0  0  0  0  0  0  0  0  0  0  0
   -7.9444   -1.7402   -1.3756 H   0  0  0  0  0  0  0  0  0  0  0  0
   -6.7223   -1.0844    1.3416 H   0  0  0  0  0  0  0  0  0  0  0  0
   -9.4992   -0.5513    0.1566 H   0  0  0  0  0  0  0  0  0  0  0  0
   -8.8679    0.1212    1.7245 H   0  0  0  0  0  0  0  0  0  0  0  0
   -9.0494   -1.6580    1.5056 H   0  0  0  0  0  0  0  0  0  0  0  0
   -8.6497    1.4424   -0.6014 H   0  0  0  0  0  0  0  0  0  0  0  0
   -6.8473    3.0323    0.9855 H   0  0  0  0  0  0  0  0  0  0  0  0
   -9.2663    3.5591    0.4879 H   0  0  0  0  0  0  0  0  0  0  0  0
   -8.7936    4.0389   -1.1872 H   0  0  0  0  0  0  0  0  0  0  0  0
   -8.1716    4.9460    0.2514 H   0  0  0  0  0  0  0  0  0  0  0  0
   -4.0629    3.7670   -1.1473 H   0  0  0  0  0  0  0  0  0  0  0  0
   -5.4522    4.7362    1.3257 H   0  0  0  0  0  0  0  0  0  0  0  0
   -6.4597    6.3415   -0.1279 H   0  0  0  0  0  0  0  0  0  0  0  0
   -5.0826    7.1927    0.6416 H   0  0  0  0  0  0  0  0  0  0  0  0
   -4.9745    6.6005   -1.0673 H   0  0  0  0  0  0  0  0  0  0  0  0
   -1.7976    6.5101    1.1610 H   0  0  0  0  0  0  0  0  0  0  0  0
   -2.9136    5.6982   -1.5511 H   0  0  0  0  0  0  0  0  0  0  0  0
   -2.6750    9.7605   -0.7363 H   0  0  0  0  0  0  0  0  0  0  0  0
   -2.2674    8.6475    0.5988 H   0  0  0  0  0  0  0  0  0  0  0  0
   -0.7211    4.6708   -1.1544 H   0  0  0  0  0  0  0  0  0  0  0  0
   -0.6627    5.8780   -2.4420 H   0  0  0  0  0  0  0  0  0  0  0  0
   -0.0612    5.0062    1.1413 H   0  0  0  0  0  0  0  0  0  0  0  0
    1.2413    6.0927    1.7055 H   0  0  0  0  0  0  0  0  0  0  0  0
  1  2  1  0
  2  3  2  0
  2  4  1  0
  4  5  1  0
  5  6  1  0
  6  7  1  0
  7  8  1  0
  8  9  1  0
  9 10  1  0
 10 11  2  0
 11 12  1  0
 12 13  2  0
 13 14  1  0
 13 15  1  0
 15 16  1  0
 16 17  1  0
 17 18  1  0
 18 19  1  0
 19 20  1  0
 20 21  2  0
 20 22  1  0
 22 23  1  0
 22 24  1  0
 24 25  1  0
 25 26  2  0
 18 27  1  0
 27 28  2  0
 27 29  1  0
 29 30  1  0
 30 31  1  0
 30 32  1  0
 32 33  2  0
 32 34  1  0
 34 35  1  0
 35 36  1  0
 35 37  1  0
 37 38  2  0
 37 39  1  0
 39 40  1  0
 40 41  1  0
 40 42  1  0
 42 43  2  0
 42 44  1  0
 44 45  1  0
 45 46  1  0
 45 47  1  0
 47 48  2  0
 47 49  1  0
 49 50  1  0
 50 51  1  0
 50 52  1  0
 52 53  2  0
 52 54  1  0
 54 55  1  0
 55 56  1  0
 55 57  1  0
 57 58  2  0
 57 59  1  0
 59 60  1  0
 60 61  1  0
 60 62  1  0
 62 63  2  0
 62 64  1  0
 64 65  1  0
 65 66  1  0
 66 67  1  0
 66 68  2  0
 65 69  1  0
 69 70  1  0
 70 71  1  0
 25  5  1  0
 14  9  2  0
 71 11  1  0
  1 72  1  0
  1 73  1  0
  1 74  1  0
  4 75  1  0
  5 76  1  1
  6 77  1  0
  6 78  1  0
  8 79  1  0
  8 80  1  0
 10 81  1  0
 12 82  1  0
 14 83  1  0
 15 84  1  0
 15 85  1  0
 17 86  1  0
 17 87  1  0
 18 88  1  1
 19 89  1  0
 22 90  1  1
 23 91  1  0
 23 92  1  0
 23 93  1  0
 24 94  1  0
 29 95  1  0
 30 96  1  6
 31 97  1  0
 31 98  1  0
 31 99  1  0
 34100  1  0
 35101  1  6
 36102  1  0
 36103  1  0
 36104  1  0
 39105  1  0
 40106  1  1
 41107  1  0
 41108  1  0
 41109  1  0
 44110  1  0
 45111  1  1
 46112  1  0
 46113  1  0
 46114  1  0
 49115  1  0
 50116  1  1
 51117  1  0
 51118  1  0
 51119  1  0
 54120  1  0
 55121  1  1
 56122  1  0
 56123  1  0
 56124  1  0
 59125  1  0
 60126  1  1
 61127  1  0
 61128  1  0
 61129  1  0
 64130  1  0
 65131  1  6
 67132  1  0
 67133  1  0
 69134  1  0
 69135  1  0
 71136  1  0
 71137  1  0
M  END
