
     RDKit          3D

207209  0  0  0  0  0  0  0  0999 V2000
    3.5761    8.9163   -1.2842 C   0  0  0  0  0  0  0  0  0  0  0  0
    3.6577    7.5738   -0.6293 C   0  0  0  0  0  0  0  0  0  0  0  0
    3.3821    6.5546   -1.3090 O   0  0  0  0  0  0  0  0  0  0  0  0
    4.1179    7.4524    0.7281 N   0  0  0  0  0  0  0  0  0  0  0  0
    4.3263    6.1801    1.4300 C   0  0  1  0  0  0  0  0  0  0  0  0
    3.0331    5.3461    1.4934 C   0  0  0  0  0  0  0  0  0  0  0  0
    3.1646    4.0884    2.8154 S   0  0  0  0  0  0  0  0  0  0  0  0
    1.3888    3.9946    3.2471 C   0  0  0  0  0  0  0  0  0  0  0  0
    0.5840    3.1612    2.2812 C   0  0  0  0  0  0  0  0  0  0  0  0
   -0.7340    3.5395    1.9711 C   0  0  0  0  0  0  0  0  0  0  0  0
   -1.5487    2.7188    1.1748 C   0  0  0  0  0  0  0  0  0  0  0  0
   -1.0178    1.5215    0.6637 C   0  0  0  0  0  0  0  0  0  0  0  0
    0.2720    1.0883    1.0324 C   0  0  0  0  0  0  0  0  0  0  0  0
    1.0760    1.9290    1.8192 C   0  0  0  0  0  0  0  0  0  0  0  0
    0.8272   -0.2481    0.5998 C   0  0  0  0  0  0  0  0  0  0  0  0
   -0.4711   -1.5218    0.3602 S   0  0  0  0  0  0  0  0  0  0  0  0
    0.6202   -2.7130   -0.5025 C   0  0  0  0  0  0  0  0  0  0  0  0
   -0.0674   -4.0733   -0.6344 C   0  0  2  0  0  0  0  0  0  0  0  0
    0.8158   -5.0213   -1.3210 N   0  0  0  0  0  0  0  0  0  0  0  0
    1.3819   -6.1729   -0.6771 C   0  0  0  0  0  0  0  0  0  0  0  0
    1.3571   -7.2849   -1.2700 O   0  0  0  0  0  0  0  0  0  0  0  0
    2.0173   -6.0786    0.6846 C   0  0  1  0  0  0  0  0  0  0  0  0
    1.0912   -6.6624    1.7628 C   0  0  0  0  0  0  0  0  0  0  0  0
    3.2874   -6.8213    0.6928 N   0  0  0  0  0  0  0  0  0  0  0  0
    4.5203   -6.3539    0.1153 C   0  0  0  0  0  0  0  0  0  0  0  0
    5.2611   -7.1965   -0.4583 O   0  0  0  0  0  0  0  0  0  0  0  0
    4.9956   -4.9161    0.1724 C   0  0  1  0  0  0  0  0  0  0  0  0
    4.3677   -4.0868   -0.9512 C   0  0  0  0  0  0  0  0  0  0  0  0
    4.7608   -4.3044    1.4861 N   0  0  0  0  0  0  0  0  0  0  0  0
    5.4898   -3.1696    1.9890 C   0  0  0  0  0  0  0  0  0  0  0  0
    5.0553   -2.5851    3.0220 O   0  0  0  0  0  0  0  0  0  0  0  0
    6.8223   -2.7571    1.3973 C   0  0  1  0  0  0  0  0  0  0  0  0
    7.2384   -1.3437    1.8279 C   0  0  0  0  0  0  0  0  0  0  0  0
    7.8441   -3.7215    1.8010 N   0  0  0  0  0  0  0  0  0  0  0  0
    9.1462   -3.7772    1.1980 C   0  0  0  0  0  0  0  0  0  0  0  0
   10.1475   -3.5075    1.9105 O   0  0  0  0  0  0  0  0  0  0  0  0
    9.3475   -4.3279   -0.1985 C   0  0  1  0  0  0  0  0  0  0  0  0
    8.6931   -3.4911   -1.3117 C   0  0  0  0  0  0  0  0  0  0  0  0
   10.7737   -4.5623   -0.4909 N   0  0  0  0  0  0  0  0  0  0  0  0
   11.7611   -3.5604   -0.8039 C   0  0  0  0  0  0  0  0  0  0  0  0
   12.8420   -3.9272   -1.3462 O   0  0  0  0  0  0  0  0  0  0  0  0
   11.5724   -2.0839   -0.5151 C   0  0  1  0  0  0  0  0  0  0  0  0
   12.7057   -1.5881    0.3937 C   0  0  0  0  0  0  0  0  0  0  0  0
   11.5227   -1.3297   -1.7677 N   0  0  0  0  0  0  0  0  0  0  0  0
   11.2226    0.0715   -1.7767 C   0  0  0  0  0  0  0  0  0  0  0  0
   10.0248    0.4482   -1.8948 O   0  0  0  0  0  0  0  0  0  0  0  0
   12.3339    1.0895   -1.7350 C   0  0  1  0  0  0  0  0  0  0  0  0
   12.3376    1.9574   -2.9952 C   0  0  0  0  0  0  0  0  0  0  0  0
   12.2441    1.9087   -0.5184 N   0  0  0  0  0  0  0  0  0  0  0  0
   11.1694    2.8209   -0.2771 C   0  0  0  0  0  0  0  0  0  0  0  0
   11.1331    3.9163   -0.9051 O   0  0  0  0  0  0  0  0  0  0  0  0
   10.1680    2.5233    0.8073 C   0  0  1  0  0  0  0  0  0  0  0  0
   10.6087    3.1287    2.1405 C   0  0  0  0  0  0  0  0  0  0  0  0
    8.8123    2.9454    0.4183 N   0  0  0  0  0  0  0  0  0  0  0  0
    8.4264    4.3198    0.2886 C   0  0  0  0  0  0  0  0  0  0  0  0
    8.3921    4.8427   -0.8622 O   0  0  0  0  0  0  0  0  0  0  0  0
    7.9505    5.1097    1.4853 C   0  0  1  0  0  0  0  0  0  0  0  0
    8.2787    6.6010    1.3589 C   0  0  0  0  0  0  0  0  0  0  0  0
    6.5165    4.9141    1.7202 N   0  0  0  0  0  0  0  0  0  0  0  0
    5.4954    5.4175    0.8463 C   0  0  0  0  0  0  0  0  0  0  0  0
    5.5804    5.2250   -0.3966 O   0  0  0  0  0  0  0  0  0  0  0  0
   -1.3685   -3.9429   -1.3846 C   0  0  0  0  0  0  0  0  0  0  0  0
   -1.3634   -3.7227   -2.6303 O   0  0  0  0  0  0  0  0  0  0  0  0
   -2.6068   -3.9374   -0.6738 N   0  0  0  0  0  0  0  0  0  0  0  0
   -3.3880   -5.1438   -0.3717 C   0  0  2  0  0  0  0  0  0  0  0  0
   -2.5136   -6.3997   -0.2310 C   0  0  0  0  0  0  0  0  0  0  0  0
   -4.4278   -5.3483   -1.4523 C   0  0  0  0  0  0  0  0  0  0  0  0
   -4.0308   -5.5754   -2.6278 O   0  0  0  0  0  0  0  0  0  0  0  0
   -5.8385   -5.2077   -1.2163 N   0  0  0  0  0  0  0  0  0  0  0  0
   -6.5109   -5.5613    0.0470 C   0  0  2  0  0  0  0  0  0  0  0  0
   -6.6713   -7.0828    0.1166 C   0  0  0  0  0  0  0  0  0  0  0  0
   -7.8589   -4.8832    0.1760 C   0  0  0  0  0  0  0  0  0  0  0  0
   -8.6069   -5.2099    1.1386 O   0  0  0  0  0  0  0  0  0  0  0  0
   -8.2935   -3.8748   -0.7535 N   0  0  0  0  0  0  0  0  0  0  0  0
   -9.7208   -3.6633   -1.0216 C   0  0  2  0  0  0  0  0  0  0  0  0
  -10.2793   -4.8711   -1.7862 C   0  0  0  0  0  0  0  0  0  0  0  0
   -9.9591   -2.3999   -1.8273 C   0  0  0  0  0  0  0  0  0  0  0  0
   -9.0823   -2.0230   -2.6481 O   0  0  0  0  0  0  0  0  0  0  0  0
  -11.1749   -1.6346   -1.7291 N   0  0  0  0  0  0  0  0  0  0  0  0
  -12.4164   -2.0869   -1.0920 C   0  0  2  0  0  0  0  0  0  0  0  0
  -13.4655   -2.3614   -2.1739 C   0  0  0  0  0  0  0  0  0  0  0  0
  -12.9632   -1.0946   -0.0829 C   0  0  0  0  0  0  0  0  0  0  0  0
  -13.9363   -1.4581    0.6315 O   0  0  0  0  0  0  0  0  0  0  0  0
  -12.5057    0.2642    0.0390 N   0  0  0  0  0  0  0  0  0  0  0  0
  -11.1125    0.6760    0.2855 C   0  0  2  0  0  0  0  0  0  0  0  0
  -10.4604   -0.2362    1.3414 C   0  0  0  0  0  0  0  0  0  0  0  0
  -11.0835    2.1324    0.7182 C   0  0  0  0  0  0  0  0  0  0  0  0
  -10.7870    2.4215    1.9122 O   0  0  0  0  0  0  0  0  0  0  0  0
  -11.4909    3.2039   -0.1575 N   0  0  0  0  0  0  0  0  0  0  0  0
  -11.2282    3.2867   -1.6005 C   0  0  2  0  0  0  0  0  0  0  0  0
  -12.2060    2.4174   -2.3988 C   0  0  0  0  0  0  0  0  0  0  0  0
   -9.7713    3.0093   -1.8999 C   0  0  0  0  0  0  0  0  0  0  0  0
   -9.4531    1.9871   -2.5671 O   0  0  0  0  0  0  0  0  0  0  0  0
   -8.7194    3.8665   -1.4116 N   0  0  0  0  0  0  0  0  0  0  0  0
   -8.9151    5.2397   -0.9271 C   0  0  2  0  0  0  0  0  0  0  0  0
   -8.4366    6.2269   -1.9878 C   0  0  0  0  0  0  0  0  0  0  0  0
   -8.1894    5.4777    0.3771 C   0  0  0  0  0  0  0  0  0  0  0  0
   -8.3957    6.5564    0.9967 O   0  0  0  0  0  0  0  0  0  0  0  0
   -7.3475    4.4726    0.9638 N   0  0  0  0  0  0  0  0  0  0  0  0
   -5.9239    4.6789    1.2542 C   0  0  2  0  0  0  0  0  0  0  0  0
   -5.6653    6.0300    1.8942 C   0  0  0  0  0  0  0  0  0  0  0  0
   -5.6457    7.2331    1.1272 N   0  0  0  0  0  0  0  0  0  0  0  0
   -5.5248    6.1038    3.1464 O   0  0  0  0  0  0  0  0  0  0  0  0
   -5.0927    4.4455   -0.0231 C   0  0  0  0  0  0  0  0  0  0  0  0
   -3.2884    4.6481    0.2435 S   0  0  0  0  0  0  0  0  0  0  0  0
   -3.0185    3.0192    1.0233 C   0  0  0  0  0  0  0  0  0  0  0  0
    4.2755    8.9471   -2.1464 H   0  0  0  0  0  0  0  0  0  0  0  0
    3.8452    9.7290   -0.5775 H   0  0  0  0  0  0  0  0  0  0  0  0
    2.5436    9.0944   -1.6509 H   0  0  0  0  0  0  0  0  0  0  0  0
    4.2767    8.3297    1.2704 H   0  0  0  0  0  0  0  0  0  0  0  0
    4.5959    6.4288    2.4817 H   0  0  0  0  0  0  0  0  0  0  0  0
    2.1872    6.0345    1.7035 H   0  0  0  0  0  0  0  0  0  0  0  0
    2.8298    4.8368    0.5271 H   0  0  0  0  0  0  0  0  0  0  0  0
    1.3136    3.5195    4.2483 H   0  0  0  0  0  0  0  0  0  0  0  0
    0.9708    5.0168    3.3463 H   0  0  0  0  0  0  0  0  0  0  0  0
   -1.1451    4.4510    2.3984 H   0  0  0  0  0  0  0  0  0  0  0  0
   -1.6326    0.9059    0.0249 H   0  0  0  0  0  0  0  0  0  0  0  0
    2.0667    1.6013    2.1103 H   0  0  0  0  0  0  0  0  0  0  0  0
    1.4350   -0.1192   -0.3226 H   0  0  0  0  0  0  0  0  0  0  0  0
    1.5044   -0.6315    1.3977 H   0  0  0  0  0  0  0  0  0  0  0  0
    0.8904   -2.3122   -1.5057 H   0  0  0  0  0  0  0  0  0  0  0  0
    1.5443   -2.8274    0.0987 H   0  0  0  0  0  0  0  0  0  0  0  0
   -0.2883   -4.4244    0.3907 H   0  0  0  0  0  0  0  0  0  0  0  0
    0.9017   -4.9595   -2.3575 H   0  0  0  0  0  0  0  0  0  0  0  0
    2.1921   -5.0156    0.9369 H   0  0  0  0  0  0  0  0  0  0  0  0
    0.1770   -6.0484    1.8782 H   0  0  0  0  0  0  0  0  0  0  0  0
    1.6195   -6.6876    2.7451 H   0  0  0  0  0  0  0  0  0  0  0  0
    0.7971   -7.7023    1.5005 H   0  0  0  0  0  0  0  0  0  0  0  0
    3.2254   -7.8532    0.8562 H   0  0  0  0  0  0  0  0  0  0  0  0
    6.0934   -4.9598   -0.0037 H   0  0  0  0  0  0  0  0  0  0  0  0
    3.2864   -3.9663   -0.8020 H   0  0  0  0  0  0  0  0  0  0  0  0
    4.8261   -3.0760   -0.9847 H   0  0  0  0  0  0  0  0  0  0  0  0
    4.5455   -4.5673   -1.9370 H   0  0  0  0  0  0  0  0  0  0  0  0
    4.0440   -4.7153    2.1313 H   0  0  0  0  0  0  0  0  0  0  0  0
    6.7231   -2.7411    0.3054 H   0  0  0  0  0  0  0  0  0  0  0  0
    8.1369   -1.0258    1.2624 H   0  0  0  0  0  0  0  0  0  0  0  0
    7.4740   -1.3249    2.9121 H   0  0  0  0  0  0  0  0  0  0  0  0
    6.4205   -0.6192    1.6181 H   0  0  0  0  0  0  0  0  0  0  0  0
    7.7977   -4.0790    2.7860 H   0  0  0  0  0  0  0  0  0  0  0  0
    8.8445   -5.3206   -0.2128 H   0  0  0  0  0  0  0  0  0  0  0  0
    7.6413   -3.7959   -1.4589 H   0  0  0  0  0  0  0  0  0  0  0  0
    9.2035   -3.6735   -2.2812 H   0  0  0  0  0  0  0  0  0  0  0  0
    8.7241   -2.4077   -1.0957 H   0  0  0  0  0  0  0  0  0  0  0  0
   11.0667   -5.5609   -0.5776 H   0  0  0  0  0  0  0  0  0  0  0  0
   10.6297   -1.9112    0.0342 H   0  0  0  0  0  0  0  0  0  0  0  0
   12.4425   -0.6111    0.8310 H   0  0  0  0  0  0  0  0  0  0  0  0
   13.6539   -1.4979   -0.1844 H   0  0  0  0  0  0  0  0  0  0  0  0
   12.8667   -2.2980    1.2388 H   0  0  0  0  0  0  0  0  0  0  0  0
   11.3286   -1.8471   -2.6572 H   0  0  0  0  0  0  0  0  0  0  0  0
   13.3016    0.5453   -1.7127 H   0  0  0  0  0  0  0  0  0  0  0  0
   11.3744    2.4942   -3.1233 H   0  0  0  0  0  0  0  0  0  0  0  0
   12.5102    1.3225   -3.8922 H   0  0  0  0  0  0  0  0  0  0  0  0
   13.1649    2.7036   -2.9369 H   0  0  0  0  0  0  0  0  0  0  0  0
   12.7705    1.5755    0.3185 H   0  0  0  0  0  0  0  0  0  0  0  0
   10.1489    1.4181    0.9459 H   0  0  0  0  0  0  0  0  0  0  0  0
   11.5696    2.6715    2.4641 H   0  0  0  0  0  0  0  0  0  0  0  0
   10.7630    4.2232    2.0453 H   0  0  0  0  0  0  0  0  0  0  0  0
    9.8482    2.9168    2.9178 H   0  0  0  0  0  0  0  0  0  0  0  0
    8.2759    2.2652   -0.1720 H   0  0  0  0  0  0  0  0  0  0  0  0
    8.4843    4.7503    2.3803 H   0  0  0  0  0  0  0  0  0  0  0  0
    7.7645    7.0540    0.4848 H   0  0  0  0  0  0  0  0  0  0  0  0
    9.3746    6.7425    1.2387 H   0  0  0  0  0  0  0  0  0  0  0  0
    7.9549    7.1394    2.2759 H   0  0  0  0  0  0  0  0  0  0  0  0
    6.2157    4.4568    2.6119 H   0  0  0  0  0  0  0  0  0  0  0  0
   -3.1231   -3.0278   -0.6633 H   0  0  0  0  0  0  0  0  0  0  0  0
   -3.8574   -4.9737    0.6088 H   0  0  0  0  0  0  0  0  0  0  0  0
   -1.8153   -6.2727    0.6196 H   0  0  0  0  0  0  0  0  0  0  0  0
   -3.1492   -7.2861   -0.0194 H   0  0  0  0  0  0  0  0  0  0  0  0
   -1.9306   -6.5961   -1.1531 H   0  0  0  0  0  0  0  0  0  0  0  0
   -6.4392   -5.2070   -2.0735 H   0  0  0  0  0  0  0  0  0  0  0  0
   -5.9219   -5.2298    0.9171 H   0  0  0  0  0  0  0  0  0  0  0  0
   -5.6775   -7.5732    0.0556 H   0  0  0  0  0  0  0  0  0  0  0  0
   -7.1474   -7.3854    1.0745 H   0  0  0  0  0  0  0  0  0  0  0  0
   -7.3005   -7.4450   -0.7244 H   0  0  0  0  0  0  0  0  0  0  0  0
   -7.5690   -3.3101   -1.2477 H   0  0  0  0  0  0  0  0  0  0  0  0
  -10.2397   -3.5709   -0.0417 H   0  0  0  0  0  0  0  0  0  0  0  0
  -11.3587   -4.7388   -2.0107 H   0  0  0  0  0  0  0  0  0  0  0  0
   -9.7326   -5.0067   -2.7403 H   0  0  0  0  0  0  0  0  0  0  0  0
  -10.1673   -5.7965   -1.1773 H   0  0  0  0  0  0  0  0  0  0  0  0
  -11.2367   -0.7898   -2.3385 H   0  0  0  0  0  0  0  0  0  0  0  0
  -12.2577   -3.0368   -0.5529 H   0  0  0  0  0  0  0  0  0  0  0  0
  -13.0763   -3.1157   -2.8912 H   0  0  0  0  0  0  0  0  0  0  0  0
  -13.7083   -1.4283   -2.7302 H   0  0  0  0  0  0  0  0  0  0  0  0
  -14.3955   -2.7607   -1.7193 H   0  0  0  0  0  0  0  0  0  0  0  0
  -13.2583    0.9701    0.2113 H   0  0  0  0  0  0  0  0  0  0  0  0
  -10.5195    0.5837   -0.6406 H   0  0  0  0  0  0  0  0  0  0  0  0
   -9.4166    0.0977    1.5455 H   0  0  0  0  0  0  0  0  0  0  0  0
  -11.0463   -0.2231    2.2913 H   0  0  0  0  0  0  0  0  0  0  0  0
  -10.4085   -1.2825    0.9748 H   0  0  0  0  0  0  0  0  0  0  0  0
  -11.8279    4.0799    0.3039 H   0  0  0  0  0  0  0  0  0  0  0  0
  -11.4464    4.3241   -1.9392 H   0  0  0  0  0  0  0  0  0  0  0  0
  -12.1253    2.6495   -3.4801 H   0  0  0  0  0  0  0  0  0  0  0  0
  -11.9990    1.3397   -2.2731 H   0  0  0  0  0  0  0  0  0  0  0  0
  -13.2462    2.6198   -2.0720 H   0  0  0  0  0  0  0  0  0  0  0  0
   -7.7364    3.5608   -1.5953 H   0  0  0  0  0  0  0  0  0  0  0  0
   -9.9886    5.4397   -0.7245 H   0  0  0  0  0  0  0  0  0  0  0  0
   -8.6013    7.2758   -1.6527 H   0  0  0  0  0  0  0  0  0  0  0  0
   -7.3535    6.0838   -2.1946 H   0  0  0  0  0  0  0  0  0  0  0  0
   -9.0098    6.0717   -2.9275 H   0  0  0  0  0  0  0  0  0  0  0  0
   -7.6727    3.4802    0.9130 H   0  0  0  0  0  0  0  0  0  0  0  0
   -5.6302    3.9041    1.9916 H   0  0  0  0  0  0  0  0  0  0  0  0
   -5.5181    8.1625    1.5940 H   0  0  0  0  0  0  0  0  0  0  0  0
   -5.7512    7.2152    0.0867 H   0  0  0  0  0  0  0  0  0  0  0  0
   -5.4098    5.1469   -0.8205 H   0  0  0  0  0  0  0  0  0  0  0  0
   -5.3017    3.4234   -0.4157 H   0  0  0  0  0  0  0  0  0  0  0  0
   -3.4773    3.0095    2.0349 H   0  0  0  0  0  0  0  0  0  0  0  0
   -3.5084    2.2297    0.4126 H   0  0  0  0  0  0  0  0  0  0  0  0
  1  2  1  0
  2  3  2  0
  2  4  1  0
  4  5  1  0
  5  6  1  0
  6  7  1  0
  7  8  1  0
  8  9  1  0
  9 10  2  0
 10 11  1  0
 11 12  2  0
 12 13  1  0
 13 14  2  0
 13 15  1  0
 15 16  1  0
 16 17  1  0
 17 18  1  0
 18 19  1  0
 19 20  1  0
 20 21  2  0
 20 22  1  0
 22 23  1  0
 22 24  1  0
 24 25  1  0
 25 26  2  0
 25 27  1  0
 27 28  1  0
 27 29  1  0
 29 30  1  0
 30 31  2  0
 30 32  1  0
 32 33  1  0
 32 34  1  0
 34 35  1  0
 35 36  2  0
 35 37  1  0
 37 38  1  0
 37 39  1  0
 39 40  1  0
 40 41  2  0
 40 42  1  0
 42 43  1  0
 42 44  1  0
 44 45  1  0
 45 46  2  0
 45 47  1  0
 47 48  1  0
 47 49  1  0
 49 50  1  0
 50 51  2  0
 50 52  1  0
 52 53  1  0
 52 54  1  0
 54 55  1  0
 55 56  2  0
 55 57  1  0
 57 58  1  0
 57 59  1  0
 59 60  1  0
 60 61  2  0
 18 62  1  0
 62 63  2  0
 62 64  1  0
 64 65  1  0
 65 66  1  0
 65 67  1  0
 67 68  2  0
 67 69  1  0
 69 70  1  0
 70 71  1  0
 70 72  1  0
 72 73  2  0
 72 74  1  0
 74 75  1  0
 75 76  1  0
 75 77  1  0
 77 78  2  0
 77 79  1  0
 79 80  1  0
 80 81  1  0
 80 82  1  0
 82 83  2  0
 82 84  1  0
 84 85  1  0
 85 86  1  0
 85 87  1  0
 87 88  2  0
 87 89  1  0
 89 90  1  0
 90 91  1  0
 90 92  1  0
 92 93  2  0
 92 94  1  0
 94 95  1  0
 95 96  1  0
 95 97  1  0
 97 98  2  0
 97 99  1  0
 99100  1  0
100101  1  0
101102  1  0
101103  2  0
100104  1  0
104105  1  0
105106  1  0
 60  5  1  0
 14  9  1  0
106 11  1  0
  1107  1  0
  1108  1  0
  1109  1  0
  4110  1  0
  5111  1  1
  6112  1  0
  6113  1  0
  8114  1  0
  8115  1  0
 10116  1  0
 12117  1  0
 14118  1  0
 15119  1  0
 15120  1  0
 17121  1  0
 17122  1  0
 18123  1  1
 19124  1  0
 22125  1  1
 23126  1  0
 23127  1  0
 23128  1  0
 24129  1  0
 27130  1  6
 28131  1  0
 28132  1  0
 28133  1  0
 29134  1  0
 32135  1  6
 33136  1  0
 33137  1  0
 33138  1  0
 34139  1  0
 37140  1  1
 38141  1  0
 38142  1  0
 38143  1  0
 39144  1  0
 42145  1  1
 43146  1  0
 43147  1  0
 43148  1  0
 44149  1  0
 47150  1  1
 48151  1  0
 48152  1  0
 48153  1  0
 49154  1  0
 52155  1  1
 53156  1  0
 53157  1  0
 53158  1  0
 54159  1  0
 57160  1  1
 58161  1  0
 58162  1  0
 58163  1  0
 59164  1  0
 64165  1  0
 65166  1  1
 66167  1  0
 66168  1  0
 66169  1  0
 69170  1  0
 70171  1  1
 71172  1  0
 71173  1  0
 71174  1  0
 74175  1  0
 75176  1  1
 76177  1  0
 76178  1  0
 76179  1  0
 79180  1  0
 80181  1  1
 81182  1  0
 81183  1  0
 81184  1  0
 84185  1  0
 85186  1  6
 86187  1  0
 86188  1  0
 86189  1  0
 89190  1  0
 90191  1  6
 91192  1  0
 91193  1  0
 91194  1  0
 94195  1  0
 95196  1  1
 96197  1  0
 96198  1  0
 96199  1  0
 99200  1  0
100201  1  1
102202  1  0
102203  1  0
104204  1  0
104205  1  0
106206  1  0
106207  1  0
M  END
