
     RDKit          3D

187189  0  0  0  0  0  0  0  0999 V2000
    2.0451    8.5573   -1.7482 C   0  0  0  0  0  0  0  0  0  0  0  0
    2.2580    7.1113   -2.0762 C   0  0  0  0  0  0  0  0  0  0  0  0
    2.3116    6.7600   -3.2853 O   0  0  0  0  0  0  0  0  0  0  0  0
    2.4038    6.1146   -1.0513 N   0  0  0  0  0  0  0  0  0  0  0  0
    2.3076    6.3884    0.3891 C   0  0  1  0  0  0  0  0  0  0  0  0
    0.8859    6.0798    0.8949 C   0  0  0  0  0  0  0  0  0  0  0  0
    0.4675    4.3000    0.7797 S   0  0  0  0  0  0  0  0  0  0  0  0
   -0.5882    4.4144   -0.7099 C   0  0  0  0  0  0  0  0  0  0  0  0
   -1.2704    3.0936   -0.9433 C   0  0  0  0  0  0  0  0  0  0  0  0
   -2.6637    2.9882   -0.8527 C   0  0  0  0  0  0  0  0  0  0  0  0
   -3.2886    1.7367   -0.9494 C   0  0  0  0  0  0  0  0  0  0  0  0
   -2.5086    0.5914   -1.1619 C   0  0  0  0  0  0  0  0  0  0  0  0
   -1.1108    0.6758   -1.2775 C   0  0  0  0  0  0  0  0  0  0  0  0
   -0.5060    1.9407   -1.1728 C   0  0  0  0  0  0  0  0  0  0  0  0
   -0.2110   -0.5460   -1.2944 C   0  0  0  0  0  0  0  0  0  0  0  0
   -0.8250   -2.0222   -2.2124 S   0  0  0  0  0  0  0  0  0  0  0  0
   -1.8938   -2.9020   -0.9893 C   0  0  0  0  0  0  0  0  0  0  0  0
   -1.3002   -3.1583    0.4152 C   0  0  2  0  0  0  0  0  0  0  0  0
   -0.1995   -4.1264    0.3033 N   0  0  0  0  0  0  0  0  0  0  0  0
   -0.0515   -5.3187    1.0890 C   0  0  0  0  0  0  0  0  0  0  0  0
   -0.3480   -5.3087    2.3143 O   0  0  0  0  0  0  0  0  0  0  0  0
    0.4390   -6.6062    0.4671 C   0  0  1  0  0  0  0  0  0  0  0  0
   -0.7171   -7.5926    0.3102 C   0  0  0  0  0  0  0  0  0  0  0  0
    1.0390   -6.3588   -0.8514 N   0  0  0  0  0  0  0  0  0  0  0  0
    2.4252   -6.5535   -1.1949 C   0  0  0  0  0  0  0  0  0  0  0  0
    2.7922   -6.2789   -2.3713 O   0  0  0  0  0  0  0  0  0  0  0  0
    3.4631   -6.9771   -0.1740 C   0  0  1  0  0  0  0  0  0  0  0  0
    4.7163   -7.5582   -0.8629 C   0  0  0  0  0  0  0  0  0  0  0  0
    3.7796   -5.8329    0.6919 N   0  0  0  0  0  0  0  0  0  0  0  0
    5.0974   -5.5369    1.1682 C   0  0  0  0  0  0  0  0  0  0  0  0
    5.6539   -6.3262    1.9704 O   0  0  0  0  0  0  0  0  0  0  0  0
    5.8944   -4.4009    0.5685 C   0  0  1  0  0  0  0  0  0  0  0  0
    5.0256   -3.4276   -0.2351 C   0  0  0  0  0  0  0  0  0  0  0  0
    6.5906   -3.6655    1.6294 N   0  0  0  0  0  0  0  0  0  0  0  0
    8.0130   -3.6158    1.8535 C   0  0  0  0  0  0  0  0  0  0  0  0
    8.4439   -2.8719    2.7795 O   0  0  0  0  0  0  0  0  0  0  0  0
    9.0309   -4.4070    1.0549 C   0  0  1  0  0  0  0  0  0  0  0  0
    8.9026   -5.9147    1.3067 C   0  0  0  0  0  0  0  0  0  0  0  0
    8.9697   -4.0975   -0.3814 N   0  0  0  0  0  0  0  0  0  0  0  0
    9.0017   -2.7750   -0.9453 C   0  0  0  0  0  0  0  0  0  0  0  0
    8.2214   -2.5223   -1.9008 O   0  0  0  0  0  0  0  0  0  0  0  0
    9.9343   -1.6742   -0.4534 C   0  0  1  0  0  0  0  0  0  0  0  0
   11.2946   -2.2173    0.0263 C   0  0  0  0  0  0  0  0  0  0  0  0
   10.1657   -0.7029   -1.5341 N   0  0  0  0  0  0  0  0  0  0  0  0
   10.8499    0.5372   -1.3129 C   0  0  0  0  0  0  0  0  0  0  0  0
   11.9774    0.7099   -1.8531 O   0  0  0  0  0  0  0  0  0  0  0  0
   10.2549    1.6344   -0.4568 C   0  0  1  0  0  0  0  0  0  0  0  0
   10.7336    1.5222    0.9918 C   0  0  0  0  0  0  0  0  0  0  0  0
   10.6601    2.9396   -0.9939 N   0  0  0  0  0  0  0  0  0  0  0  0
    9.7521    3.9200   -1.5077 C   0  0  0  0  0  0  0  0  0  0  0  0
   10.0505    4.5045   -2.5832 O   0  0  0  0  0  0  0  0  0  0  0  0
    8.6023    4.4387   -0.6676 C   0  0  1  0  0  0  0  0  0  0  0  0
    9.1553    5.5599    0.2257 C   0  0  0  0  0  0  0  0  0  0  0  0
    7.5159    4.9308   -1.5350 N   0  0  0  0  0  0  0  0  0  0  0  0
    6.2073    5.3662   -1.1176 C   0  0  0  0  0  0  0  0  0  0  0  0
    5.3844    5.7225   -2.0061 O   0  0  0  0  0  0  0  0  0  0  0  0
    5.7802    5.4696    0.3268 C   0  0  1  0  0  0  0  0  0  0  0  0
    5.8878    6.9385    0.7769 C   0  0  0  0  0  0  0  0  0  0  0  0
    4.4142    4.9435    0.4719 N   0  0  0  0  0  0  0  0  0  0  0  0
    3.3624    5.6337    1.1599 C   0  0  0  0  0  0  0  0  0  0  0  0
    3.3837    5.6902    2.4205 O   0  0  0  0  0  0  0  0  0  0  0  0
   -2.4068   -3.6146    1.3446 C   0  0  0  0  0  0  0  0  0  0  0  0
   -2.5520   -3.0674    2.4700 O   0  0  0  0  0  0  0  0  0  0  0  0
   -3.2889   -4.6705    0.9565 N   0  0  0  0  0  0  0  0  0  0  0  0
   -4.7358   -4.5630    0.6678 C   0  0  2  0  0  0  0  0  0  0  0  0
   -5.0122   -5.3612   -0.6142 C   0  0  0  0  0  0  0  0  0  0  0  0
   -5.2800   -3.1379    0.5238 C   0  0  0  0  0  0  0  0  0  0  0  0
   -4.5948   -2.1360    0.8534 O   0  0  0  0  0  0  0  0  0  0  0  0
   -6.5947   -2.9008   -0.0002 N   0  0  0  0  0  0  0  0  0  0  0  0
   -7.7869   -3.6090    0.4817 C   0  0  2  0  0  0  0  0  0  0  0  0
   -8.7383   -3.8581   -0.6965 C   0  0  0  0  0  0  0  0  0  0  0  0
   -8.4327   -2.8007    1.5825 C   0  0  0  0  0  0  0  0  0  0  0  0
   -7.7909   -2.5706    2.6449 O   0  0  0  0  0  0  0  0  0  0  0  0
   -9.7757   -2.3271    1.4586 N   0  0  0  0  0  0  0  0  0  0  0  0
  -10.1248   -0.9184    1.2060 C   0  0  2  0  0  0  0  0  0  0  0  0
  -11.5040   -0.8743    0.5273 C   0  0  0  0  0  0  0  0  0  0  0  0
   -9.0568   -0.2064    0.3907 C   0  0  0  0  0  0  0  0  0  0  0  0
   -7.9481    0.0516    0.9319 O   0  0  0  0  0  0  0  0  0  0  0  0
   -9.2442    0.1184   -0.9924 N   0  0  0  0  0  0  0  0  0  0  0  0
   -9.9086    1.3578   -1.3934 C   0  0  2  0  0  0  0  0  0  0  0  0
  -10.7574    1.1046   -2.6387 C   0  0  0  0  0  0  0  0  0  0  0  0
   -8.8824    2.4338   -1.6780 C   0  0  0  0  0  0  0  0  0  0  0  0
   -7.9864    2.2005   -2.5313 O   0  0  0  0  0  0  0  0  0  0  0  0
   -8.9045    3.7249   -1.0448 N   0  0  0  0  0  0  0  0  0  0  0  0
   -9.7339    4.0970    0.1093 C   0  0  2  0  0  0  0  0  0  0  0  0
  -11.1050    4.5806   -0.3822 C   0  0  0  0  0  0  0  0  0  0  0  0
   -9.0123    5.1487    0.9294 C   0  0  0  0  0  0  0  0  0  0  0  0
   -9.5448    6.2767    1.1247 O   0  0  0  0  0  0  0  0  0  0  0  0
   -7.6865    4.9109    1.4467 N   0  0  0  0  0  0  0  0  0  0  0  0
   -7.1176    3.5770    1.6687 C   0  0  2  0  0  0  0  0  0  0  0  0
   -7.1625    3.2620    3.1422 C   0  0  0  0  0  0  0  0  0  0  0  0
   -7.9925    2.2114    3.6388 N   0  0  0  0  0  0  0  0  0  0  0  0
   -6.4878    3.9524    3.9559 O   0  0  0  0  0  0  0  0  0  0  0  0
   -5.6862    3.5139    1.1136 C   0  0  0  0  0  0  0  0  0  0  0  0
   -5.0866    1.7762    1.1077 S   0  0  0  0  0  0  0  0  0  0  0  0
   -4.7668    1.6108   -0.6936 C   0  0  0  0  0  0  0  0  0  0  0  0
    1.1170    8.6704   -1.1504 H   0  0  0  0  0  0  0  0  0  0  0  0
    1.9368    9.1587   -2.6774 H   0  0  0  0  0  0  0  0  0  0  0  0
    2.9088    8.9499   -1.1752 H   0  0  0  0  0  0  0  0  0  0  0  0
    2.4755    5.1180   -1.3604 H   0  0  0  0  0  0  0  0  0  0  0  0
    2.4969    7.4635    0.5916 H   0  0  0  0  0  0  0  0  0  0  0  0
    0.8092    6.3767    1.9633 H   0  0  0  0  0  0  0  0  0  0  0  0
    0.1548    6.7084    0.3418 H   0  0  0  0  0  0  0  0  0  0  0  0
    0.0256    4.6779   -1.5945 H   0  0  0  0  0  0  0  0  0  0  0  0
   -1.3407    5.2163   -0.5607 H   0  0  0  0  0  0  0  0  0  0  0  0
   -3.2618    3.8734   -0.6581 H   0  0  0  0  0  0  0  0  0  0  0  0
   -3.0071   -0.3524   -1.2194 H   0  0  0  0  0  0  0  0  0  0  0  0
    0.5759    2.0273   -1.2354 H   0  0  0  0  0  0  0  0  0  0  0  0
    0.7280   -0.2691   -1.8215 H   0  0  0  0  0  0  0  0  0  0  0  0
    0.1122   -0.7837   -0.2692 H   0  0  0  0  0  0  0  0  0  0  0  0
   -2.8706   -2.3970   -0.9218 H   0  0  0  0  0  0  0  0  0  0  0  0
   -2.1283   -3.8900   -1.4435 H   0  0  0  0  0  0  0  0  0  0  0  0
   -0.9078   -2.2196    0.8449 H   0  0  0  0  0  0  0  0  0  0  0  0
    0.5931   -3.8720   -0.3326 H   0  0  0  0  0  0  0  0  0  0  0  0
    1.1670   -7.0526    1.1707 H   0  0  0  0  0  0  0  0  0  0  0  0
   -1.1709   -7.8174    1.2974 H   0  0  0  0  0  0  0  0  0  0  0  0
   -0.3419   -8.5444   -0.1216 H   0  0  0  0  0  0  0  0  0  0  0  0
   -1.4979   -7.1814   -0.3669 H   0  0  0  0  0  0  0  0  0  0  0  0
    0.4101   -5.9993   -1.6109 H   0  0  0  0  0  0  0  0  0  0  0  0
    3.0518   -7.7975    0.4477 H   0  0  0  0  0  0  0  0  0  0  0  0
    5.4069   -7.9949   -0.1107 H   0  0  0  0  0  0  0  0  0  0  0  0
    4.4247   -8.3716   -1.5626 H   0  0  0  0  0  0  0  0  0  0  0  0
    5.2532   -6.7706   -1.4308 H   0  0  0  0  0  0  0  0  0  0  0  0
    3.0104   -5.1889    0.9884 H   0  0  0  0  0  0  0  0  0  0  0  0
    6.6076   -4.8518   -0.1421 H   0  0  0  0  0  0  0  0  0  0  0  0
    4.2389   -2.9757    0.4069 H   0  0  0  0  0  0  0  0  0  0  0  0
    4.5418   -3.9553   -1.0839 H   0  0  0  0  0  0  0  0  0  0  0  0
    5.6581   -2.6155   -0.6530 H   0  0  0  0  0  0  0  0  0  0  0  0
    5.9892   -3.1369    2.3019 H   0  0  0  0  0  0  0  0  0  0  0  0
   10.0382   -4.1477    1.4298 H   0  0  0  0  0  0  0  0  0  0  0  0
    8.9177   -6.1210    2.3988 H   0  0  0  0  0  0  0  0  0  0  0  0
    7.9768   -6.3343    0.8757 H   0  0  0  0  0  0  0  0  0  0  0  0
    9.7644   -6.4407    0.8433 H   0  0  0  0  0  0  0  0  0  0  0  0
    8.7380   -4.8720   -1.0452 H   0  0  0  0  0  0  0  0  0  0  0  0
    9.4210   -1.1629    0.3842 H   0  0  0  0  0  0  0  0  0  0  0  0
   11.2689   -2.4231    1.1150 H   0  0  0  0  0  0  0  0  0  0  0  0
   11.5887   -3.1314   -0.5345 H   0  0  0  0  0  0  0  0  0  0  0  0
   12.1043   -1.4647   -0.1050 H   0  0  0  0  0  0  0  0  0  0  0  0
   10.2579   -1.0862   -2.5022 H   0  0  0  0  0  0  0  0  0  0  0  0
    9.1479    1.5345   -0.4811 H   0  0  0  0  0  0  0  0  0  0  0  0
   11.8455    1.4949    1.0386 H   0  0  0  0  0  0  0  0  0  0  0  0
   10.3328    0.6067    1.4721 H   0  0  0  0  0  0  0  0  0  0  0  0
   10.3699    2.3963    1.5744 H   0  0  0  0  0  0  0  0  0  0  0  0
   11.6803    3.1187   -1.1376 H   0  0  0  0  0  0  0  0  0  0  0  0
    8.2190    3.6170   -0.0264 H   0  0  0  0  0  0  0  0  0  0  0  0
    9.3345    6.4811   -0.3674 H   0  0  0  0  0  0  0  0  0  0  0  0
   10.1188    5.2500    0.6911 H   0  0  0  0  0  0  0  0  0  0  0  0
    8.4727    5.7886    1.0653 H   0  0  0  0  0  0  0  0  0  0  0  0
    7.6524    4.9066   -2.5722 H   0  0  0  0  0  0  0  0  0  0  0  0
    6.4378    4.8444    0.9604 H   0  0  0  0  0  0  0  0  0  0  0  0
    5.7321    7.0152    1.8726 H   0  0  0  0  0  0  0  0  0  0  0  0
    6.8881    7.3563    0.5470 H   0  0  0  0  0  0  0  0  0  0  0  0
    5.1329    7.5629    0.2552 H   0  0  0  0  0  0  0  0  0  0  0  0
    4.2045    3.9913    0.0959 H   0  0  0  0  0  0  0  0  0  0  0  0
   -2.8717   -5.6293    0.9353 H   0  0  0  0  0  0  0  0  0  0  0  0
   -5.2810   -5.0529    1.5035 H   0  0  0  0  0  0  0  0  0  0  0  0
   -4.5180   -4.8741   -1.4829 H   0  0  0  0  0  0  0  0  0  0  0  0
   -6.0981   -5.4441   -0.8196 H   0  0  0  0  0  0  0  0  0  0  0  0
   -4.6148   -6.3963   -0.5162 H   0  0  0  0  0  0  0  0  0  0  0  0
   -6.7456   -1.9969   -0.5037 H   0  0  0  0  0  0  0  0  0  0  0  0
   -7.5082   -4.5953    0.9082 H   0  0  0  0  0  0  0  0  0  0  0  0
   -8.2192   -4.4410   -1.4835 H   0  0  0  0  0  0  0  0  0  0  0  0
   -9.6187   -4.4446   -0.3548 H   0  0  0  0  0  0  0  0  0  0  0  0
   -9.0829   -2.8993   -1.1331 H   0  0  0  0  0  0  0  0  0  0  0  0
  -10.5148   -2.9443    1.8660 H   0  0  0  0  0  0  0  0  0  0  0  0
  -10.2192   -0.3964    2.1863 H   0  0  0  0  0  0  0  0  0  0  0  0
  -11.4601   -1.3317   -0.4820 H   0  0  0  0  0  0  0  0  0  0  0  0
  -12.2423   -1.4423    1.1345 H   0  0  0  0  0  0  0  0  0  0  0  0
  -11.8766    0.1671    0.4548 H   0  0  0  0  0  0  0  0  0  0  0  0
   -8.5821   -0.3249   -1.6702 H   0  0  0  0  0  0  0  0  0  0  0  0
  -10.5991    1.6823   -0.5947 H   0  0  0  0  0  0  0  0  0  0  0  0
  -11.5295    0.3403   -2.4167 H   0  0  0  0  0  0  0  0  0  0  0  0
  -10.1264    0.7396   -3.4784 H   0  0  0  0  0  0  0  0  0  0  0  0
  -11.2718    2.0366   -2.9503 H   0  0  0  0  0  0  0  0  0  0  0  0
   -8.2980    4.4656   -1.4694 H   0  0  0  0  0  0  0  0  0  0  0  0
   -9.8887    3.2207    0.7782 H   0  0  0  0  0  0  0  0  0  0  0  0
  -11.7632    4.8102    0.4836 H   0  0  0  0  0  0  0  0  0  0  0  0
  -11.5960    3.7941   -0.9892 H   0  0  0  0  0  0  0  0  0  0  0  0
  -10.9967    5.4907   -1.0142 H   0  0  0  0  0  0  0  0  0  0  0  0
   -7.1728    5.7312    1.8451 H   0  0  0  0  0  0  0  0  0  0  0  0
   -7.7048    2.8117    1.1241 H   0  0  0  0  0  0  0  0  0  0  0  0
   -8.5839    1.6390    2.9930 H   0  0  0  0  0  0  0  0  0  0  0  0
   -8.0630    2.0342    4.6643 H   0  0  0  0  0  0  0  0  0  0  0  0
   -4.9987    4.1283    1.7342 H   0  0  0  0  0  0  0  0  0  0  0  0
   -5.6775    3.9644    0.0970 H   0  0  0  0  0  0  0  0  0  0  0  0
   -5.3267    2.3486   -1.3065 H   0  0  0  0  0  0  0  0  0  0  0  0
   -5.1358    0.6143   -1.0159 H   0  0  0  0  0  0  0  0  0  0  0  0
  1  2  1  0
  2  3  2  0
  2  4  1  0
  4  5  1  0
  5  6  1  0
  6  7  1  0
  7  8  1  0
  8  9  1  0
  9 10  2  0
 10 11  1  0
 11 12  2  0
 12 13  1  0
 13 14  2  0
 13 15  1  0
 15 16  1  0
 16 17  1  0
 17 18  1  0
 18 19  1  0
 19 20  1  0
 20 21  2  0
 20 22  1  0
 22 23  1  0
 22 24  1  0
 24 25  1  0
 25 26  2  0
 25 27  1  0
 27 28  1  0
 27 29  1  0
 29 30  1  0
 30 31  2  0
 30 32  1  0
 32 33  1  0
 32 34  1  0
 34 35  1  0
 35 36  2  0
 35 37  1  0
 37 38  1  0
 37 39  1  0
 39 40  1  0
 40 41  2  0
 40 42  1  0
 42 43  1  0
 42 44  1  0
 44 45  1  0
 45 46  2  0
 45 47  1  0
 47 48  1  0
 47 49  1  0
 49 50  1  0
 50 51  2  0
 50 52  1  0
 52 53  1  0
 52 54  1  0
 54 55  1  0
 55 56  2  0
 55 57  1  0
 57 58  1  0
 57 59  1  0
 59 60  1  0
 60 61  2  0
 18 62  1  0
 62 63  2  0
 62 64  1  0
 64 65  1  0
 65 66  1  0
 65 67  1  0
 67 68  2  0
 67 69  1  0
 69 70  1  0
 70 71  1  0
 70 72  1  0
 72 73  2  0
 72 74  1  0
 74 75  1  0
 75 76  1  0
 75 77  1  0
 77 78  2  0
 77 79  1  0
 79 80  1  0
 80 81  1  0
 80 82  1  0
 82 83  2  0
 82 84  1  0
 84 85  1  0
 85 86  1  0
 85 87  1  0
 87 88  2  0
 87 89  1  0
 89 90  1  0
 90 91  1  0
 91 92  1  0
 91 93  2  0
 90 94  1  0
 94 95  1  0
 95 96  1  0
 60  5  1  0
 14  9  1  0
 96 11  1  0
  1 97  1  0
  1 98  1  0
  1 99  1  0
  4100  1  0
  5101  1  6
  6102  1  0
  6103  1  0
  8104  1  0
  8105  1  0
 10106  1  0
 12107  1  0
 14108  1  0
 15109  1  0
 15110  1  0
 17111  1  0
 17112  1  0
 18113  1  1
 19114  1  0
 22115  1  1
 23116  1  0
 23117  1  0
 23118  1  0
 24119  1  0
 27120  1  1
 28121  1  0
 28122  1  0
 28123  1  0
 29124  1  0
 32125  1  6
 33126  1  0
 33127  1  0
 33128  1  0
 34129  1  0
 37130  1  1
 38131  1  0
 38132  1  0
 38133  1  0
 39134  1  0
 42135  1  1
 43136  1  0
 43137  1  0
 43138  1  0
 44139  1  0
 47140  1  1
 48141  1  0
 48142  1  0
 48143  1  0
 49144  1  0
 52145  1  1
 53146  1  0
 53147  1  0
 53148  1  0
 54149  1  0
 57150  1  1
 58151  1  0
 58152  1  0
 58153  1  0
 59154  1  0
 64155  1  0
 65156  1  1
 66157  1  0
 66158  1  0
 66159  1  0
 69160  1  0
 70161  1  1
 71162  1  0
 71163  1  0
 71164  1  0
 74165  1  0
 75166  1  1
 76167  1  0
 76168  1  0
 76169  1  0
 79170  1  0
 80171  1  1
 81172  1  0
 81173  1  0
 81174  1  0
 84175  1  0
 85176  1  1
 86177  1  0
 86178  1  0
 86179  1  0
 89180  1  0
 90181  1  6
 92182  1  0
 92183  1  0
 94184  1  0
 94185  1  0
 96186  1  0
 96187  1  0
M  END
