
     RDKit          3D

207209  0  0  0  0  0  0  0  0999 V2000
   -5.3854    4.1666    2.9549 C   0  0  0  0  0  0  0  0  0  0  0  0
   -5.6649    3.6330    1.5860 C   0  0  0  0  0  0  0  0  0  0  0  0
   -6.3161    2.5594    1.4709 O   0  0  0  0  0  0  0  0  0  0  0  0
   -5.2164    4.3110    0.4041 N   0  0  0  0  0  0  0  0  0  0  0  0
   -4.3824    5.5170    0.4143 C   0  0  1  0  0  0  0  0  0  0  0  0
   -3.8257    5.8491   -0.9835 C   0  0  0  0  0  0  0  0  0  0  0  0
   -2.8560    4.4703   -1.6889 S   0  0  0  0  0  0  0  0  0  0  0  0
   -1.3200    4.7507   -0.7162 C   0  0  0  0  0  0  0  0  0  0  0  0
   -0.3143    3.6683   -1.0070 C   0  0  0  0  0  0  0  0  0  0  0  0
    0.9723    3.9893   -1.4661 C   0  0  0  0  0  0  0  0  0  0  0  0
    1.9265    2.9783   -1.6592 C   0  0  0  0  0  0  0  0  0  0  0  0
    1.5744    1.6407   -1.4170 C   0  0  0  0  0  0  0  0  0  0  0  0
    0.2849    1.3084   -0.9866 C   0  0  0  0  0  0  0  0  0  0  0  0
   -0.6506    2.3293   -0.7712 C   0  0  0  0  0  0  0  0  0  0  0  0
   -0.1492   -0.1286   -0.8591 C   0  0  0  0  0  0  0  0  0  0  0  0
   -0.6189   -0.4997    0.8716 S   0  0  0  0  0  0  0  0  0  0  0  0
    1.0485   -0.9956    1.4354 C   0  0  0  0  0  0  0  0  0  0  0  0
    1.1678   -2.5323    1.4424 C   0  0  2  0  0  0  0  0  0  0  0  0
    0.4250   -3.0690    2.5886 N   0  0  0  0  0  0  0  0  0  0  0  0
   -0.7281   -3.9181    2.4979 C   0  0  0  0  0  0  0  0  0  0  0  0
   -1.6232   -3.8205    3.3831 O   0  0  0  0  0  0  0  0  0  0  0  0
   -0.8589   -5.0047    1.4565 C   0  0  1  0  0  0  0  0  0  0  0  0
   -0.6953   -6.3679    2.1516 C   0  0  0  0  0  0  0  0  0  0  0  0
   -2.1657   -4.8840    0.7864 N   0  0  0  0  0  0  0  0  0  0  0  0
   -2.9188   -5.9722    0.2187 C   0  0  0  0  0  0  0  0  0  0  0  0
   -2.3319   -7.0051   -0.1871 O   0  0  0  0  0  0  0  0  0  0  0  0
   -4.4231   -5.8756    0.0775 C   0  0  1  0  0  0  0  0  0  0  0  0
   -5.0409   -5.2336    1.3242 C   0  0  0  0  0  0  0  0  0  0  0  0
   -4.7704   -5.1316   -1.1438 N   0  0  0  0  0  0  0  0  0  0  0  0
   -6.1052   -4.7934   -1.5668 C   0  0  0  0  0  0  0  0  0  0  0  0
   -6.3174   -3.6278   -2.0007 O   0  0  0  0  0  0  0  0  0  0  0  0
   -7.2782   -5.7621   -1.5675 C   0  0  1  0  0  0  0  0  0  0  0  0
   -6.8910   -7.2216   -1.8398 C   0  0  0  0  0  0  0  0  0  0  0  0
   -8.0729   -5.6335   -0.3344 N   0  0  0  0  0  0  0  0  0  0  0  0
   -8.5456   -4.3694    0.1379 C   0  0  0  0  0  0  0  0  0  0  0  0
   -7.9028   -3.7767    1.0412 O   0  0  0  0  0  0  0  0  0  0  0  0
   -9.8571   -3.7820   -0.3167 C   0  0  1  0  0  0  0  0  0  0  0  0
  -10.1863   -4.0843   -1.7767 C   0  0  0  0  0  0  0  0  0  0  0  0
  -10.9411   -4.2686    0.5461 N   0  0  0  0  0  0  0  0  0  0  0  0
  -11.9760   -3.4464    1.1083 C   0  0  0  0  0  0  0  0  0  0  0  0
  -12.7475   -3.9541    1.9683 O   0  0  0  0  0  0  0  0  0  0  0  0
  -12.1128   -1.9754    0.7701 C   0  0  1  0  0  0  0  0  0  0  0  0
  -13.5827   -1.5361    0.8203 C   0  0  0  0  0  0  0  0  0  0  0  0
  -11.3199   -1.1877    1.7248 N   0  0  0  0  0  0  0  0  0  0  0  0
  -10.5399   -0.0158    1.4176 C   0  0  0  0  0  0  0  0  0  0  0  0
   -9.6815    0.3708    2.2614 O   0  0  0  0  0  0  0  0  0  0  0  0
  -10.8306    0.8656    0.2195 C   0  0  1  0  0  0  0  0  0  0  0  0
  -11.9292    1.8705    0.6000 C   0  0  0  0  0  0  0  0  0  0  0  0
   -9.6216    1.5843   -0.2139 N   0  0  0  0  0  0  0  0  0  0  0  0
   -9.6450    2.4862   -1.3239 C   0  0  0  0  0  0  0  0  0  0  0  0
   -9.9272    2.0397   -2.4691 O   0  0  0  0  0  0  0  0  0  0  0  0
   -9.3730    3.9707   -1.1576 C   0  0  1  0  0  0  0  0  0  0  0  0
  -10.6323    4.7509   -1.5704 C   0  0  0  0  0  0  0  0  0  0  0  0
   -8.9996    4.3122    0.2193 N   0  0  0  0  0  0  0  0  0  0  0  0
   -8.5268    5.6183    0.5927 C   0  0  0  0  0  0  0  0  0  0  0  0
   -9.0110    6.1738    1.6137 O   0  0  0  0  0  0  0  0  0  0  0  0
   -7.4278    6.3258   -0.1768 C   0  0  1  0  0  0  0  0  0  0  0  0
   -8.0115    7.3792   -1.1193 C   0  0  0  0  0  0  0  0  0  0  0  0
   -6.5268    6.9845    0.7780 N   0  0  0  0  0  0  0  0  0  0  0  0
   -5.1205    6.7254    0.9656 C   0  0  0  0  0  0  0  0  0  0  0  0
   -4.4572    7.5393    1.6650 O   0  0  0  0  0  0  0  0  0  0  0  0
    2.6048   -2.9986    1.5054 C   0  0  0  0  0  0  0  0  0  0  0  0
    3.5531   -2.1811    1.3741 O   0  0  0  0  0  0  0  0  0  0  0  0
    2.8859   -4.4005    1.5624 N   0  0  0  0  0  0  0  0  0  0  0  0
    3.7868   -5.0127    0.5849 C   0  0  2  0  0  0  0  0  0  0  0  0
    2.9747   -5.8852   -0.3690 C   0  0  0  0  0  0  0  0  0  0  0  0
    4.8506   -5.8306    1.2901 C   0  0  0  0  0  0  0  0  0  0  0  0
    4.5529   -6.4506    2.3457 O   0  0  0  0  0  0  0  0  0  0  0  0
    6.2041   -5.9068    0.8022 N   0  0  0  0  0  0  0  0  0  0  0  0
    6.5873   -5.7608   -0.6058 C   0  0  2  0  0  0  0  0  0  0  0  0
    6.5610   -7.1410   -1.2710 C   0  0  0  0  0  0  0  0  0  0  0  0
    7.9276   -5.0624   -0.6820 C   0  0  0  0  0  0  0  0  0  0  0  0
    8.0087   -3.8915   -0.2191 O   0  0  0  0  0  0  0  0  0  0  0  0
    9.1150   -5.6982   -1.1986 N   0  0  0  0  0  0  0  0  0  0  0  0
   10.4448   -5.0994   -1.0308 C   0  0  2  0  0  0  0  0  0  0  0  0
   11.4930   -5.8717   -1.8362 C   0  0  0  0  0  0  0  0  0  0  0  0
   10.7994   -5.0803    0.4424 C   0  0  0  0  0  0  0  0  0  0  0  0
   10.8703   -6.1774    1.0566 O   0  0  0  0  0  0  0  0  0  0  0  0
   10.9108   -3.8622    1.2001 N   0  0  0  0  0  0  0  0  0  0  0  0
   11.4566   -2.6028    0.6761 C   0  0  2  0  0  0  0  0  0  0  0  0
   12.9106   -2.8071    0.2272 C   0  0  0  0  0  0  0  0  0  0  0  0
   11.4153   -1.5215    1.7370 C   0  0  0  0  0  0  0  0  0  0  0  0
   11.8830   -1.7899    2.8805 O   0  0  0  0  0  0  0  0  0  0  0  0
   10.9479   -0.1735    1.4823 N   0  0  0  0  0  0  0  0  0  0  0  0
   10.3506    0.3067    0.2316 C   0  0  2  0  0  0  0  0  0  0  0  0
   11.4147    0.4592   -0.8573 C   0  0  0  0  0  0  0  0  0  0  0  0
    9.6650    1.6453    0.4214 C   0  0  0  0  0  0  0  0  0  0  0  0
    8.4818    1.8051    0.0188 O   0  0  0  0  0  0  0  0  0  0  0  0
   10.4016    2.7721    0.9249 N   0  0  0  0  0  0  0  0  0  0  0  0
   10.2131    4.1253    0.3862 C   0  0  2  0  0  0  0  0  0  0  0  0
   11.5249    4.9058    0.4998 C   0  0  0  0  0  0  0  0  0  0  0  0
    9.1069    4.8585    1.1137 C   0  0  0  0  0  0  0  0  0  0  0  0
    8.6931    4.4121    2.2174 O   0  0  0  0  0  0  0  0  0  0  0  0
    8.5477    6.0882    0.6119 N   0  0  0  0  0  0  0  0  0  0  0  0
    8.6096    6.5031   -0.7927 C   0  0  2  0  0  0  0  0  0  0  0  0
    8.4746    8.0211   -0.9340 C   0  0  0  0  0  0  0  0  0  0  0  0
    7.5826    5.7694   -1.6309 C   0  0  0  0  0  0  0  0  0  0  0  0
    7.9982    5.0134   -2.5466 O   0  0  0  0  0  0  0  0  0  0  0  0
    6.1630    5.9432   -1.4809 N   0  0  0  0  0  0  0  0  0  0  0  0
    5.4585    5.9706   -0.1876 C   0  0  1  0  0  0  0  0  0  0  0  0
    5.1897    7.3918    0.2283 C   0  0  0  0  0  0  0  0  0  0  0  0
    4.5426    8.3066   -0.6606 N   0  0  0  0  0  0  0  0  0  0  0  0
    5.5415    7.7889    1.3762 O   0  0  0  0  0  0  0  0  0  0  0  0
    4.1311    5.1987   -0.2885 C   0  0  0  0  0  0  0  0  0  0  0  0
    4.4586    3.4421   -0.7145 S   0  0  0  0  0  0  0  0  0  0  0  0
    3.3141    3.3178   -2.1330 C   0  0  0  0  0  0  0  0  0  0  0  0
   -5.8878    5.1471    3.0871 H   0  0  0  0  0  0  0  0  0  0  0  0
   -4.2930    4.2796    3.1033 H   0  0  0  0  0  0  0  0  0  0  0  0
   -5.7748    3.4698    3.7276 H   0  0  0  0  0  0  0  0  0  0  0  0
   -5.4323    3.8442   -0.5082 H   0  0  0  0  0  0  0  0  0  0  0  0
   -3.5221    5.3279    1.0889 H   0  0  0  0  0  0  0  0  0  0  0  0
   -3.1884    6.7540   -0.9265 H   0  0  0  0  0  0  0  0  0  0  0  0
   -4.6615    6.0671   -1.6760 H   0  0  0  0  0  0  0  0  0  0  0  0
   -0.9156    5.7626   -0.9437 H   0  0  0  0  0  0  0  0  0  0  0  0
   -1.5519    4.6990    0.3634 H   0  0  0  0  0  0  0  0  0  0  0  0
    1.2346    5.0259   -1.6531 H   0  0  0  0  0  0  0  0  0  0  0  0
    2.3205    0.8653   -1.5467 H   0  0  0  0  0  0  0  0  0  0  0  0
   -1.6428    2.0776   -0.4094 H   0  0  0  0  0  0  0  0  0  0  0  0
   -1.0352   -0.2926   -1.5085 H   0  0  0  0  0  0  0  0  0  0  0  0
    0.6402   -0.8300   -1.2328 H   0  0  0  0  0  0  0  0  0  0  0  0
    1.2068   -0.6013    2.4584 H   0  0  0  0  0  0  0  0  0  0  0  0
    1.8257   -0.5300    0.7863 H   0  0  0  0  0  0  0  0  0  0  0  0
    0.7395   -2.9048    0.4893 H   0  0  0  0  0  0  0  0  0  0  0  0
    0.6801   -2.7110    3.5364 H   0  0  0  0  0  0  0  0  0  0  0  0
   -0.0694   -4.9274    0.6917 H   0  0  0  0  0  0  0  0  0  0  0  0
   -0.4980   -7.1724    1.4119 H   0  0  0  0  0  0  0  0  0  0  0  0
   -1.6016   -6.6255    2.7459 H   0  0  0  0  0  0  0  0  0  0  0  0
    0.1820   -6.3542    2.8341 H   0  0  0  0  0  0  0  0  0  0  0  0
   -2.5815   -3.9240    0.7055 H   0  0  0  0  0  0  0  0  0  0  0  0
   -4.8038   -6.9111   -0.0046 H   0  0  0  0  0  0  0  0  0  0  0  0
   -5.0233   -4.1272    1.2445 H   0  0  0  0  0  0  0  0  0  0  0  0
   -6.0827   -5.5764    1.4409 H   0  0  0  0  0  0  0  0  0  0  0  0
   -4.4930   -5.5400    2.2369 H   0  0  0  0  0  0  0  0  0  0  0  0
   -4.0058   -4.6042   -1.6244 H   0  0  0  0  0  0  0  0  0  0  0  0
   -7.9205   -5.4766   -2.4216 H   0  0  0  0  0  0  0  0  0  0  0  0
   -7.7753   -7.7695   -2.2305 H   0  0  0  0  0  0  0  0  0  0  0  0
   -6.5763   -7.7428   -0.9200 H   0  0  0  0  0  0  0  0  0  0  0  0
   -6.0847   -7.2768   -2.6012 H   0  0  0  0  0  0  0  0  0  0  0  0
   -8.1301   -6.4428    0.3271 H   0  0  0  0  0  0  0  0  0  0  0  0
   -9.7560   -2.6785   -0.2243 H   0  0  0  0  0  0  0  0  0  0  0  0
   -9.3972   -3.6694   -2.4400 H   0  0  0  0  0  0  0  0  0  0  0  0
  -10.2877   -5.1794   -1.9406 H   0  0  0  0  0  0  0  0  0  0  0  0
  -11.1463   -3.6037   -2.0504 H   0  0  0  0  0  0  0  0  0  0  0  0
  -10.9762   -5.2992    0.7516 H   0  0  0  0  0  0  0  0  0  0  0  0
  -11.7665   -1.8136   -0.2645 H   0  0  0  0  0  0  0  0  0  0  0  0
  -13.9430   -1.4819    1.8695 H   0  0  0  0  0  0  0  0  0  0  0  0
  -14.2174   -2.2572    0.2596 H   0  0  0  0  0  0  0  0  0  0  0  0
  -13.7080   -0.5469    0.3439 H   0  0  0  0  0  0  0  0  0  0  0  0
  -11.2935   -1.5150    2.7176 H   0  0  0  0  0  0  0  0  0  0  0  0
  -11.1926    0.2541   -0.6318 H   0  0  0  0  0  0  0  0  0  0  0  0
  -12.3683    2.2990   -0.3207 H   0  0  0  0  0  0  0  0  0  0  0  0
  -11.5102    2.6852    1.2230 H   0  0  0  0  0  0  0  0  0  0  0  0
  -12.7419    1.3794    1.1673 H   0  0  0  0  0  0  0  0  0  0  0  0
   -8.6785    1.3034    0.1487 H   0  0  0  0  0  0  0  0  0  0  0  0
   -8.5391    4.2456   -1.8402 H   0  0  0  0  0  0  0  0  0  0  0  0
  -11.5206    4.3785   -1.0200 H   0  0  0  0  0  0  0  0  0  0  0  0
  -10.8102    4.6267   -2.6614 H   0  0  0  0  0  0  0  0  0  0  0  0
  -10.5264    5.8342   -1.3564 H   0  0  0  0  0  0  0  0  0  0  0  0
   -9.3780    3.7329    1.0054 H   0  0  0  0  0  0  0  0  0  0  0  0
   -6.8861    5.6006   -0.8101 H   0  0  0  0  0  0  0  0  0  0  0  0
   -8.6630    8.0849   -0.5612 H   0  0  0  0  0  0  0  0  0  0  0  0
   -8.5912    6.8927   -1.9213 H   0  0  0  0  0  0  0  0  0  0  0  0
   -7.1878    7.9488   -1.5976 H   0  0  0  0  0  0  0  0  0  0  0  0
   -6.9253    7.7694    1.3425 H   0  0  0  0  0  0  0  0  0  0  0  0
    2.2725   -5.0173    2.1424 H   0  0  0  0  0  0  0  0  0  0  0  0
    4.2770   -4.2085   -0.0021 H   0  0  0  0  0  0  0  0  0  0  0  0
    2.6285   -6.8069    0.1469 H   0  0  0  0  0  0  0  0  0  0  0  0
    3.5898   -6.1650   -1.2506 H   0  0  0  0  0  0  0  0  0  0  0  0
    2.0855   -5.3197   -0.7267 H   0  0  0  0  0  0  0  0  0  0  0  0
    6.9140   -6.3329    1.4405 H   0  0  0  0  0  0  0  0  0  0  0  0
    5.8669   -5.1237   -1.1562 H   0  0  0  0  0  0  0  0  0  0  0  0
    5.5500   -7.5919   -1.1742 H   0  0  0  0  0  0  0  0  0  0  0  0
    7.2908   -7.8216   -0.7806 H   0  0  0  0  0  0  0  0  0  0  0  0
    6.7947   -7.0491   -2.3511 H   0  0  0  0  0  0  0  0  0  0  0  0
    9.0379   -6.6017   -1.7228 H   0  0  0  0  0  0  0  0  0  0  0  0
   10.4077   -4.0674   -1.4390 H   0  0  0  0  0  0  0  0  0  0  0  0
   11.2248   -5.8583   -2.9148 H   0  0  0  0  0  0  0  0  0  0  0  0
   11.5605   -6.9217   -1.4950 H   0  0  0  0  0  0  0  0  0  0  0  0
   12.4885   -5.3978   -1.7315 H   0  0  0  0  0  0  0  0  0  0  0  0
   10.6503   -3.9186    2.2083 H   0  0  0  0  0  0  0  0  0  0  0  0
   10.8510   -2.2925   -0.1864 H   0  0  0  0  0  0  0  0  0  0  0  0
   13.3911   -1.8402   -0.0335 H   0  0  0  0  0  0  0  0  0  0  0  0
   13.5092   -3.2838    1.0329 H   0  0  0  0  0  0  0  0  0  0  0  0
   12.9495   -3.4435   -0.6741 H   0  0  0  0  0  0  0  0  0  0  0  0
   11.0244    0.4843    2.2987 H   0  0  0  0  0  0  0  0  0  0  0  0
    9.5794   -0.4229   -0.1032 H   0  0  0  0  0  0  0  0  0  0  0  0
   12.2324    1.1250   -0.5079 H   0  0  0  0  0  0  0  0  0  0  0  0
   10.9653    0.8872   -1.7718 H   0  0  0  0  0  0  0  0  0  0  0  0
   11.8454   -0.5141   -1.1358 H   0  0  0  0  0  0  0  0  0  0  0  0
   11.1610    2.6146    1.6366 H   0  0  0  0  0  0  0  0  0  0  0  0
    9.9512    4.0348   -0.6934 H   0  0  0  0  0  0  0  0  0  0  0  0
   11.4368    5.9253    0.0737 H   0  0  0  0  0  0  0  0  0  0  0  0
   11.8371    4.9864    1.5616 H   0  0  0  0  0  0  0  0  0  0  0  0
   12.3237    4.3692   -0.0561 H   0  0  0  0  0  0  0  0  0  0  0  0
    8.0399    6.6934    1.2958 H   0  0  0  0  0  0  0  0  0  0  0  0
    9.6144    6.2640   -1.2027 H   0  0  0  0  0  0  0  0  0  0  0  0
    7.4763    8.3795   -0.6218 H   0  0  0  0  0  0  0  0  0  0  0  0
    8.6442    8.3194   -1.9863 H   0  0  0  0  0  0  0  0  0  0  0  0
    9.2326    8.5243   -0.2988 H   0  0  0  0  0  0  0  0  0  0  0  0
    5.5939    5.8535   -2.3515 H   0  0  0  0  0  0  0  0  0  0  0  0
    6.0621    5.4581    0.5839 H   0  0  0  0  0  0  0  0  0  0  0  0
    4.3036    8.0349   -1.6400 H   0  0  0  0  0  0  0  0  0  0  0  0
    4.3256    9.2779   -0.3485 H   0  0  0  0  0  0  0  0  0  0  0  0
    3.6085    5.2189    0.6905 H   0  0  0  0  0  0  0  0  0  0  0  0
    3.4797    5.6881   -1.0335 H   0  0  0  0  0  0  0  0  0  0  0  0
    3.6738    2.5065   -2.7958 H   0  0  0  0  0  0  0  0  0  0  0  0
    3.3283    4.2490   -2.7437 H   0  0  0  0  0  0  0  0  0  0  0  0
  1  2  1  0
  2  3  2  0
  2  4  1  0
  4  5  1  0
  5  6  1  0
  6  7  1  0
  7  8  1  0
  8  9  1  0
  9 10  2  0
 10 11  1  0
 11 12  2  0
 12 13  1  0
 13 14  2  0
 13 15  1  0
 15 16  1  0
 16 17  1  0
 17 18  1  0
 18 19  1  0
 19 20  1  0
 20 21  2  0
 20 22  1  0
 22 23  1  0
 22 24  1  0
 24 25  1  0
 25 26  2  0
 25 27  1  0
 27 28  1  0
 27 29  1  0
 29 30  1  0
 30 31  2  0
 30 32  1  0
 32 33  1  0
 32 34  1  0
 34 35  1  0
 35 36  2  0
 35 37  1  0
 37 38  1  0
 37 39  1  0
 39 40  1  0
 40 41  2  0
 40 42  1  0
 42 43  1  0
 42 44  1  0
 44 45  1  0
 45 46  2  0
 45 47  1  0
 47 48  1  0
 47 49  1  0
 49 50  1  0
 50 51  2  0
 50 52  1  0
 52 53  1  0
 52 54  1  0
 54 55  1  0
 55 56  2  0
 55 57  1  0
 57 58  1  0
 57 59  1  0
 59 60  1  0
 60 61  2  0
 18 62  1  0
 62 63  2  0
 62 64  1  0
 64 65  1  0
 65 66  1  0
 65 67  1  0
 67 68  2  0
 67 69  1  0
 69 70  1  0
 70 71  1  0
 70 72  1  0
 72 73  2  0
 72 74  1  0
 74 75  1  0
 75 76  1  0
 75 77  1  0
 77 78  2  0
 77 79  1  0
 79 80  1  0
 80 81  1  0
 80 82  1  0
 82 83  2  0
 82 84  1  0
 84 85  1  0
 85 86  1  0
 85 87  1  0
 87 88  2  0
 87 89  1  0
 89 90  1  0
 90 91  1  0
 90 92  1  0
 92 93  2  0
 92 94  1  0
 94 95  1  0
 95 96  1  0
 95 97  1  0
 97 98  2  0
 97 99  1  0
 99100  1  0
100101  1  0
101102  1  0
101103  2  0
100104  1  0
104105  1  0
105106  1  0
 60  5  1  0
 14  9  1  0
106 11  1  0
  1107  1  0
  1108  1  0
  1109  1  0
  4110  1  0
  5111  1  1
  6112  1  0
  6113  1  0
  8114  1  0
  8115  1  0
 10116  1  0
 12117  1  0
 14118  1  0
 15119  1  0
 15120  1  0
 17121  1  0
 17122  1  0
 18123  1  6
 19124  1  0
 22125  1  6
 23126  1  0
 23127  1  0
 23128  1  0
 24129  1  0
 27130  1  6
 28131  1  0
 28132  1  0
 28133  1  0
 29134  1  0
 32135  1  6
 33136  1  0
 33137  1  0
 33138  1  0
 34139  1  0
 37140  1  6
 38141  1  0
 38142  1  0
 38143  1  0
 39144  1  0
 42145  1  6
 43146  1  0
 43147  1  0
 43148  1  0
 44149  1  0
 47150  1  6
 48151  1  0
 48152  1  0
 48153  1  0
 49154  1  0
 52155  1  6
 53156  1  0
 53157  1  0
 53158  1  0
 54159  1  0
 57160  1  6
 58161  1  0
 58162  1  0
 58163  1  0
 59164  1  0
 64165  1  0
 65166  1  6
 66167  1  0
 66168  1  0
 66169  1  0
 69170  1  0
 70171  1  6
 71172  1  0
 71173  1  0
 71174  1  0
 74175  1  0
 75176  1  6
 76177  1  0
 76178  1  0
 76179  1  0
 79180  1  0
 80181  1  6
 81182  1  0
 81183  1  0
 81184  1  0
 84185  1  0
 85186  1  6
 86187  1  0
 86188  1  0
 86189  1  0
 89190  1  0
 90191  1  6
 91192  1  0
 91193  1  0
 91194  1  0
 94195  1  0
 95196  1  6
 96197  1  0
 96198  1  0
 96199  1  0
 99200  1  0
100201  1  1
102202  1  0
102203  1  0
104204  1  0
104205  1  0
106206  1  0
106207  1  0
M  END
