
     RDKit          3D

207209  0  0  0  0  0  0  0  0999 V2000
   -4.4967    8.5793    2.8791 C   0  0  0  0  0  0  0  0  0  0  0  0
   -4.9787    7.2383    3.3528 C   0  0  0  0  0  0  0  0  0  0  0  0
   -5.8256    7.2003    4.2825 O   0  0  0  0  0  0  0  0  0  0  0  0
   -4.5647    6.0025    2.7470 N   0  0  0  0  0  0  0  0  0  0  0  0
   -3.4979    5.8002    1.7583 C   0  0  2  0  0  0  0  0  0  0  0  0
   -2.1057    5.9115    2.4274 C   0  0  0  0  0  0  0  0  0  0  0  0
   -0.7390    5.4311    1.2996 S   0  0  0  0  0  0  0  0  0  0  0  0
   -1.1387    3.6433    1.2245 C   0  0  0  0  0  0  0  0  0  0  0  0
    0.0154    2.8836    0.6368 C   0  0  0  0  0  0  0  0  0  0  0  0
    0.4022    3.1189   -0.6920 C   0  0  0  0  0  0  0  0  0  0  0  0
    1.4439    2.3856   -1.2751 C   0  0  0  0  0  0  0  0  0  0  0  0
    2.0728    1.3813   -0.5265 C   0  0  0  0  0  0  0  0  0  0  0  0
    1.6690    1.1042    0.7896 C   0  0  0  0  0  0  0  0  0  0  0  0
    0.6621    1.8815    1.3782 C   0  0  0  0  0  0  0  0  0  0  0  0
    2.3290   -0.0142    1.5596 C   0  0  0  0  0  0  0  0  0  0  0  0
    1.1689   -1.2758    2.2424 S   0  0  0  0  0  0  0  0  0  0  0  0
   -0.0450   -1.4719    0.8740 C   0  0  0  0  0  0  0  0  0  0  0  0
    0.5641   -1.8843   -0.4853 C   0  0  2  0  0  0  0  0  0  0  0  0
   -0.3812   -1.6271   -1.5838 N   0  0  0  0  0  0  0  0  0  0  0  0
   -1.6696   -2.2347   -1.8092 C   0  0  0  0  0  0  0  0  0  0  0  0
   -2.3618   -1.8195   -2.7776 O   0  0  0  0  0  0  0  0  0  0  0  0
   -2.2387   -3.3454   -0.9550 C   0  0  1  0  0  0  0  0  0  0  0  0
   -3.4547   -2.8311   -0.1756 C   0  0  0  0  0  0  0  0  0  0  0  0
   -2.5460   -4.4987   -1.8135 N   0  0  0  0  0  0  0  0  0  0  0  0
   -3.8087   -5.1770   -1.8350 C   0  0  0  0  0  0  0  0  0  0  0  0
   -4.7455   -4.7053   -2.5408 O   0  0  0  0  0  0  0  0  0  0  0  0
   -4.0360   -6.4467   -1.0475 C   0  0  1  0  0  0  0  0  0  0  0  0
   -2.7259   -7.0368   -0.5088 C   0  0  0  0  0  0  0  0  0  0  0  0
   -4.9748   -6.2101    0.0566 N   0  0  0  0  0  0  0  0  0  0  0  0
   -6.3179   -5.7655   -0.1710 C   0  0  0  0  0  0  0  0  0  0  0  0
   -6.5693   -4.5337   -0.0961 O   0  0  0  0  0  0  0  0  0  0  0  0
   -7.4618   -6.7295   -0.3482 C   0  0  1  0  0  0  0  0  0  0  0  0
   -7.0214   -8.1411   -0.7459 C   0  0  0  0  0  0  0  0  0  0  0  0
   -8.2362   -6.7932    0.8925 N   0  0  0  0  0  0  0  0  0  0  0  0
   -9.5740   -6.2819    1.0304 C   0  0  0  0  0  0  0  0  0  0  0  0
  -10.3476   -6.8349    1.8624 O   0  0  0  0  0  0  0  0  0  0  0  0
  -10.0720   -5.1010    0.2249 C   0  0  1  0  0  0  0  0  0  0  0  0
  -11.1614   -5.5810   -0.7481 C   0  0  0  0  0  0  0  0  0  0  0  0
  -10.6000   -4.0603    1.1199 N   0  0  0  0  0  0  0  0  0  0  0  0
  -11.1952   -2.8252    0.6801 C   0  0  0  0  0  0  0  0  0  0  0  0
  -12.0766   -2.2893    1.4038 O   0  0  0  0  0  0  0  0  0  0  0  0
  -10.7585   -2.1215   -0.5949 C   0  0  1  0  0  0  0  0  0  0  0  0
  -11.9697   -1.7540   -1.4571 C   0  0  0  0  0  0  0  0  0  0  0  0
   -9.9536   -0.9197   -0.3233 N   0  0  0  0  0  0  0  0  0  0  0  0
  -10.3588    0.0903    0.6047 C   0  0  0  0  0  0  0  0  0  0  0  0
  -10.3376   -0.1468    1.8439 O   0  0  0  0  0  0  0  0  0  0  0  0
  -10.7502    1.4598    0.1152 C   0  0  1  0  0  0  0  0  0  0  0  0
  -12.1741    1.7945    0.5901 C   0  0  0  0  0  0  0  0  0  0  0  0
   -9.7995    2.4671    0.5917 N   0  0  0  0  0  0  0  0  0  0  0  0
   -9.8723    3.8439    0.1714 C   0  0  0  0  0  0  0  0  0  0  0  0
  -10.6221    4.1572   -0.7911 O   0  0  0  0  0  0  0  0  0  0  0  0
   -9.1285    4.9591    0.8843 C   0  0  1  0  0  0  0  0  0  0  0  0
   -8.1985    4.4662    2.0097 C   0  0  0  0  0  0  0  0  0  0  0  0
   -8.4352    5.7943   -0.1102 N   0  0  0  0  0  0  0  0  0  0  0  0
   -7.1410    6.3797    0.0761 C   0  0  0  0  0  0  0  0  0  0  0  0
   -7.0670    7.5787    0.4570 O   0  0  0  0  0  0  0  0  0  0  0  0
   -5.8869    5.5852   -0.1937 C   0  0  1  0  0  0  0  0  0  0  0  0
   -6.0350    4.6930   -1.4278 C   0  0  0  0  0  0  0  0  0  0  0  0
   -4.7535    6.5018   -0.3866 N   0  0  0  0  0  0  0  0  0  0  0  0
   -3.6721    6.6886    0.5420 C   0  0  0  0  0  0  0  0  0  0  0  0
   -2.8571    7.6233    0.3319 O   0  0  0  0  0  0  0  0  0  0  0  0
    1.1250   -3.2923   -0.5287 C   0  0  0  0  0  0  0  0  0  0  0  0
    0.7018   -4.1258   -1.3681 O   0  0  0  0  0  0  0  0  0  0  0  0
    2.2298   -3.6571    0.3069 N   0  0  0  0  0  0  0  0  0  0  0  0
    3.6398   -3.4275   -0.0390 C   0  0  2  0  0  0  0  0  0  0  0  0
    3.8199   -2.7872   -1.4292 C   0  0  0  0  0  0  0  0  0  0  0  0
    4.3936   -4.7315    0.0347 C   0  0  0  0  0  0  0  0  0  0  0  0
    3.9693   -5.7170   -0.6266 O   0  0  0  0  0  0  0  0  0  0  0  0
    5.5219   -4.9130    0.9003 N   0  0  0  0  0  0  0  0  0  0  0  0
    6.7885   -4.1626    0.8398 C   0  0  2  0  0  0  0  0  0  0  0  0
    6.6129   -2.6926    1.2239 C   0  0  0  0  0  0  0  0  0  0  0  0
    7.4557   -4.2933   -0.5166 C   0  0  0  0  0  0  0  0  0  0  0  0
    6.7767   -4.1069   -1.5622 O   0  0  0  0  0  0  0  0  0  0  0  0
    8.8654   -4.5337   -0.6648 N   0  0  0  0  0  0  0  0  0  0  0  0
    9.6142   -5.5802    0.0322 C   0  0  2  0  0  0  0  0  0  0  0  0
    8.8836   -6.9243   -0.0903 C   0  0  0  0  0  0  0  0  0  0  0  0
    9.9268   -5.2016    1.4680 C   0  0  0  0  0  0  0  0  0  0  0  0
    9.5815   -5.9903    2.3918 O   0  0  0  0  0  0  0  0  0  0  0  0
   10.6317   -3.9991    1.8355 N   0  0  0  0  0  0  0  0  0  0  0  0
   11.0116   -2.9021    0.9357 C   0  0  2  0  0  0  0  0  0  0  0  0
   12.1891   -3.3159    0.0455 C   0  0  0  0  0  0  0  0  0  0  0  0
   11.4184   -1.6870    1.7500 C   0  0  0  0  0  0  0  0  0  0  0  0
   12.3326   -1.8237    2.6078 O   0  0  0  0  0  0  0  0  0  0  0  0
   10.8180   -0.3878    1.5944 N   0  0  0  0  0  0  0  0  0  0  0  0
    9.8470   -0.0022    0.5555 C   0  0  2  0  0  0  0  0  0  0  0  0
   10.5074    0.0398   -0.8296 C   0  0  0  0  0  0  0  0  0  0  0  0
    9.2690    1.3540    0.8677 C   0  0  0  0  0  0  0  0  0  0  0  0
    8.0823    1.4504    1.3015 O   0  0  0  0  0  0  0  0  0  0  0  0
   10.1041    2.5093    0.8213 N   0  0  0  0  0  0  0  0  0  0  0  0
    9.8768    3.5782   -0.1493 C   0  0  2  0  0  0  0  0  0  0  0  0
   11.1913    4.2993   -0.4491 C   0  0  0  0  0  0  0  0  0  0  0  0
    8.8527    4.5642    0.3781 C   0  0  0  0  0  0  0  0  0  0  0  0
    8.7797    4.7725    1.6168 O   0  0  0  0  0  0  0  0  0  0  0  0
    8.0154    5.3373   -0.5045 N   0  0  0  0  0  0  0  0  0  0  0  0
    7.9619    5.1494   -1.9565 C   0  0  2  0  0  0  0  0  0  0  0  0
    7.4089    6.3979   -2.6450 C   0  0  0  0  0  0  0  0  0  0  0  0
    7.1402    3.9385   -2.3108 C   0  0  0  0  0  0  0  0  0  0  0  0
    7.3595    3.3454   -3.4008 O   0  0  0  0  0  0  0  0  0  0  0  0
    6.1510    3.4103   -1.4180 N   0  0  0  0  0  0  0  0  0  0  0  0
    4.7516    3.8569   -1.4067 C   0  0  1  0  0  0  0  0  0  0  0  0
    4.6032    5.0507   -0.4837 C   0  0  0  0  0  0  0  0  0  0  0  0
    4.1467    6.3323   -0.9316 N   0  0  0  0  0  0  0  0  0  0  0  0
    4.8685    4.8961    0.7343 O   0  0  0  0  0  0  0  0  0  0  0  0
    4.2285    4.0466   -2.8504 C   0  0  0  0  0  0  0  0  0  0  0  0
    2.4250    4.3603   -2.9171 S   0  0  0  0  0  0  0  0  0  0  0  0
    1.8364    2.6391   -2.7049 C   0  0  0  0  0  0  0  0  0  0  0  0
   -3.3955    8.6464    2.9460 H   0  0  0  0  0  0  0  0  0  0  0  0
   -4.9263    9.3817    3.5133 H   0  0  0  0  0  0  0  0  0  0  0  0
   -4.8375    8.7541    1.8382 H   0  0  0  0  0  0  0  0  0  0  0  0
   -5.0576    5.1384    3.0722 H   0  0  0  0  0  0  0  0  0  0  0  0
   -3.5845    4.7576    1.4022 H   0  0  0  0  0  0  0  0  0  0  0  0
   -2.0760    5.2778    3.3402 H   0  0  0  0  0  0  0  0  0  0  0  0
   -1.9208    6.9543    2.7543 H   0  0  0  0  0  0  0  0  0  0  0  0
   -2.0151    3.4835    0.5595 H   0  0  0  0  0  0  0  0  0  0  0  0
   -1.3926    3.2632    2.2350 H   0  0  0  0  0  0  0  0  0  0  0  0
   -0.1136    3.8781   -1.2712 H   0  0  0  0  0  0  0  0  0  0  0  0
    2.8622    0.7972   -0.9844 H   0  0  0  0  0  0  0  0  0  0  0  0
    0.3585    1.6742    2.3996 H   0  0  0  0  0  0  0  0  0  0  0  0
    2.8790    0.4364    2.4111 H   0  0  0  0  0  0  0  0  0  0  0  0
    3.0902   -0.5293    0.9340 H   0  0  0  0  0  0  0  0  0  0  0  0
   -0.5947   -0.5153    0.7575 H   0  0  0  0  0  0  0  0  0  0  0  0
   -0.7832   -2.2157    1.2168 H   0  0  0  0  0  0  0  0  0  0  0  0
    1.4194   -1.2214   -0.6526 H   0  0  0  0  0  0  0  0  0  0  0  0
   -0.0934   -0.8963   -2.2721 H   0  0  0  0  0  0  0  0  0  0  0  0
   -1.5014   -3.6950   -0.2106 H   0  0  0  0  0  0  0  0  0  0  0  0
   -3.1795   -1.9427    0.4300 H   0  0  0  0  0  0  0  0  0  0  0  0
   -4.2794   -2.5483   -0.8648 H   0  0  0  0  0  0  0  0  0  0  0  0
   -3.8184   -3.6138    0.5218 H   0  0  0  0  0  0  0  0  0  0  0  0
   -1.7403   -4.9869   -2.2635 H   0  0  0  0  0  0  0  0  0  0  0  0
   -4.4646   -7.1969   -1.7404 H   0  0  0  0  0  0  0  0  0  0  0  0
   -2.9415   -7.9734    0.0406 H   0  0  0  0  0  0  0  0  0  0  0  0
   -2.2317   -6.3226    0.1863 H   0  0  0  0  0  0  0  0  0  0  0  0
   -2.0306   -7.2751   -1.3407 H   0  0  0  0  0  0  0  0  0  0  0  0
   -4.5896   -6.0626    1.0146 H   0  0  0  0  0  0  0  0  0  0  0  0
   -8.0935   -6.3628   -1.1864 H   0  0  0  0  0  0  0  0  0  0  0  0
   -6.5446   -8.1370   -1.7469 H   0  0  0  0  0  0  0  0  0  0  0  0
   -6.3146   -8.5635    0.0065 H   0  0  0  0  0  0  0  0  0  0  0  0
   -7.9086   -8.8074   -0.8027 H   0  0  0  0  0  0  0  0  0  0  0  0
   -7.8284   -7.3154    1.6983 H   0  0  0  0  0  0  0  0  0  0  0  0
   -9.2336   -4.6664   -0.3467 H   0  0  0  0  0  0  0  0  0  0  0  0
  -11.4018   -4.7886   -1.4853 H   0  0  0  0  0  0  0  0  0  0  0  0
  -10.8166   -6.4747   -1.3138 H   0  0  0  0  0  0  0  0  0  0  0  0
  -12.0905   -5.8392   -0.1894 H   0  0  0  0  0  0  0  0  0  0  0  0
  -10.6336   -4.2524    2.1523 H   0  0  0  0  0  0  0  0  0  0  0  0
  -10.1335   -2.8081   -1.2076 H   0  0  0  0  0  0  0  0  0  0  0  0
  -12.5935   -0.9957   -0.9454 H   0  0  0  0  0  0  0  0  0  0  0  0
  -11.6243   -1.3444   -2.4232 H   0  0  0  0  0  0  0  0  0  0  0  0
  -12.5941   -2.6528   -1.6526 H   0  0  0  0  0  0  0  0  0  0  0  0
   -9.2711   -0.6384   -1.0640 H   0  0  0  0  0  0  0  0  0  0  0  0
  -10.7434    1.4576   -0.9971 H   0  0  0  0  0  0  0  0  0  0  0  0
  -12.8805    1.0017    0.2703 H   0  0  0  0  0  0  0  0  0  0  0  0
  -12.5224    2.7495    0.1538 H   0  0  0  0  0  0  0  0  0  0  0  0
  -12.2031    1.8795    1.6979 H   0  0  0  0  0  0  0  0  0  0  0  0
   -8.9931    2.1540    1.1810 H   0  0  0  0  0  0  0  0  0  0  0  0
   -9.8958    5.5940    1.3723 H   0  0  0  0  0  0  0  0  0  0  0  0
   -7.4201    3.7843    1.6120 H   0  0  0  0  0  0  0  0  0  0  0  0
   -7.7096    5.3274    2.5112 H   0  0  0  0  0  0  0  0  0  0  0  0
   -8.7956    3.9319    2.7796 H   0  0  0  0  0  0  0  0  0  0  0  0
   -9.0401    6.2579   -0.8278 H   0  0  0  0  0  0  0  0  0  0  0  0
   -5.7081    4.9185    0.6665 H   0  0  0  0  0  0  0  0  0  0  0  0
   -5.0819    4.1608   -1.6224 H   0  0  0  0  0  0  0  0  0  0  0  0
   -6.8320    3.9344   -1.2614 H   0  0  0  0  0  0  0  0  0  0  0  0
   -6.2911    5.3012   -2.3217 H   0  0  0  0  0  0  0  0  0  0  0  0
   -4.7830    7.1383   -1.2191 H   0  0  0  0  0  0  0  0  0  0  0  0
    2.0092   -4.0470    1.2513 H   0  0  0  0  0  0  0  0  0  0  0  0
    4.0390   -2.7274    0.7141 H   0  0  0  0  0  0  0  0  0  0  0  0
    3.3545   -1.7840   -1.4678 H   0  0  0  0  0  0  0  0  0  0  0  0
    4.8920   -2.6215   -1.6432 H   0  0  0  0  0  0  0  0  0  0  0  0
    3.3909   -3.4313   -2.2310 H   0  0  0  0  0  0  0  0  0  0  0  0
    5.5216   -5.7789    1.4857 H   0  0  0  0  0  0  0  0  0  0  0  0
    7.4511   -4.5975    1.6080 H   0  0  0  0  0  0  0  0  0  0  0  0
    5.9406   -2.6019    2.1012 H   0  0  0  0  0  0  0  0  0  0  0  0
    7.5971   -2.2691    1.5095 H   0  0  0  0  0  0  0  0  0  0  0  0
    6.2096   -2.0975    0.3808 H   0  0  0  0  0  0  0  0  0  0  0  0
    9.3157   -4.1284   -1.5178 H   0  0  0  0  0  0  0  0  0  0  0  0
   10.5878   -5.7188   -0.4835 H   0  0  0  0  0  0  0  0  0  0  0  0
    7.9301   -6.9120    0.4879 H   0  0  0  0  0  0  0  0  0  0  0  0
    8.6420   -7.1311   -1.1539 H   0  0  0  0  0  0  0  0  0  0  0  0
    9.5209   -7.7505    0.2904 H   0  0  0  0  0  0  0  0  0  0  0  0
   10.8389   -3.8986    2.8558 H   0  0  0  0  0  0  0  0  0  0  0  0
   10.1497   -2.6428    0.3000 H   0  0  0  0  0  0  0  0  0  0  0  0
   12.9241   -3.9218    0.6226 H   0  0  0  0  0  0  0  0  0  0  0  0
   12.7105   -2.4237   -0.3682 H   0  0  0  0  0  0  0  0  0  0  0  0
   11.8376   -3.9119   -0.8232 H   0  0  0  0  0  0  0  0  0  0  0  0
   11.0704    0.3144    2.3262 H   0  0  0  0  0  0  0  0  0  0  0  0
    9.0133   -0.7303    0.5424 H   0  0  0  0  0  0  0  0  0  0  0  0
   10.8500   -0.9648   -1.1331 H   0  0  0  0  0  0  0  0  0  0  0  0
   11.3826    0.7272   -0.8257 H   0  0  0  0  0  0  0  0  0  0  0  0
    9.7720    0.3845   -1.5880 H   0  0  0  0  0  0  0  0  0  0  0  0
   10.9684    2.5346    1.4237 H   0  0  0  0  0  0  0  0  0  0  0  0
    9.5140    3.1100   -1.0914 H   0  0  0  0  0  0  0  0  0  0  0  0
   11.0234    5.1607   -1.1317 H   0  0  0  0  0  0  0  0  0  0  0  0
   11.9007    3.5992   -0.9392 H   0  0  0  0  0  0  0  0  0  0  0  0
   11.6535    4.6689    0.4899 H   0  0  0  0  0  0  0  0  0  0  0  0
    7.4120    6.0704   -0.0687 H   0  0  0  0  0  0  0  0  0  0  0  0
    8.9924    5.0087   -2.3516 H   0  0  0  0  0  0  0  0  0  0  0  0
    7.3395    6.2398   -3.7439 H   0  0  0  0  0  0  0  0  0  0  0  0
    6.4028    6.6525   -2.2583 H   0  0  0  0  0  0  0  0  0  0  0  0
    8.0839    7.2630   -2.4601 H   0  0  0  0  0  0  0  0  0  0  0  0
    6.3862    2.5237   -0.9196 H   0  0  0  0  0  0  0  0  0  0  0  0
    4.1499    3.0417   -0.9585 H   0  0  0  0  0  0  0  0  0  0  0  0
    4.1310    7.1319   -0.2566 H   0  0  0  0  0  0  0  0  0  0  0  0
    3.9974    6.5512   -1.9377 H   0  0  0  0  0  0  0  0  0  0  0  0
    4.4653    3.1471   -3.4526 H   0  0  0  0  0  0  0  0  0  0  0  0
    4.7473    4.9036   -3.3318 H   0  0  0  0  0  0  0  0  0  0  0  0
    2.5878    1.9097   -3.0630 H   0  0  0  0  0  0  0  0  0  0  0  0
    0.9307    2.4952   -3.3268 H   0  0  0  0  0  0  0  0  0  0  0  0
  1  2  1  0
  2  3  2  0
  2  4  1  0
  4  5  1  0
  5  6  1  0
  6  7  1  0
  7  8  1  0
  8  9  1  0
  9 10  2  0
 10 11  1  0
 11 12  2  0
 12 13  1  0
 13 14  2  0
 13 15  1  0
 15 16  1  0
 16 17  1  0
 17 18  1  0
 18 19  1  0
 19 20  1  0
 20 21  2  0
 20 22  1  0
 22 23  1  0
 22 24  1  0
 24 25  1  0
 25 26  2  0
 25 27  1  0
 27 28  1  0
 27 29  1  0
 29 30  1  0
 30 31  2  0
 30 32  1  0
 32 33  1  0
 32 34  1  0
 34 35  1  0
 35 36  2  0
 35 37  1  0
 37 38  1  0
 37 39  1  0
 39 40  1  0
 40 41  2  0
 40 42  1  0
 42 43  1  0
 42 44  1  0
 44 45  1  0
 45 46  2  0
 45 47  1  0
 47 48  1  0
 47 49  1  0
 49 50  1  0
 50 51  2  0
 50 52  1  0
 52 53  1  0
 52 54  1  0
 54 55  1  0
 55 56  2  0
 55 57  1  0
 57 58  1  0
 57 59  1  0
 59 60  1  0
 60 61  2  0
 18 62  1  0
 62 63  2  0
 62 64  1  0
 64 65  1  0
 65 66  1  0
 65 67  1  0
 67 68  2  0
 67 69  1  0
 69 70  1  0
 70 71  1  0
 70 72  1  0
 72 73  2  0
 72 74  1  0
 74 75  1  0
 75 76  1  0
 75 77  1  0
 77 78  2  0
 77 79  1  0
 79 80  1  0
 80 81  1  0
 80 82  1  0
 82 83  2  0
 82 84  1  0
 84 85  1  0
 85 86  1  0
 85 87  1  0
 87 88  2  0
 87 89  1  0
 89 90  1  0
 90 91  1  0
 90 92  1  0
 92 93  2  0
 92 94  1  0
 94 95  1  0
 95 96  1  0
 95 97  1  0
 97 98  2  0
 97 99  1  0
 99100  1  0
100101  1  0
101102  1  0
101103  2  0
100104  1  0
104105  1  0
105106  1  0
 60  5  1  0
 14  9  1  0
106 11  1  0
  1107  1  0
  1108  1  0
  1109  1  0
  4110  1  0
  5111  1  6
  6112  1  0
  6113  1  0
  8114  1  0
  8115  1  0
 10116  1  0
 12117  1  0
 14118  1  0
 15119  1  0
 15120  1  0
 17121  1  0
 17122  1  0
 18123  1  6
 19124  1  0
 22125  1  1
 23126  1  0
 23127  1  0
 23128  1  0
 24129  1  0
 27130  1  6
 28131  1  0
 28132  1  0
 28133  1  0
 29134  1  0
 32135  1  6
 33136  1  0
 33137  1  0
 33138  1  0
 34139  1  0
 37140  1  6
 38141  1  0
 38142  1  0
 38143  1  0
 39144  1  0
 42145  1  6
 43146  1  0
 43147  1  0
 43148  1  0
 44149  1  0
 47150  1  6
 48151  1  0
 48152  1  0
 48153  1  0
 49154  1  0
 52155  1  1
 53156  1  0
 53157  1  0
 53158  1  0
 54159  1  0
 57160  1  1
 58161  1  0
 58162  1  0
 58163  1  0
 59164  1  0
 64165  1  0
 65166  1  1
 66167  1  0
 66168  1  0
 66169  1  0
 69170  1  0
 70171  1  1
 71172  1  0
 71173  1  0
 71174  1  0
 74175  1  0
 75176  1  6
 76177  1  0
 76178  1  0
 76179  1  0
 79180  1  0
 80181  1  6
 81182  1  0
 81183  1  0
 81184  1  0
 84185  1  0
 85186  1  6
 86187  1  0
 86188  1  0
 86189  1  0
 89190  1  0
 90191  1  6
 91192  1  0
 91193  1  0
 91194  1  0
 94195  1  0
 95196  1  6
 96197  1  0
 96198  1  0
 96199  1  0
 99200  1  0
100201  1  1
102202  1  0
102203  1  0
104204  1  0
104205  1  0
106206  1  0
106207  1  0
M  END
