
     RDKit          3D

207209  0  0  0  0  0  0  0  0999 V2000
    3.5368  -10.4155    0.4573 C   0  0  0  0  0  0  0  0  0  0  0  0
    4.0158   -9.7092   -0.7695 C   0  0  0  0  0  0  0  0  0  0  0  0
    4.3391  -10.3874   -1.7812 O   0  0  0  0  0  0  0  0  0  0  0  0
    4.0914   -8.2760   -0.8379 N   0  0  0  0  0  0  0  0  0  0  0  0
    3.9245   -7.3988    0.3297 C   0  0  2  0  0  0  0  0  0  0  0  0
    3.6658   -5.9534   -0.1213 C   0  0  0  0  0  0  0  0  0  0  0  0
    3.6857   -4.7314    1.2496 S   0  0  0  0  0  0  0  0  0  0  0  0
    1.9982   -5.0413    1.8915 C   0  0  0  0  0  0  0  0  0  0  0  0
    0.9706   -4.1365    1.2540 C   0  0  0  0  0  0  0  0  0  0  0  0
   -0.1789   -4.6897    0.6706 C   0  0  0  0  0  0  0  0  0  0  0  0
   -1.1719   -3.8690    0.1167 C   0  0  0  0  0  0  0  0  0  0  0  0
   -1.0371   -2.4730    0.1797 C   0  0  0  0  0  0  0  0  0  0  0  0
    0.1066   -1.8978    0.7742 C   0  0  0  0  0  0  0  0  0  0  0  0
    1.1059   -2.7367    1.3088 C   0  0  0  0  0  0  0  0  0  0  0  0
    0.2071   -0.4038    0.9767 C   0  0  0  0  0  0  0  0  0  0  0  0
   -0.2385    0.5103   -0.5502 S   0  0  0  0  0  0  0  0  0  0  0  0
    0.4653    2.1187   -0.0327 C   0  0  0  0  0  0  0  0  0  0  0  0
   -0.4236    3.3053   -0.4883 C   0  0  2  0  0  0  0  0  0  0  0  0
    0.3714    4.5405   -0.5336 N   0  0  0  0  0  0  0  0  0  0  0  0
    1.1207    5.0234    0.5946 C   0  0  0  0  0  0  0  0  0  0  0  0
    0.6657    4.8760    1.7572 O   0  0  0  0  0  0  0  0  0  0  0  0
    2.4956    5.6361    0.4356 C   0  0  1  0  0  0  0  0  0  0  0  0
    3.5618    4.5898    0.7664 C   0  0  0  0  0  0  0  0  0  0  0  0
    2.7269    6.1403   -0.9205 N   0  0  0  0  0  0  0  0  0  0  0  0
    3.2562    7.4349   -1.2736 C   0  0  0  0  0  0  0  0  0  0  0  0
    3.3581    7.7165   -2.4983 O   0  0  0  0  0  0  0  0  0  0  0  0
    3.6847    8.4967   -0.2724 C   0  0  1  0  0  0  0  0  0  0  0  0
    2.4555    9.2454    0.2637 C   0  0  0  0  0  0  0  0  0  0  0  0
    4.4944    7.9467    0.8261 N   0  0  0  0  0  0  0  0  0  0  0  0
    5.8962    7.6274    0.7209 C   0  0  0  0  0  0  0  0  0  0  0  0
    6.6329    7.8259    1.7202 O   0  0  0  0  0  0  0  0  0  0  0  0
    6.5202    7.0626   -0.5391 C   0  0  1  0  0  0  0  0  0  0  0  0
    7.2929    8.1819   -1.2606 C   0  0  0  0  0  0  0  0  0  0  0  0
    7.4129    5.9400   -0.2045 N   0  0  0  0  0  0  0  0  0  0  0  0
    8.2825    5.2980   -1.1652 C   0  0  0  0  0  0  0  0  0  0  0  0
    8.0054    5.3507   -2.3988 O   0  0  0  0  0  0  0  0  0  0  0  0
    9.5329    4.5801   -0.7157 C   0  0  1  0  0  0  0  0  0  0  0  0
   10.5200    5.5553   -0.0946 C   0  0  0  0  0  0  0  0  0  0  0  0
    9.2232    3.5044    0.2397 N   0  0  0  0  0  0  0  0  0  0  0  0
    9.0588    2.1436   -0.1874 C   0  0  0  0  0  0  0  0  0  0  0  0
    7.8976    1.7111   -0.4097 O   0  0  0  0  0  0  0  0  0  0  0  0
   10.2139    1.1751   -0.1960 C   0  0  1  0  0  0  0  0  0  0  0  0
   11.4875    1.8055   -0.7785 C   0  0  0  0  0  0  0  0  0  0  0  0
   10.4675    0.6910    1.1657 N   0  0  0  0  0  0  0  0  0  0  0  0
   11.0365   -0.5935    1.5041 C   0  0  0  0  0  0  0  0  0  0  0  0
   11.0698   -0.9382    2.7184 O   0  0  0  0  0  0  0  0  0  0  0  0
   11.6634   -1.5172    0.4770 C   0  0  1  0  0  0  0  0  0  0  0  0
   13.1788   -1.5667    0.6871 C   0  0  0  0  0  0  0  0  0  0  0  0
   11.0867   -2.8660    0.5757 N   0  0  0  0  0  0  0  0  0  0  0  0
    9.7358   -3.1413    0.1655 C   0  0  0  0  0  0  0  0  0  0  0  0
    8.8340   -2.2931    0.3723 O   0  0  0  0  0  0  0  0  0  0  0  0
    9.3836   -4.4457   -0.5114 C   0  0  1  0  0  0  0  0  0  0  0  0
   10.3032   -4.6661   -1.7321 C   0  0  0  0  0  0  0  0  0  0  0  0
    9.5310   -5.5632    0.4248 N   0  0  0  0  0  0  0  0  0  0  0  0
    8.4434   -6.3677    0.9154 C   0  0  0  0  0  0  0  0  0  0  0  0
    8.5058   -6.7937    2.1006 O   0  0  0  0  0  0  0  0  0  0  0  0
    7.2300   -6.7129    0.0662 C   0  0  1  0  0  0  0  0  0  0  0  0
    7.6306   -7.2340   -1.3145 C   0  0  0  0  0  0  0  0  0  0  0  0
    6.4276   -7.7496    0.7352 N   0  0  0  0  0  0  0  0  0  0  0  0
    5.1130   -7.5186    1.2491 C   0  0  0  0  0  0  0  0  0  0  0  0
    4.9327   -7.5433    2.4982 O   0  0  0  0  0  0  0  0  0  0  0  0
   -1.6485    3.4931    0.3821 C   0  0  0  0  0  0  0  0  0  0  0  0
   -2.0535    2.5584    1.1255 O   0  0  0  0  0  0  0  0  0  0  0  0
   -2.3410    4.7437    0.4160 N   0  0  0  0  0  0  0  0  0  0  0  0
   -3.4273    5.0483   -0.5313 C   0  0  2  0  0  0  0  0  0  0  0  0
   -2.9021    5.1003   -1.9708 C   0  0  0  0  0  0  0  0  0  0  0  0
   -4.1169    6.3564   -0.1971 C   0  0  0  0  0  0  0  0  0  0  0  0
   -3.6285    7.1455    0.6541 O   0  0  0  0  0  0  0  0  0  0  0  0
   -5.3104    6.7277   -0.8915 N   0  0  0  0  0  0  0  0  0  0  0  0
   -6.6390    6.7489   -0.2721 C   0  0  2  0  0  0  0  0  0  0  0  0
   -6.6895    7.7079    0.9276 C   0  0  0  0  0  0  0  0  0  0  0  0
   -7.0655    5.3517    0.1255 C   0  0  0  0  0  0  0  0  0  0  0  0
   -6.4812    4.7716    1.0804 O   0  0  0  0  0  0  0  0  0  0  0  0
   -8.0436    4.6285   -0.6326 N   0  0  0  0  0  0  0  0  0  0  0  0
   -9.4968    4.8472   -0.5690 C   0  0  2  0  0  0  0  0  0  0  0  0
   -9.8936    6.2139   -1.1446 C   0  0  0  0  0  0  0  0  0  0  0  0
  -10.0185    4.6897    0.8387 C   0  0  0  0  0  0  0  0  0  0  0  0
   -9.5582    5.4421    1.7395 O   0  0  0  0  0  0  0  0  0  0  0  0
  -11.0330    3.7313    1.2062 N   0  0  0  0  0  0  0  0  0  0  0  0
  -11.8066    2.8675    0.2948 C   0  0  2  0  0  0  0  0  0  0  0  0
  -12.7436    3.7260   -0.5868 C   0  0  0  0  0  0  0  0  0  0  0  0
  -12.6644    1.9036    1.0992 C   0  0  0  0  0  0  0  0  0  0  0  0
  -13.4402    2.3706    1.9743 O   0  0  0  0  0  0  0  0  0  0  0  0
  -12.6752    0.4863    0.8654 N   0  0  0  0  0  0  0  0  0  0  0  0
  -11.6733   -0.2767    0.1018 C   0  0  2  0  0  0  0  0  0  0  0  0
  -12.0698   -0.3018   -1.3720 C   0  0  0  0  0  0  0  0  0  0  0  0
  -11.5445   -1.6897    0.6334 C   0  0  0  0  0  0  0  0  0  0  0  0
  -12.3123   -2.1149    1.5412 O   0  0  0  0  0  0  0  0  0  0  0  0
  -10.5217   -2.5406    0.1296 N   0  0  0  0  0  0  0  0  0  0  0  0
  -10.8296   -3.6298   -0.7884 C   0  0  2  0  0  0  0  0  0  0  0  0
  -11.4549   -4.8389   -0.0670 C   0  0  0  0  0  0  0  0  0  0  0  0
   -9.6222   -4.0142   -1.6114 C   0  0  0  0  0  0  0  0  0  0  0  0
   -9.5752   -3.6133   -2.8070 O   0  0  0  0  0  0  0  0  0  0  0  0
   -8.5504   -4.8474   -1.1267 N   0  0  0  0  0  0  0  0  0  0  0  0
   -8.0060   -4.8131    0.2359 C   0  0  2  0  0  0  0  0  0  0  0  0
   -6.8638   -3.7981    0.3079 C   0  0  0  0  0  0  0  0  0  0  0  0
   -7.5964   -6.2082    0.6420 C   0  0  0  0  0  0  0  0  0  0  0  0
   -8.4821   -7.0976    0.7868 O   0  0  0  0  0  0  0  0  0  0  0  0
   -6.2319   -6.5465    0.9127 N   0  0  0  0  0  0  0  0  0  0  0  0
   -5.2978   -6.8773   -0.1694 C   0  0  2  0  0  0  0  0  0  0  0  0
   -5.5686   -8.2767   -0.6701 C   0  0  0  0  0  0  0  0  0  0  0  0
   -5.5945   -9.3839    0.2274 N   0  0  0  0  0  0  0  0  0  0  0  0
   -5.7882   -8.4614   -1.8972 O   0  0  0  0  0  0  0  0  0  0  0  0
   -3.8474   -6.7649    0.3314 C   0  0  0  0  0  0  0  0  0  0  0  0
   -3.4639   -5.0708    0.9242 S   0  0  0  0  0  0  0  0  0  0  0  0
   -2.4012   -4.5037   -0.4566 C   0  0  0  0  0  0  0  0  0  0  0  0
    3.5947  -11.5181    0.3111 H   0  0  0  0  0  0  0  0  0  0  0  0
    4.1773  -10.1486    1.3307 H   0  0  0  0  0  0  0  0  0  0  0  0
    2.4808  -10.1521    0.6697 H   0  0  0  0  0  0  0  0  0  0  0  0
    4.2798   -7.8508   -1.7721 H   0  0  0  0  0  0  0  0  0  0  0  0
    3.0186   -7.7298    0.8817 H   0  0  0  0  0  0  0  0  0  0  0  0
    4.4452   -5.6481   -0.8454 H   0  0  0  0  0  0  0  0  0  0  0  0
    2.7059   -5.9025   -0.6646 H   0  0  0  0  0  0  0  0  0  0  0  0
    2.0075   -4.8459    2.9831 H   0  0  0  0  0  0  0  0  0  0  0  0
    1.7200   -6.1087    1.7661 H   0  0  0  0  0  0  0  0  0  0  0  0
   -0.3218   -5.7642    0.6683 H   0  0  0  0  0  0  0  0  0  0  0  0
   -1.8186   -1.8460   -0.2291 H   0  0  0  0  0  0  0  0  0  0  0  0
    1.9832   -2.3033    1.7782 H   0  0  0  0  0  0  0  0  0  0  0  0
    1.2395   -0.1172    1.2906 H   0  0  0  0  0  0  0  0  0  0  0  0
   -0.4858   -0.0976    1.7956 H   0  0  0  0  0  0  0  0  0  0  0  0
    0.5846    2.1609    1.0708 H   0  0  0  0  0  0  0  0  0  0  0  0
    1.4686    2.1969   -0.4998 H   0  0  0  0  0  0  0  0  0  0  0  0
   -0.7604    3.0809   -1.5212 H   0  0  0  0  0  0  0  0  0  0  0  0
    0.4041    5.0724   -1.4332 H   0  0  0  0  0  0  0  0  0  0  0  0
    2.5711    6.4547    1.1750 H   0  0  0  0  0  0  0  0  0  0  0  0
    3.4398    3.6934    0.1197 H   0  0  0  0  0  0  0  0  0  0  0  0
    4.5800    5.0014    0.5902 H   0  0  0  0  0  0  0  0  0  0  0  0
    3.4870    4.2758    1.8297 H   0  0  0  0  0  0  0  0  0  0  0  0
    2.6530    5.4494   -1.7012 H   0  0  0  0  0  0  0  0  0  0  0  0
    4.2944    9.2596   -0.8027 H   0  0  0  0  0  0  0  0  0  0  0  0
    1.8666    9.6913   -0.5674 H   0  0  0  0  0  0  0  0  0  0  0  0
    2.7759   10.0671    0.9451 H   0  0  0  0  0  0  0  0  0  0  0  0
    1.7748    8.5730    0.8188 H   0  0  0  0  0  0  0  0  0  0  0  0
    4.1298    8.0547    1.8001 H   0  0  0  0  0  0  0  0  0  0  0  0
    5.7368    6.6893   -1.2226 H   0  0  0  0  0  0  0  0  0  0  0  0
    8.2982    8.3041   -0.8130 H   0  0  0  0  0  0  0  0  0  0  0  0
    7.3976    7.9317   -2.3358 H   0  0  0  0  0  0  0  0  0  0  0  0
    6.7556    9.1503   -1.1976 H   0  0  0  0  0  0  0  0  0  0  0  0
    7.3650    5.5158    0.7518 H   0  0  0  0  0  0  0  0  0  0  0  0
   10.0222    4.1346   -1.6148 H   0  0  0  0  0  0  0  0  0  0  0  0
   10.7758    6.3536   -0.8276 H   0  0  0  0  0  0  0  0  0  0  0  0
   10.0877    6.0287    0.8189 H   0  0  0  0  0  0  0  0  0  0  0  0
   11.4614    5.0292    0.1830 H   0  0  0  0  0  0  0  0  0  0  0  0
    8.8970    3.7562    1.1991 H   0  0  0  0  0  0  0  0  0  0  0  0
    9.9164    0.3244   -0.8451 H   0  0  0  0  0  0  0  0  0  0  0  0
   11.8126    2.6580   -0.1589 H   0  0  0  0  0  0  0  0  0  0  0  0
   12.3052    1.0589   -0.7968 H   0  0  0  0  0  0  0  0  0  0  0  0
   11.3161    2.1455   -1.8211 H   0  0  0  0  0  0  0  0  0  0  0  0
   10.2207    1.3137    1.9627 H   0  0  0  0  0  0  0  0  0  0  0  0
   11.4917   -1.1530   -0.5548 H   0  0  0  0  0  0  0  0  0  0  0  0
   13.6208   -0.5521    0.5825 H   0  0  0  0  0  0  0  0  0  0  0  0
   13.4317   -1.9552    1.7002 H   0  0  0  0  0  0  0  0  0  0  0  0
   13.6502   -2.2335   -0.0715 H   0  0  0  0  0  0  0  0  0  0  0  0
   11.7216   -3.6744    0.7416 H   0  0  0  0  0  0  0  0  0  0  0  0
    8.3461   -4.3774   -0.8780 H   0  0  0  0  0  0  0  0  0  0  0  0
   11.3627   -4.6618   -1.4247 H   0  0  0  0  0  0  0  0  0  0  0  0
   10.1322   -3.8587   -2.4714 H   0  0  0  0  0  0  0  0  0  0  0  0
   10.0857   -5.6400   -2.2038 H   0  0  0  0  0  0  0  0  0  0  0  0
   10.4575   -5.6918    0.8893 H   0  0  0  0  0  0  0  0  0  0  0  0
    6.6181   -5.7908   -0.0523 H   0  0  0  0  0  0  0  0  0  0  0  0
    7.9405   -6.4009   -1.9721 H   0  0  0  0  0  0  0  0  0  0  0  0
    6.7694   -7.7311   -1.8093 H   0  0  0  0  0  0  0  0  0  0  0  0
    8.4485   -7.9783   -1.2367 H   0  0  0  0  0  0  0  0  0  0  0  0
    6.9009   -8.6526    0.9964 H   0  0  0  0  0  0  0  0  0  0  0  0
   -2.4211    5.1501    1.3791 H   0  0  0  0  0  0  0  0  0  0  0  0
   -4.1865    4.2432   -0.4672 H   0  0  0  0  0  0  0  0  0  0  0  0
   -3.6906    5.4626   -2.6690 H   0  0  0  0  0  0  0  0  0  0  0  0
   -2.6242    4.0893   -2.3044 H   0  0  0  0  0  0  0  0  0  0  0  0
   -2.0205    5.7749   -2.0382 H   0  0  0  0  0  0  0  0  0  0  0  0
   -5.1947    7.2011   -1.8160 H   0  0  0  0  0  0  0  0  0  0  0  0
   -7.3501    7.1342   -1.0289 H   0  0  0  0  0  0  0  0  0  0  0  0
   -7.7006    7.7092    1.3860 H   0  0  0  0  0  0  0  0  0  0  0  0
   -5.9619    7.4194    1.7077 H   0  0  0  0  0  0  0  0  0  0  0  0
   -6.4591    8.7425    0.5917 H   0  0  0  0  0  0  0  0  0  0  0  0
   -7.7176    3.7447   -1.0830 H   0  0  0  0  0  0  0  0  0  0  0  0
   -9.9580    4.0842   -1.2297 H   0  0  0  0  0  0  0  0  0  0  0  0
   -9.5680    7.0411   -0.4771 H   0  0  0  0  0  0  0  0  0  0  0  0
   -9.4480    6.3507   -2.1469 H   0  0  0  0  0  0  0  0  0  0  0  0
  -10.9927    6.2870   -1.2422 H   0  0  0  0  0  0  0  0  0  0  0  0
  -11.2349    3.6612    2.2303 H   0  0  0  0  0  0  0  0  0  0  0  0
  -11.1104    2.3195   -0.3587 H   0  0  0  0  0  0  0  0  0  0  0  0
  -13.4724    3.0795   -1.1202 H   0  0  0  0  0  0  0  0  0  0  0  0
  -12.1770    4.2577   -1.3700 H   0  0  0  0  0  0  0  0  0  0  0  0
  -13.2997    4.4621    0.0262 H   0  0  0  0  0  0  0  0  0  0  0  0
  -13.5266   -0.0215    1.2063 H   0  0  0  0  0  0  0  0  0  0  0  0
  -10.6783    0.2047    0.2188 H   0  0  0  0  0  0  0  0  0  0  0  0
  -11.2842   -0.7950   -1.9802 H   0  0  0  0  0  0  0  0  0  0  0  0
  -12.1991    0.7281   -1.7584 H   0  0  0  0  0  0  0  0  0  0  0  0
  -13.0293   -0.8460   -1.5034 H   0  0  0  0  0  0  0  0  0  0  0  0
   -9.5991   -2.5017    0.6276 H   0  0  0  0  0  0  0  0  0  0  0  0
  -11.6080   -3.2675   -1.4950 H   0  0  0  0  0  0  0  0  0  0  0  0
  -11.7212   -5.6248   -0.7998 H   0  0  0  0  0  0  0  0  0  0  0  0
  -10.7816   -5.2778    0.6869 H   0  0  0  0  0  0  0  0  0  0  0  0
  -12.3853   -4.5256    0.4461 H   0  0  0  0  0  0  0  0  0  0  0  0
   -7.9543   -5.2929   -1.8554 H   0  0  0  0  0  0  0  0  0  0  0  0
   -8.7692   -4.4900    0.9646 H   0  0  0  0  0  0  0  0  0  0  0  0
   -6.0863   -4.0083   -0.4583 H   0  0  0  0  0  0  0  0  0  0  0  0
   -7.2519   -2.7693    0.1266 H   0  0  0  0  0  0  0  0  0  0  0  0
   -6.4010   -3.8182    1.3153 H   0  0  0  0  0  0  0  0  0  0  0  0
   -6.0275   -6.9329    1.8615 H   0  0  0  0  0  0  0  0  0  0  0  0
   -5.4306   -6.1504   -1.0094 H   0  0  0  0  0  0  0  0  0  0  0  0
   -5.4412   -9.2502    1.2503 H   0  0  0  0  0  0  0  0  0  0  0  0
   -5.8039  -10.3419   -0.1309 H   0  0  0  0  0  0  0  0  0  0  0  0
   -3.6976   -7.4602    1.1759 H   0  0  0  0  0  0  0  0  0  0  0  0
   -3.1507   -7.0925   -0.4669 H   0  0  0  0  0  0  0  0  0  0  0  0
   -2.0806   -5.3247   -1.1302 H   0  0  0  0  0  0  0  0  0  0  0  0
   -2.9779   -3.7902   -1.0785 H   0  0  0  0  0  0  0  0  0  0  0  0
  1  2  1  0
  2  3  2  0
  2  4  1  0
  4  5  1  0
  5  6  1  0
  6  7  1  0
  7  8  1  0
  8  9  1  0
  9 10  2  0
 10 11  1  0
 11 12  2  0
 12 13  1  0
 13 14  2  0
 13 15  1  0
 15 16  1  0
 16 17  1  0
 17 18  1  0
 18 19  1  0
 19 20  1  0
 20 21  2  0
 20 22  1  0
 22 23  1  0
 22 24  1  0
 24 25  1  0
 25 26  2  0
 25 27  1  0
 27 28  1  0
 27 29  1  0
 29 30  1  0
 30 31  2  0
 30 32  1  0
 32 33  1  0
 32 34  1  0
 34 35  1  0
 35 36  2  0
 35 37  1  0
 37 38  1  0
 37 39  1  0
 39 40  1  0
 40 41  2  0
 40 42  1  0
 42 43  1  0
 42 44  1  0
 44 45  1  0
 45 46  2  0
 45 47  1  0
 47 48  1  0
 47 49  1  0
 49 50  1  0
 50 51  2  0
 50 52  1  0
 52 53  1  0
 52 54  1  0
 54 55  1  0
 55 56  2  0
 55 57  1  0
 57 58  1  0
 57 59  1  0
 59 60  1  0
 60 61  2  0
 18 62  1  0
 62 63  2  0
 62 64  1  0
 64 65  1  0
 65 66  1  0
 65 67  1  0
 67 68  2  0
 67 69  1  0
 69 70  1  0
 70 71  1  0
 70 72  1  0
 72 73  2  0
 72 74  1  0
 74 75  1  0
 75 76  1  0
 75 77  1  0
 77 78  2  0
 77 79  1  0
 79 80  1  0
 80 81  1  0
 80 82  1  0
 82 83  2  0
 82 84  1  0
 84 85  1  0
 85 86  1  0
 85 87  1  0
 87 88  2  0
 87 89  1  0
 89 90  1  0
 90 91  1  0
 90 92  1  0
 92 93  2  0
 92 94  1  0
 94 95  1  0
 95 96  1  0
 95 97  1  0
 97 98  2  0
 97 99  1  0
 99100  1  0
100101  1  0
101102  1  0
101103  2  0
100104  1  0
104105  1  0
105106  1  0
 60  5  1  0
 14  9  1  0
106 11  1  0
  1107  1  0
  1108  1  0
  1109  1  0
  4110  1  0
  5111  1  1
  6112  1  0
  6113  1  0
  8114  1  0
  8115  1  0
 10116  1  0
 12117  1  0
 14118  1  0
 15119  1  0
 15120  1  0
 17121  1  0
 17122  1  0
 18123  1  6
 19124  1  0
 22125  1  1
 23126  1  0
 23127  1  0
 23128  1  0
 24129  1  0
 27130  1  6
 28131  1  0
 28132  1  0
 28133  1  0
 29134  1  0
 32135  1  6
 33136  1  0
 33137  1  0
 33138  1  0
 34139  1  0
 37140  1  6
 38141  1  0
 38142  1  0
 38143  1  0
 39144  1  0
 42145  1  6
 43146  1  0
 43147  1  0
 43148  1  0
 44149  1  0
 47150  1  6
 48151  1  0
 48152  1  0
 48153  1  0
 49154  1  0
 52155  1  6
 53156  1  0
 53157  1  0
 53158  1  0
 54159  1  0
 57160  1  6
 58161  1  0
 58162  1  0
 58163  1  0
 59164  1  0
 64165  1  0
 65166  1  6
 66167  1  0
 66168  1  0
 66169  1  0
 69170  1  0
 70171  1  6
 71172  1  0
 71173  1  0
 71174  1  0
 74175  1  0
 75176  1  6
 76177  1  0
 76178  1  0
 76179  1  0
 79180  1  0
 80181  1  6
 81182  1  0
 81183  1  0
 81184  1  0
 84185  1  0
 85186  1  6
 86187  1  0
 86188  1  0
 86189  1  0
 89190  1  0
 90191  1  6
 91192  1  0
 91193  1  0
 91194  1  0
 94195  1  0
 95196  1  1
 96197  1  0
 96198  1  0
 96199  1  0
 99200  1  0
100201  1  6
102202  1  0
102203  1  0
104204  1  0
104205  1  0
106206  1  0
106207  1  0
M  END
