
     RDKit          3D

107109  0  0  0  0  0  0  0  0999 V2000
   -8.7195    0.4974    1.1076 C   0  0  0  0  0  0  0  0  0  0  0  0
   -7.9894    0.2958   -0.1891 C   0  0  0  0  0  0  0  0  0  0  0  0
   -8.6551   -0.1080   -1.1841 O   0  0  0  0  0  0  0  0  0  0  0  0
   -6.5778    0.5253   -0.3590 N   0  0  0  0  0  0  0  0  0  0  0  0
   -5.6412    1.1536    0.5886 C   0  0  1  0  0  0  0  0  0  0  0  0
   -6.0065    2.6290    0.8412 C   0  0  0  0  0  0  0  0  0  0  0  0
   -6.0939    3.5558   -0.7416 S   0  0  0  0  0  0  0  0  0  0  0  0
   -4.5307    4.5055   -0.5741 C   0  0  0  0  0  0  0  0  0  0  0  0
   -3.3292    3.5998   -0.4649 C   0  0  0  0  0  0  0  0  0  0  0  0
   -2.4744    3.6920    0.6435 C   0  0  0  0  0  0  0  0  0  0  0  0
   -1.4119    2.7909    0.7977 C   0  0  0  0  0  0  0  0  0  0  0  0
   -1.2098    1.7906   -0.1587 C   0  0  0  0  0  0  0  0  0  0  0  0
   -2.0279    1.7077   -1.3006 C   0  0  0  0  0  0  0  0  0  0  0  0
   -3.0691    2.6381   -1.4568 C   0  0  0  0  0  0  0  0  0  0  0  0
   -1.9522    0.5449   -2.2672 C   0  0  0  0  0  0  0  0  0  0  0  0
   -0.3374   -0.3439   -2.2502 S   0  0  0  0  0  0  0  0  0  0  0  0
   -0.9655   -2.0430   -1.9544 C   0  0  0  0  0  0  0  0  0  0  0  0
   -0.9841   -2.4182   -0.4578 C   0  0  1  0  0  0  0  0  0  0  0  0
   -2.0656   -1.7044    0.2412 N   0  0  0  0  0  0  0  0  0  0  0  0
   -3.1933   -2.3067    0.8904 C   0  0  0  0  0  0  0  0  0  0  0  0
   -3.0262   -3.2564    1.7063 O   0  0  0  0  0  0  0  0  0  0  0  0
   -4.5691   -1.7510    0.6468 C   0  0  1  0  0  0  0  0  0  0  0  0
   -5.5594   -2.8636    0.2923 C   0  0  0  0  0  0  0  0  0  0  0  0
   -5.0416   -1.0349    1.8369 N   0  0  0  0  0  0  0  0  0  0  0  0
   -5.4872    0.3332    1.8577 C   0  0  0  0  0  0  0  0  0  0  0  0
   -5.7374    0.8648    2.9768 O   0  0  0  0  0  0  0  0  0  0  0  0
   -1.1106   -3.9154   -0.3240 C   0  0  0  0  0  0  0  0  0  0  0  0
   -2.1543   -4.4942   -0.7358 O   0  0  0  0  0  0  0  0  0  0  0  0
   -0.0706   -4.6969    0.2754 N   0  0  0  0  0  0  0  0  0  0  0  0
    1.2708   -4.7654   -0.3118 C   0  0  2  0  0  0  0  0  0  0  0  0
    1.2346   -5.7191   -1.5144 C   0  0  0  0  0  0  0  0  0  0  0  0
    2.2492   -5.2709    0.7186 C   0  0  0  0  0  0  0  0  0  0  0  0
    2.0056   -6.3657    1.2948 O   0  0  0  0  0  0  0  0  0  0  0  0
    3.4172   -4.5321    1.1185 N   0  0  0  0  0  0  0  0  0  0  0  0
    4.2504   -3.6734    0.2556 C   0  0  2  0  0  0  0  0  0  0  0  0
    4.5165   -4.3404   -1.1087 C   0  0  0  0  0  0  0  0  0  0  0  0
    5.5797   -3.4334    0.9453 C   0  0  0  0  0  0  0  0  0  0  0  0
    6.2693   -4.4368    1.2822 O   0  0  0  0  0  0  0  0  0  0  0  0
    6.0793   -2.1248    1.2692 N   0  0  0  0  0  0  0  0  0  0  0  0
    5.7907   -0.8801    0.5386 C   0  0  2  0  0  0  0  0  0  0  0  0
    6.1123   -1.0309   -0.9542 C   0  0  0  0  0  0  0  0  0  0  0  0
    6.6275    0.2413    1.1110 C   0  0  0  0  0  0  0  0  0  0  0  0
    7.8793    0.0981    1.2125 O   0  0  0  0  0  0  0  0  0  0  0  0
    6.0264    1.4544    1.5761 N   0  0  0  0  0  0  0  0  0  0  0  0
    5.3520    2.3643    0.6479 C   0  0  2  0  0  0  0  0  0  0  0  0
    6.4062    3.2972    0.0406 C   0  0  0  0  0  0  0  0  0  0  0  0
    4.2818    3.1366    1.3824 C   0  0  0  0  0  0  0  0  0  0  0  0
    3.8165    2.6912    2.4679 O   0  0  0  0  0  0  0  0  0  0  0  0
    3.7793    4.3766    0.8673 N   0  0  0  0  0  0  0  0  0  0  0  0
    2.7338    4.4562   -0.1564 C   0  0  1  0  0  0  0  0  0  0  0  0
    3.2885    4.0820   -1.5069 C   0  0  0  0  0  0  0  0  0  0  0  0
    4.0360    5.0437   -2.2462 N   0  0  0  0  0  0  0  0  0  0  0  0
    3.0827    2.9374   -2.0013 O   0  0  0  0  0  0  0  0  0  0  0  0
    1.5048    3.6176    0.2226 C   0  0  0  0  0  0  0  0  0  0  0  0
    0.7033    4.2924    1.7274 S   0  0  0  0  0  0  0  0  0  0  0  0
   -0.4722    2.9121    1.9687 C   0  0  0  0  0  0  0  0  0  0  0  0
   -9.4889    1.2875    0.9775 H   0  0  0  0  0  0  0  0  0  0  0  0
   -8.0635    0.7969    1.9408 H   0  0  0  0  0  0  0  0  0  0  0  0
   -9.2191   -0.4493    1.3941 H   0  0  0  0  0  0  0  0  0  0  0  0
   -6.1842    0.2676   -1.2929 H   0  0  0  0  0  0  0  0  0  0  0  0
   -4.6358    1.1659    0.1161 H   0  0  0  0  0  0  0  0  0  0  0  0
   -6.9919    2.6985    1.3372 H   0  0  0  0  0  0  0  0  0  0  0  0
   -5.2691    3.0886    1.5297 H   0  0  0  0  0  0  0  0  0  0  0  0
   -4.4209    5.1475   -1.4763 H   0  0  0  0  0  0  0  0  0  0  0  0
   -4.6119    5.1782    0.3090 H   0  0  0  0  0  0  0  0  0  0  0  0
   -2.6408    4.4512    1.3996 H   0  0  0  0  0  0  0  0  0  0  0  0
   -0.4084    1.0830   -0.0030 H   0  0  0  0  0  0  0  0  0  0  0  0
   -3.7321    2.5619   -2.3137 H   0  0  0  0  0  0  0  0  0  0  0  0
   -2.7985   -0.1354   -2.0372 H   0  0  0  0  0  0  0  0  0  0  0  0
   -2.1138    0.9179   -3.3009 H   0  0  0  0  0  0  0  0  0  0  0  0
   -0.2646   -2.7218   -2.4871 H   0  0  0  0  0  0  0  0  0  0  0  0
   -1.9670   -2.1984   -2.4121 H   0  0  0  0  0  0  0  0  0  0  0  0
   -0.0214   -2.1015   -0.0013 H   0  0  0  0  0  0  0  0  0  0  0  0
   -2.1112   -0.6763    0.1374 H   0  0  0  0  0  0  0  0  0  0  0  0
   -4.5113   -1.0811   -0.2349 H   0  0  0  0  0  0  0  0  0  0  0  0
   -6.5520   -2.4227    0.0709 H   0  0  0  0  0  0  0  0  0  0  0  0
   -5.6733   -3.5782    1.1319 H   0  0  0  0  0  0  0  0  0  0  0  0
   -5.2146   -3.4113   -0.6095 H   0  0  0  0  0  0  0  0  0  0  0  0
   -5.0551   -1.5570    2.7444 H   0  0  0  0  0  0  0  0  0  0  0  0
   -0.3920   -5.5217    0.8316 H   0  0  0  0  0  0  0  0  0  0  0  0
    1.5821   -3.7568   -0.6543 H   0  0  0  0  0  0  0  0  0  0  0  0
    0.8031   -6.6996   -1.2207 H   0  0  0  0  0  0  0  0  0  0  0  0
    0.6040   -5.2878   -2.3185 H   0  0  0  0  0  0  0  0  0  0  0  0
    2.2487   -5.9037   -1.9182 H   0  0  0  0  0  0  0  0  0  0  0  0
    3.7678   -4.7500    2.0813 H   0  0  0  0  0  0  0  0  0  0  0  0
    3.7216   -2.7124    0.0904 H   0  0  0  0  0  0  0  0  0  0  0  0
    4.6293   -5.4384   -0.9928 H   0  0  0  0  0  0  0  0  0  0  0  0
    5.4467   -3.9549   -1.5817 H   0  0  0  0  0  0  0  0  0  0  0  0
    3.6878   -4.1247   -1.8118 H   0  0  0  0  0  0  0  0  0  0  0  0
    6.7998   -2.0975    2.0262 H   0  0  0  0  0  0  0  0  0  0  0  0
    4.7141   -0.6267    0.6544 H   0  0  0  0  0  0  0  0  0  0  0  0
    5.3408   -1.6475   -1.4538 H   0  0  0  0  0  0  0  0  0  0  0  0
    6.1174   -0.0392   -1.4551 H   0  0  0  0  0  0  0  0  0  0  0  0
    7.1042   -1.5104   -1.0879 H   0  0  0  0  0  0  0  0  0  0  0  0
    6.4479    1.8793    2.4352 H   0  0  0  0  0  0  0  0  0  0  0  0
    4.8652    1.7885   -0.1683 H   0  0  0  0  0  0  0  0  0  0  0  0
    7.2278    2.7068   -0.4128 H   0  0  0  0  0  0  0  0  0  0  0  0
    5.9702    3.9240   -0.7561 H   0  0  0  0  0  0  0  0  0  0  0  0
    6.8357    3.9593    0.8219 H   0  0  0  0  0  0  0  0  0  0  0  0
    4.0085    5.2458    1.4038 H   0  0  0  0  0  0  0  0  0  0  0  0
    2.3903    5.5141   -0.2300 H   0  0  0  0  0  0  0  0  0  0  0  0
    4.2226    5.9901   -1.8463 H   0  0  0  0  0  0  0  0  0  0  0  0
    4.3674    4.8338   -3.2131 H   0  0  0  0  0  0  0  0  0  0  0  0
    1.7866    2.5515    0.3790 H   0  0  0  0  0  0  0  0  0  0  0  0
    0.7724    3.6762   -0.6131 H   0  0  0  0  0  0  0  0  0  0  0  0
   -1.0507    3.0995    2.8973 H   0  0  0  0  0  0  0  0  0  0  0  0
    0.0994    1.9744    2.1322 H   0  0  0  0  0  0  0  0  0  0  0  0
  1  2  1  0
  2  3  2  0
  2  4  1  0
  4  5  1  0
  5  6  1  0
  6  7  1  0
  7  8  1  0
  8  9  1  0
  9 10  1  0
 10 11  2  0
 11 12  1  0
 12 13  2  0
 13 14  1  0
 13 15  1  0
 15 16  1  0
 16 17  1  0
 17 18  1  0
 18 19  1  0
 19 20  1  0
 20 21  2  0
 20 22  1  0
 22 23  1  0
 22 24  1  0
 24 25  1  0
 25 26  2  0
 18 27  1  0
 27 28  2  0
 27 29  1  0
 29 30  1  0
 30 31  1  0
 30 32  1  0
 32 33  2  0
 32 34  1  0
 34 35  1  0
 35 36  1  0
 35 37  1  0
 37 38  2  0
 37 39  1  0
 39 40  1  0
 40 41  1  0
 40 42  1  0
 42 43  2  0
 42 44  1  0
 44 45  1  0
 45 46  1  0
 45 47  1  0
 47 48  2  0
 47 49  1  0
 49 50  1  0
 50 51  1  0
 51 52  1  0
 51 53  2  0
 50 54  1  0
 54 55  1  0
 55 56  1  0
 25  5  1  0
 14  9  2  0
 56 11  1  0
  1 57  1  0
  1 58  1  0
  1 59  1  0
  4 60  1  0
  5 61  1  6
  6 62  1  0
  6 63  1  0
  8 64  1  0
  8 65  1  0
 10 66  1  0
 12 67  1  0
 14 68  1  0
 15 69  1  0
 15 70  1  0
 17 71  1  0
 17 72  1  0
 18 73  1  1
 19 74  1  0
 22 75  1  6
 23 76  1  0
 23 77  1  0
 23 78  1  0
 24 79  1  0
 29 80  1  0
 30 81  1  6
 31 82  1  0
 31 83  1  0
 31 84  1  0
 34 85  1  0
 35 86  1  6
 36 87  1  0
 36 88  1  0
 36 89  1  0
 39 90  1  0
 40 91  1  6
 41 92  1  0
 41 93  1  0
 41 94  1  0
 44 95  1  0
 45 96  1  6
 46 97  1  0
 46 98  1  0
 46 99  1  0
 49100  1  0
 50101  1  6
 52102  1  0
 52103  1  0
 54104  1  0
 54105  1  0
 56106  1  0
 56107  1  0
M  END
