
     RDKit          3D

217219  0  0  0  0  0  0  0  0999 V2000
   -4.8201   -9.0056    4.2419 C   0  0  0  0  0  0  0  0  0  0  0  0
   -4.6637   -8.6578    2.7981 C   0  0  0  0  0  0  0  0  0  0  0  0
   -4.2808   -9.5556    2.0002 O   0  0  0  0  0  0  0  0  0  0  0  0
   -4.9414   -7.3206    2.3333 N   0  0  0  0  0  0  0  0  0  0  0  0
   -5.0088   -6.9071    0.9192 C   0  0  1  0  0  0  0  0  0  0  0  0
   -3.6663   -7.1053    0.1900 C   0  0  0  0  0  0  0  0  0  0  0  0
   -2.3044   -6.1700    0.9872 S   0  0  0  0  0  0  0  0  0  0  0  0
   -2.6615   -4.5471    0.2228 C   0  0  0  0  0  0  0  0  0  0  0  0
   -1.4027   -3.7332    0.1426 C   0  0  0  0  0  0  0  0  0  0  0  0
   -0.3951   -4.0906   -0.7733 C   0  0  0  0  0  0  0  0  0  0  0  0
    0.7723   -3.3131   -0.8920 C   0  0  0  0  0  0  0  0  0  0  0  0
    0.9275   -2.1710   -0.0909 C   0  0  0  0  0  0  0  0  0  0  0  0
   -0.0802   -1.8019    0.8134 C   0  0  0  0  0  0  0  0  0  0  0  0
   -1.2350   -2.5903    0.9375 C   0  0  0  0  0  0  0  0  0  0  0  0
    0.0420   -0.5426    1.6258 C   0  0  0  0  0  0  0  0  0  0  0  0
   -1.1361    0.7081    1.0232 S   0  0  0  0  0  0  0  0  0  0  0  0
   -0.1793    1.2650   -0.4390 C   0  0  0  0  0  0  0  0  0  0  0  0
   -0.3830    2.7847   -0.6159 C   0  0  2  0  0  0  0  0  0  0  0  0
   -1.7856    3.0599   -0.9534 N   0  0  0  0  0  0  0  0  0  0  0  0
   -2.7381    3.5709   -0.0100 C   0  0  0  0  0  0  0  0  0  0  0  0
   -3.8641    3.0015    0.0700 O   0  0  0  0  0  0  0  0  0  0  0  0
   -2.4127    4.7003    0.9344 C   0  0  1  0  0  0  0  0  0  0  0  0
   -1.5963    5.8193    0.2558 C   0  0  0  0  0  0  0  0  0  0  0  0
   -3.6505    5.2242    1.5356 N   0  0  0  0  0  0  0  0  0  0  0  0
   -4.3477    6.3835    1.0521 C   0  0  0  0  0  0  0  0  0  0  0  0
   -4.0106    7.5234    1.4788 O   0  0  0  0  0  0  0  0  0  0  0  0
   -5.4733    6.2780    0.0512 C   0  0  1  0  0  0  0  0  0  0  0  0
   -4.9140    6.3231   -1.3826 C   0  0  0  0  0  0  0  0  0  0  0  0
   -6.2500    5.0491    0.2527 N   0  0  0  0  0  0  0  0  0  0  0  0
   -7.2320    4.8373    1.2861 C   0  0  0  0  0  0  0  0  0  0  0  0
   -7.4812    3.6509    1.6356 O   0  0  0  0  0  0  0  0  0  0  0  0
   -8.0102    5.9554    1.9532 C   0  0  1  0  0  0  0  0  0  0  0  0
   -7.1668    6.6529    3.0237 C   0  0  0  0  0  0  0  0  0  0  0  0
   -8.5177    6.9188    0.9716 N   0  0  0  0  0  0  0  0  0  0  0  0
   -9.3671    6.5798   -0.1395 C   0  0  0  0  0  0  0  0  0  0  0  0
   -9.4186    7.3782   -1.1176 O   0  0  0  0  0  0  0  0  0  0  0  0
  -10.2484    5.3454   -0.1632 C   0  0  1  0  0  0  0  0  0  0  0  0
  -11.7147    5.7947   -0.2699 C   0  0  0  0  0  0  0  0  0  0  0  0
   -9.8735    4.4882   -1.2985 N   0  0  0  0  0  0  0  0  0  0  0  0
  -10.2495    3.1091   -1.4889 C   0  0  0  0  0  0  0  0  0  0  0  0
   -9.7588    2.4949   -2.4740 O   0  0  0  0  0  0  0  0  0  0  0  0
  -11.2415    2.3786   -0.6011 C   0  0  1  0  0  0  0  0  0  0  0  0
  -12.5753    2.1583   -1.3367 C   0  0  0  0  0  0  0  0  0  0  0  0
  -10.6925    1.1008   -0.1105 N   0  0  0  0  0  0  0  0  0  0  0  0
  -10.6352   -0.1121   -0.8751 C   0  0  0  0  0  0  0  0  0  0  0  0
  -10.3304   -0.0783   -2.0940 O   0  0  0  0  0  0  0  0  0  0  0  0
  -10.9290   -1.4630   -0.2491 C   0  0  1  0  0  0  0  0  0  0  0  0
  -11.4634   -1.3689    1.1827 C   0  0  0  0  0  0  0  0  0  0  0  0
  -11.9220   -2.1707   -1.0701 N   0  0  0  0  0  0  0  0  0  0  0  0
  -11.7551   -3.5035   -1.5768 C   0  0  0  0  0  0  0  0  0  0  0  0
  -12.4586   -3.8603   -2.5633 O   0  0  0  0  0  0  0  0  0  0  0  0
  -10.7688   -4.4783   -0.9694 C   0  0  1  0  0  0  0  0  0  0  0  0
  -11.3105   -5.9175   -1.0364 C   0  0  0  0  0  0  0  0  0  0  0  0
   -9.4692   -4.3646   -1.6555 N   0  0  0  0  0  0  0  0  0  0  0  0
   -8.4463   -5.3633   -1.5914 C   0  0  0  0  0  0  0  0  0  0  0  0
   -8.1920   -6.0295   -2.6305 O   0  0  0  0  0  0  0  0  0  0  0  0
   -7.5676   -5.5680   -0.3721 C   0  0  1  0  0  0  0  0  0  0  0  0
   -8.1061   -4.9070    0.8951 C   0  0  0  0  0  0  0  0  0  0  0  0
   -7.3798   -7.0006   -0.1285 N   0  0  0  0  0  0  0  0  0  0  0  0
   -6.1370   -7.6356    0.2148 C   0  0  0  0  0  0  0  0  0  0  0  0
   -6.0058   -8.8671   -0.0333 O   0  0  0  0  0  0  0  0  0  0  0  0
    0.4987    3.3416   -1.7065 C   0  0  0  0  0  0  0  0  0  0  0  0
    0.1649    3.2057   -2.9154 O   0  0  0  0  0  0  0  0  0  0  0  0
    1.6907    4.0745   -1.3915 N   0  0  0  0  0  0  0  0  0  0  0  0
    2.8265    3.4277   -0.7236 C   0  0  2  0  0  0  0  0  0  0  0  0
    2.6800    3.4812    0.8005 C   0  0  0  0  0  0  0  0  0  0  0  0
    4.1321    4.0203   -1.2140 C   0  0  0  0  0  0  0  0  0  0  0  0
    4.9272    3.2762   -1.8484 O   0  0  0  0  0  0  0  0  0  0  0  0
    4.4212    5.4314   -1.1370 N   0  0  0  0  0  0  0  0  0  0  0  0
    4.6349    6.1511    0.1281 C   0  0  2  0  0  0  0  0  0  0  0  0
    4.2068    7.6085   -0.0438 C   0  0  0  0  0  0  0  0  0  0  0  0
    6.0804    6.0888    0.5731 C   0  0  0  0  0  0  0  0  0  0  0  0
    6.4045    6.6071    1.6817 O   0  0  0  0  0  0  0  0  0  0  0  0
    7.0905    5.4857   -0.2568 N   0  0  0  0  0  0  0  0  0  0  0  0
    8.4341    6.0582   -0.4031 C   0  0  2  0  0  0  0  0  0  0  0  0
    8.3332    7.5249   -0.8433 C   0  0  0  0  0  0  0  0  0  0  0  0
    9.2116    5.2848   -1.4533 C   0  0  0  0  0  0  0  0  0  0  0  0
    8.6931    5.1607   -2.5969 O   0  0  0  0  0  0  0  0  0  0  0  0
   10.4870    4.6665   -1.2054 N   0  0  0  0  0  0  0  0  0  0  0  0
   11.2514    4.7385    0.0457 C   0  0  2  0  0  0  0  0  0  0  0  0
   11.8455    6.1428    0.2150 C   0  0  0  0  0  0  0  0  0  0  0  0
   12.3424    3.6736    0.0276 C   0  0  0  0  0  0  0  0  0  0  0  0
   13.5541    4.0210    0.0281 O   0  0  0  0  0  0  0  0  0  0  0  0
   12.0351    2.2699   -0.0331 N   0  0  0  0  0  0  0  0  0  0  0  0
   10.7334    1.6807    0.3185 C   0  0  2  0  0  0  0  0  0  0  0  0
   10.7757    1.1632    1.7565 C   0  0  0  0  0  0  0  0  0  0  0  0
   10.3784    0.5795   -0.6520 C   0  0  0  0  0  0  0  0  0  0  0  0
    9.2067    0.5133   -1.1110 O   0  0  0  0  0  0  0  0  0  0  0  0
   11.3673   -0.3323   -1.1217 N   0  0  0  0  0  0  0  0  0  0  0  0
   11.6336   -1.6095   -0.4499 C   0  0  2  0  0  0  0  0  0  0  0  0
   13.1403   -1.8851   -0.4831 C   0  0  0  0  0  0  0  0  0  0  0  0
   10.8728   -2.7431   -1.1128 C   0  0  0  0  0  0  0  0  0  0  0  0
   10.2506   -2.5261   -2.1899 O   0  0  0  0  0  0  0  0  0  0  0  0
   10.9055   -4.0759   -0.5962 N   0  0  0  0  0  0  0  0  0  0  0  0
   10.9868   -4.3996    0.8333 C   0  0  2  0  0  0  0  0  0  0  0  0
   11.7575   -5.7109    1.0315 C   0  0  0  0  0  0  0  0  0  0  0  0
    9.5949   -4.4212    1.4185 C   0  0  0  0  0  0  0  0  0  0  0  0
    8.9640   -3.3293    1.5213 O   0  0  0  0  0  0  0  0  0  0  0  0
    9.0277   -5.6058    1.9854 N   0  0  0  0  0  0  0  0  0  0  0  0
    7.9451   -6.3622    1.3492 C   0  0  2  0  0  0  0  0  0  0  0  0
    8.4997   -7.2358    0.2195 C   0  0  0  0  0  0  0  0  0  0  0  0
    6.8144   -5.4602    0.9023 C   0  0  0  0  0  0  0  0  0  0  0  0
    6.1656   -4.8102    1.7666 O   0  0  0  0  0  0  0  0  0  0  0  0
    6.4610   -5.3473   -0.4862 N   0  0  0  0  0  0  0  0  0  0  0  0
    5.1723   -5.8159   -1.0119 C   0  0  1  0  0  0  0  0  0  0  0  0
    4.8436   -7.1904   -0.4716 C   0  0  0  0  0  0  0  0  0  0  0  0
    4.8773   -8.3297   -1.3313 N   0  0  0  0  0  0  0  0  0  0  0  0
    4.5512   -7.3470    0.7444 O   0  0  0  0  0  0  0  0  0  0  0  0
    4.0533   -4.8027   -0.7364 C   0  0  0  0  0  0  0  0  0  0  0  0
    2.5102   -5.3229   -1.5964 S   0  0  0  0  0  0  0  0  0  0  0  0
    1.8061   -3.6601   -1.9247 C   0  0  0  0  0  0  0  0  0  0  0  0
   -5.5630   -9.8239    4.3513 H   0  0  0  0  0  0  0  0  0  0  0  0
   -5.1665   -8.1298    4.8293 H   0  0  0  0  0  0  0  0  0  0  0  0
   -3.8417   -9.3323    4.6415 H   0  0  0  0  0  0  0  0  0  0  0  0
   -5.1431   -6.5875    3.0484 H   0  0  0  0  0  0  0  0  0  0  0  0
   -5.2145   -5.8154    0.9124 H   0  0  0  0  0  0  0  0  0  0  0  0
   -3.3748   -8.1771    0.1782 H   0  0  0  0  0  0  0  0  0  0  0  0
   -3.7699   -6.8089   -0.8791 H   0  0  0  0  0  0  0  0  0  0  0  0
   -3.4313   -4.0342    0.8444 H   0  0  0  0  0  0  0  0  0  0  0  0
   -3.0724   -4.6458   -0.8026 H   0  0  0  0  0  0  0  0  0  0  0  0
   -0.5329   -4.9521   -1.4137 H   0  0  0  0  0  0  0  0  0  0  0  0
    1.8177   -1.5538   -0.1857 H   0  0  0  0  0  0  0  0  0  0  0  0
   -2.0057   -2.2958    1.6430 H   0  0  0  0  0  0  0  0  0  0  0  0
   -0.2234   -0.7708    2.6729 H   0  0  0  0  0  0  0  0  0  0  0  0
    1.0788   -0.1414    1.6345 H   0  0  0  0  0  0  0  0  0  0  0  0
   -0.5262    0.7171   -1.3425 H   0  0  0  0  0  0  0  0  0  0  0  0
    0.9050    1.0569   -0.3041 H   0  0  0  0  0  0  0  0  0  0  0  0
   -0.1162    3.2713    0.3450 H   0  0  0  0  0  0  0  0  0  0  0  0
   -2.1754    2.6181   -1.8202 H   0  0  0  0  0  0  0  0  0  0  0  0
   -1.7837    4.2844    1.7518 H   0  0  0  0  0  0  0  0  0  0  0  0
   -2.1156    6.2118   -0.6387 H   0  0  0  0  0  0  0  0  0  0  0  0
   -1.4389    6.6555    0.9698 H   0  0  0  0  0  0  0  0  0  0  0  0
   -0.5972    5.4671   -0.0551 H   0  0  0  0  0  0  0  0  0  0  0  0
   -3.9409    4.8413    2.4628 H   0  0  0  0  0  0  0  0  0  0  0  0
   -6.1312    7.1691    0.1613 H   0  0  0  0  0  0  0  0  0  0  0  0
   -5.7518    6.2737   -2.1066 H   0  0  0  0  0  0  0  0  0  0  0  0
   -4.3573    7.2714   -1.5452 H   0  0  0  0  0  0  0  0  0  0  0  0
   -4.2366    5.4688   -1.5613 H   0  0  0  0  0  0  0  0  0  0  0  0
   -6.0143    4.2191   -0.3332 H   0  0  0  0  0  0  0  0  0  0  0  0
   -8.8765    5.5109    2.4889 H   0  0  0  0  0  0  0  0  0  0  0  0
   -6.3915    7.3052    2.5713 H   0  0  0  0  0  0  0  0  0  0  0  0
   -6.6825    5.9082    3.6930 H   0  0  0  0  0  0  0  0  0  0  0  0
   -7.8222    7.3036    3.6441 H   0  0  0  0  0  0  0  0  0  0  0  0
   -8.2051    7.9158    1.0382 H   0  0  0  0  0  0  0  0  0  0  0  0
  -10.1214    4.7747    0.7775 H   0  0  0  0  0  0  0  0  0  0  0  0
  -11.9719    6.4400    0.5936 H   0  0  0  0  0  0  0  0  0  0  0  0
  -12.4112    4.9365   -0.2600 H   0  0  0  0  0  0  0  0  0  0  0  0
  -11.8870    6.3620   -1.2071 H   0  0  0  0  0  0  0  0  0  0  0  0
   -9.2159    4.8779   -2.0113 H   0  0  0  0  0  0  0  0  0  0  0  0
  -11.4618    2.9918    0.2910 H   0  0  0  0  0  0  0  0  0  0  0  0
  -13.2823    1.6098   -0.6772 H   0  0  0  0  0  0  0  0  0  0  0  0
  -13.0321    3.1291   -1.6115 H   0  0  0  0  0  0  0  0  0  0  0  0
  -12.4291    1.5729   -2.2683 H   0  0  0  0  0  0  0  0  0  0  0  0
  -10.3973    1.0785    0.8906 H   0  0  0  0  0  0  0  0  0  0  0  0
   -9.9713   -2.0192   -0.2267 H   0  0  0  0  0  0  0  0  0  0  0  0
  -12.3630   -0.7181    1.2280 H   0  0  0  0  0  0  0  0  0  0  0  0
  -10.6893   -0.9825    1.8709 H   0  0  0  0  0  0  0  0  0  0  0  0
  -11.7449   -2.3779    1.5485 H   0  0  0  0  0  0  0  0  0  0  0  0
  -12.7849   -1.6482   -1.3455 H   0  0  0  0  0  0  0  0  0  0  0  0
  -10.6513   -4.2210    0.0974 H   0  0  0  0  0  0  0  0  0  0  0  0
  -12.3359   -5.9628   -0.6165 H   0  0  0  0  0  0  0  0  0  0  0  0
  -11.3329   -6.2840   -2.0831 H   0  0  0  0  0  0  0  0  0  0  0  0
  -10.6667   -6.5972   -0.4371 H   0  0  0  0  0  0  0  0  0  0  0  0
   -9.3917   -3.6927   -2.4516 H   0  0  0  0  0  0  0  0  0  0  0  0
   -6.5927   -5.0921   -0.6267 H   0  0  0  0  0  0  0  0  0  0  0  0
   -7.3562   -4.9906    1.7173 H   0  0  0  0  0  0  0  0  0  0  0  0
   -8.2971   -3.8307    0.7269 H   0  0  0  0  0  0  0  0  0  0  0  0
   -9.0329   -5.4115    1.2350 H   0  0  0  0  0  0  0  0  0  0  0  0
   -8.2058   -7.6299   -0.2764 H   0  0  0  0  0  0  0  0  0  0  0  0
    1.8642    4.9435   -1.9505 H   0  0  0  0  0  0  0  0  0  0  0  0
    2.8388    2.3509   -1.0178 H   0  0  0  0  0  0  0  0  0  0  0  0
    2.0249    2.6585    1.1494 H   0  0  0  0  0  0  0  0  0  0  0  0
    2.2143    4.4381    1.1164 H   0  0  0  0  0  0  0  0  0  0  0  0
    3.6610    3.3480    1.2929 H   0  0  0  0  0  0  0  0  0  0  0  0
    4.8735    5.8565   -1.9792 H   0  0  0  0  0  0  0  0  0  0  0  0
    4.0137    5.7160    0.9299 H   0  0  0  0  0  0  0  0  0  0  0  0
    4.9216    8.1449   -0.7079 H   0  0  0  0  0  0  0  0  0  0  0  0
    4.1761    8.1221    0.9420 H   0  0  0  0  0  0  0  0  0  0  0  0
    3.1951    7.6589   -0.4984 H   0  0  0  0  0  0  0  0  0  0  0  0
    6.8380    4.6252   -0.7957 H   0  0  0  0  0  0  0  0  0  0  0  0
    8.9401    6.0209    0.5831 H   0  0  0  0  0  0  0  0  0  0  0  0
    7.6869    7.6212   -1.7433 H   0  0  0  0  0  0  0  0  0  0  0  0
    9.3389    7.9296   -1.0900 H   0  0  0  0  0  0  0  0  0  0  0  0
    7.9058    8.1469   -0.0265 H   0  0  0  0  0  0  0  0  0  0  0  0
   10.8916    4.1259   -2.0049 H   0  0  0  0  0  0  0  0  0  0  0  0
   10.5933    4.5265    0.9160 H   0  0  0  0  0  0  0  0  0  0  0  0
   12.4587    6.1896    1.1410 H   0  0  0  0  0  0  0  0  0  0  0  0
   12.4850    6.4029   -0.6574 H   0  0  0  0  0  0  0  0  0  0  0  0
   11.0497    6.9081    0.3070 H   0  0  0  0  0  0  0  0  0  0  0  0
   12.8439    1.6156   -0.1058 H   0  0  0  0  0  0  0  0  0  0  0  0
    9.9313    2.4436    0.2629 H   0  0  0  0  0  0  0  0  0  0  0  0
    9.7917    0.7240    2.0319 H   0  0  0  0  0  0  0  0  0  0  0  0
   10.9896    2.0030    2.4502 H   0  0  0  0  0  0  0  0  0  0  0  0
   11.5709    0.3980    1.8770 H   0  0  0  0  0  0  0  0  0  0  0  0
   11.6705   -0.2275   -2.1185 H   0  0  0  0  0  0  0  0  0  0  0  0
   11.3075   -1.5374    0.6033 H   0  0  0  0  0  0  0  0  0  0  0  0
   13.6802   -1.0874    0.0738 H   0  0  0  0  0  0  0  0  0  0  0  0
   13.3845   -2.8619   -0.0186 H   0  0  0  0  0  0  0  0  0  0  0  0
   13.5117   -1.8789   -1.5290 H   0  0  0  0  0  0  0  0  0  0  0  0
   10.5820   -4.8372   -1.2373 H   0  0  0  0  0  0  0  0  0  0  0  0
   11.5664   -3.6242    1.3782 H   0  0  0  0  0  0  0  0  0  0  0  0
   11.2550   -6.5532    0.5125 H   0  0  0  0  0  0  0  0  0  0  0  0
   11.8486   -5.9474    2.1146 H   0  0  0  0  0  0  0  0  0  0  0  0
   12.7801   -5.6045    0.6092 H   0  0  0  0  0  0  0  0  0  0  0  0
    9.3790   -5.9231    2.9223 H   0  0  0  0  0  0  0  0  0  0  0  0
    7.5138   -7.0577    2.1071 H   0  0  0  0  0  0  0  0  0  0  0  0
    7.6848   -7.8092   -0.2723 H   0  0  0  0  0  0  0  0  0  0  0  0
    9.2249   -7.9703    0.6394 H   0  0  0  0  0  0  0  0  0  0  0  0
    9.0271   -6.6218   -0.5374 H   0  0  0  0  0  0  0  0  0  0  0  0
    7.2482   -5.2411   -1.1514 H   0  0  0  0  0  0  0  0  0  0  0  0
    5.2784   -5.8928   -2.1131 H   0  0  0  0  0  0  0  0  0  0  0  0
    5.0860   -8.2351   -2.3542 H   0  0  0  0  0  0  0  0  0  0  0  0
    4.7187   -9.2856   -0.9437 H   0  0  0  0  0  0  0  0  0  0  0  0
    4.3850   -3.8024   -1.0889 H   0  0  0  0  0  0  0  0  0  0  0  0
    3.8493   -4.7362    0.3599 H   0  0  0  0  0  0  0  0  0  0  0  0
    2.5910   -2.8839   -2.0115 H   0  0  0  0  0  0  0  0  0  0  0  0
    1.3000   -3.7039   -2.9131 H   0  0  0  0  0  0  0  0  0  0  0  0
  1  2  1  0
  2  3  2  0
  2  4  1  0
  4  5  1  0
  5  6  1  0
  6  7  1  0
  7  8  1  0
  8  9  1  0
  9 10  2  0
 10 11  1  0
 11 12  2  0
 12 13  1  0
 13 14  2  0
 13 15  1  0
 15 16  1  0
 16 17  1  0
 17 18  1  0
 18 19  1  0
 19 20  1  0
 20 21  2  0
 20 22  1  0
 22 23  1  0
 22 24  1  0
 24 25  1  0
 25 26  2  0
 25 27  1  0
 27 28  1  0
 27 29  1  0
 29 30  1  0
 30 31  2  0
 30 32  1  0
 32 33  1  0
 32 34  1  0
 34 35  1  0
 35 36  2  0
 35 37  1  0
 37 38  1  0
 37 39  1  0
 39 40  1  0
 40 41  2  0
 40 42  1  0
 42 43  1  0
 42 44  1  0
 44 45  1  0
 45 46  2  0
 45 47  1  0
 47 48  1  0
 47 49  1  0
 49 50  1  0
 50 51  2  0
 50 52  1  0
 52 53  1  0
 52 54  1  0
 54 55  1  0
 55 56  2  0
 55 57  1  0
 57 58  1  0
 57 59  1  0
 59 60  1  0
 60 61  2  0
 18 62  1  0
 62 63  2  0
 62 64  1  0
 64 65  1  0
 65 66  1  0
 65 67  1  0
 67 68  2  0
 67 69  1  0
 69 70  1  0
 70 71  1  0
 70 72  1  0
 72 73  2  0
 72 74  1  0
 74 75  1  0
 75 76  1  0
 75 77  1  0
 77 78  2  0
 77 79  1  0
 79 80  1  0
 80 81  1  0
 80 82  1  0
 82 83  2  0
 82 84  1  0
 84 85  1  0
 85 86  1  0
 85 87  1  0
 87 88  2  0
 87 89  1  0
 89 90  1  0
 90 91  1  0
 90 92  1  0
 92 93  2  0
 92 94  1  0
 94 95  1  0
 95 96  1  0
 95 97  1  0
 97 98  2  0
 97 99  1  0
 99100  1  0
100101  1  0
100102  1  0
102103  2  0
102104  1  0
104105  1  0
105106  1  0
106107  1  0
106108  2  0
105109  1  0
109110  1  0
110111  1  0
 60  5  1  0
 14  9  1  0
111 11  1  0
  1112  1  0
  1113  1  0
  1114  1  0
  4115  1  0
  5116  1  1
  6117  1  0
  6118  1  0
  8119  1  0
  8120  1  0
 10121  1  0
 12122  1  0
 14123  1  0
 15124  1  0
 15125  1  0
 17126  1  0
 17127  1  0
 18128  1  1
 19129  1  0
 22130  1  1
 23131  1  0
 23132  1  0
 23133  1  0
 24134  1  0
 27135  1  6
 28136  1  0
 28137  1  0
 28138  1  0
 29139  1  0
 32140  1  1
 33141  1  0
 33142  1  0
 33143  1  0
 34144  1  0
 37145  1  1
 38146  1  0
 38147  1  0
 38148  1  0
 39149  1  0
 42150  1  1
 43151  1  0
 43152  1  0
 43153  1  0
 44154  1  0
 47155  1  1
 48156  1  0
 48157  1  0
 48158  1  0
 49159  1  0
 52160  1  1
 53161  1  0
 53162  1  0
 53163  1  0
 54164  1  0
 57165  1  6
 58166  1  0
 58167  1  0
 58168  1  0
 59169  1  0
 64170  1  0
 65171  1  6
 66172  1  0
 66173  1  0
 66174  1  0
 69175  1  0
 70176  1  1
 71177  1  0
 71178  1  0
 71179  1  0
 74180  1  0
 75181  1  1
 76182  1  0
 76183  1  0
 76184  1  0
 79185  1  0
 80186  1  1
 81187  1  0
 81188  1  0
 81189  1  0
 84190  1  0
 85191  1  1
 86192  1  0
 86193  1  0
 86194  1  0
 89195  1  0
 90196  1  1
 91197  1  0
 91198  1  0
 91199  1  0
 94200  1  0
 95201  1  1
 96202  1  0
 96203  1  0
 96204  1  0
 99205  1  0
100206  1  1
101207  1  0
101208  1  0
101209  1  0
104210  1  0
105211  1  6
107212  1  0
107213  1  0
109214  1  0
109215  1  0
111216  1  0
111217  1  0
M  END
