
     RDKit          3D

137139  0  0  0  0  0  0  0  0999 V2000
   12.1305    0.0926    1.0809 C   0  0  0  0  0  0  0  0  0  0  0  0
   10.8775    0.4727    0.3604 C   0  0  0  0  0  0  0  0  0  0  0  0
   10.8298    0.3550   -0.8952 O   0  0  0  0  0  0  0  0  0  0  0  0
    9.7355    0.9486    1.0939 N   0  0  0  0  0  0  0  0  0  0  0  0
    8.4141    1.1539    0.4873 C   0  0  2  0  0  0  0  0  0  0  0  0
    8.1028    2.6621    0.4577 C   0  0  0  0  0  0  0  0  0  0  0  0
    6.8018    3.0529   -0.7698 S   0  0  0  0  0  0  0  0  0  0  0  0
    5.4003    3.0499    0.4088 C   0  0  0  0  0  0  0  0  0  0  0  0
    4.0962    2.8503   -0.3100 C   0  0  0  0  0  0  0  0  0  0  0  0
    3.0043    3.6890   -0.0445 C   0  0  0  0  0  0  0  0  0  0  0  0
    1.7467    3.4272   -0.6120 C   0  0  0  0  0  0  0  0  0  0  0  0
    1.5914    2.3234   -1.4656 C   0  0  0  0  0  0  0  0  0  0  0  0
    2.6814    1.4952   -1.7635 C   0  0  0  0  0  0  0  0  0  0  0  0
    3.9272    1.7590   -1.1749 C   0  0  0  0  0  0  0  0  0  0  0  0
    2.5258    0.3280   -2.7030 C   0  0  0  0  0  0  0  0  0  0  0  0
    1.6199   -1.0825   -1.9545 S   0  0  0  0  0  0  0  0  0  0  0  0
    2.7050   -1.4344   -0.5100 C   0  0  0  0  0  0  0  0  0  0  0  0
    3.8108   -2.4792   -0.7550 C   0  0  2  0  0  0  0  0  0  0  0  0
    4.8023   -1.9992   -1.7297 N   0  0  0  0  0  0  0  0  0  0  0  0
    6.1782   -1.6650   -1.4589 C   0  0  0  0  0  0  0  0  0  0  0  0
    6.8810   -1.2278   -2.4135 O   0  0  0  0  0  0  0  0  0  0  0  0
    6.7907   -1.7354   -0.0754 C   0  0  1  0  0  0  0  0  0  0  0  0
    8.2932   -2.0507   -0.1114 C   0  0  0  0  0  0  0  0  0  0  0  0
    6.4547   -0.5092    0.6667 N   0  0  0  0  0  0  0  0  0  0  0  0
    7.3841    0.3921    1.2876 C   0  0  0  0  0  0  0  0  0  0  0  0
    7.2782    0.6177    2.5262 O   0  0  0  0  0  0  0  0  0  0  0  0
    3.2538   -3.8089   -1.2026 C   0  0  0  0  0  0  0  0  0  0  0  0
    2.8974   -3.9576   -2.4064 O   0  0  0  0  0  0  0  0  0  0  0  0
    3.1895   -4.9356   -0.3164 N   0  0  0  0  0  0  0  0  0  0  0  0
    2.6946   -4.8347    1.0599 C   0  0  2  0  0  0  0  0  0  0  0  0
    3.2987   -5.9529    1.9137 C   0  0  0  0  0  0  0  0  0  0  0  0
    1.1910   -4.9207    1.0784 C   0  0  0  0  0  0  0  0  0  0  0  0
    0.5428   -4.2956    1.9632 O   0  0  0  0  0  0  0  0  0  0  0  0
    0.4960   -5.7538    0.1380 N   0  0  0  0  0  0  0  0  0  0  0  0
   -0.7888   -5.3872   -0.4605 C   0  0  2  0  0  0  0  0  0  0  0  0
   -0.6901   -4.0158   -1.1461 C   0  0  0  0  0  0  0  0  0  0  0  0
   -1.8959   -5.4607    0.5611 C   0  0  0  0  0  0  0  0  0  0  0  0
   -2.1310   -6.5508    1.1471 O   0  0  0  0  0  0  0  0  0  0  0  0
   -2.7287   -4.3261    0.8208 N   0  0  0  0  0  0  0  0  0  0  0  0
   -4.1580   -4.2791    0.4786 C   0  0  2  0  0  0  0  0  0  0  0  0
   -4.4829   -5.1423   -0.7523 C   0  0  0  0  0  0  0  0  0  0  0  0
   -4.5438   -2.8488    0.2102 C   0  0  0  0  0  0  0  0  0  0  0  0
   -3.9577   -2.2044   -0.7009 O   0  0  0  0  0  0  0  0  0  0  0  0
   -5.5144   -2.1812    1.0269 N   0  0  0  0  0  0  0  0  0  0  0  0
   -6.9468   -2.1784    0.7123 C   0  0  2  0  0  0  0  0  0  0  0  0
   -7.5859   -3.5303    1.0474 C   0  0  0  0  0  0  0  0  0  0  0  0
   -7.1698   -1.7991   -0.7384 C   0  0  0  0  0  0  0  0  0  0  0  0
   -6.9462   -2.6607   -1.6338 O   0  0  0  0  0  0  0  0  0  0  0  0
   -7.5220   -0.4653   -1.1452 N   0  0  0  0  0  0  0  0  0  0  0  0
   -8.2550    0.5035   -0.3220 C   0  0  2  0  0  0  0  0  0  0  0  0
   -9.7096    0.0609   -0.1645 C   0  0  0  0  0  0  0  0  0  0  0  0
   -8.1832    1.8744   -0.9657 C   0  0  0  0  0  0  0  0  0  0  0  0
   -8.7465    2.0428   -2.0840 O   0  0  0  0  0  0  0  0  0  0  0  0
   -7.4655    2.9811   -0.3867 N   0  0  0  0  0  0  0  0  0  0  0  0
   -6.9102    3.0075    0.9735 C   0  0  2  0  0  0  0  0  0  0  0  0
   -6.4853    4.4277    1.3621 C   0  0  0  0  0  0  0  0  0  0  0  0
   -5.7574    2.0396    1.1286 C   0  0  0  0  0  0  0  0  0  0  0  0
   -5.6920    1.3624    2.1939 O   0  0  0  0  0  0  0  0  0  0  0  0
   -4.7764    1.8084    0.1005 N   0  0  0  0  0  0  0  0  0  0  0  0
   -4.2465    2.8553   -0.7793 C   0  0  2  0  0  0  0  0  0  0  0  0
   -3.4593    2.2244   -1.9297 C   0  0  0  0  0  0  0  0  0  0  0  0
   -3.3649    3.8039   -0.0096 C   0  0  0  0  0  0  0  0  0  0  0  0
   -3.0396    3.5403    1.1795 O   0  0  0  0  0  0  0  0  0  0  0  0
   -2.9028    5.0165   -0.6294 N   0  0  0  0  0  0  0  0  0  0  0  0
   -2.0408    5.9706    0.0717 C   0  0  2  0  0  0  0  0  0  0  0  0
   -2.8818    7.0884    0.6323 C   0  0  0  0  0  0  0  0  0  0  0  0
   -3.0117    7.2533    2.0407 N   0  0  0  0  0  0  0  0  0  0  0  0
   -3.4946    7.8683   -0.1453 O   0  0  0  0  0  0  0  0  0  0  0  0
   -0.9469    6.5084   -0.8663 C   0  0  0  0  0  0  0  0  0  0  0  0
   -0.0338    5.1755   -1.7436 S   0  0  0  0  0  0  0  0  0  0  0  0
    0.5673    4.2902   -0.2607 C   0  0  0  0  0  0  0  0  0  0  0  0
   12.0497    0.3098    2.1690 H   0  0  0  0  0  0  0  0  0  0  0  0
   12.9916    0.6561    0.6644 H   0  0  0  0  0  0  0  0  0  0  0  0
   12.3100   -0.9998    0.9519 H   0  0  0  0  0  0  0  0  0  0  0  0
    9.8402    1.1182    2.1190 H   0  0  0  0  0  0  0  0  0  0  0  0
    8.4084    0.7956   -0.5612 H   0  0  0  0  0  0  0  0  0  0  0  0
    7.8415    3.0453    1.4666 H   0  0  0  0  0  0  0  0  0  0  0  0
    9.0144    3.2073    0.1318 H   0  0  0  0  0  0  0  0  0  0  0  0
    5.4083    4.0073    0.9721 H   0  0  0  0  0  0  0  0  0  0  0  0
    5.5007    2.2228    1.1374 H   0  0  0  0  0  0  0  0  0  0  0  0
    3.1266    4.5303    0.6282 H   0  0  0  0  0  0  0  0  0  0  0  0
    0.6185    2.1042   -1.8942 H   0  0  0  0  0  0  0  0  0  0  0  0
    4.7590    1.0930   -1.3706 H   0  0  0  0  0  0  0  0  0  0  0  0
    1.9487    0.6664   -3.5913 H   0  0  0  0  0  0  0  0  0  0  0  0
    3.5077   -0.0020   -3.0901 H   0  0  0  0  0  0  0  0  0  0  0  0
    3.1565   -0.5098   -0.1032 H   0  0  0  0  0  0  0  0  0  0  0  0
    2.0472   -1.8143    0.2983 H   0  0  0  0  0  0  0  0  0  0  0  0
    4.2910   -2.6321    0.2259 H   0  0  0  0  0  0  0  0  0  0  0  0
    4.5097   -1.9629   -2.7303 H   0  0  0  0  0  0  0  0  0  0  0  0
    6.3655   -2.5942    0.4778 H   0  0  0  0  0  0  0  0  0  0  0  0
    8.7301   -1.9816    0.9052 H   0  0  0  0  0  0  0  0  0  0  0  0
    8.4483   -3.0862   -0.4783 H   0  0  0  0  0  0  0  0  0  0  0  0
    8.8448   -1.3761   -0.7970 H   0  0  0  0  0  0  0  0  0  0  0  0
    5.4630   -0.4337    0.9945 H   0  0  0  0  0  0  0  0  0  0  0  0
    3.2049   -5.8810   -0.7634 H   0  0  0  0  0  0  0  0  0  0  0  0
    2.9996   -3.8699    1.5162 H   0  0  0  0  0  0  0  0  0  0  0  0
    2.9976   -6.9496    1.5266 H   0  0  0  0  0  0  0  0  0  0  0  0
    2.9642   -5.8570    2.9712 H   0  0  0  0  0  0  0  0  0  0  0  0
    4.4099   -5.8837    1.8895 H   0  0  0  0  0  0  0  0  0  0  0  0
    0.9991   -6.5751   -0.2642 H   0  0  0  0  0  0  0  0  0  0  0  0
   -1.0298   -6.1288   -1.2531 H   0  0  0  0  0  0  0  0  0  0  0  0
   -0.4875   -3.2130   -0.4053 H   0  0  0  0  0  0  0  0  0  0  0  0
    0.1336   -4.0250   -1.8903 H   0  0  0  0  0  0  0  0  0  0  0  0
   -1.6326   -3.7804   -1.6802 H   0  0  0  0  0  0  0  0  0  0  0  0
   -2.3256   -3.5636    1.4143 H   0  0  0  0  0  0  0  0  0  0  0  0
   -4.7440   -4.6604    1.3447 H   0  0  0  0  0  0  0  0  0  0  0  0
   -3.8272   -4.8764   -1.6058 H   0  0  0  0  0  0  0  0  0  0  0  0
   -4.3422   -6.2176   -0.5129 H   0  0  0  0  0  0  0  0  0  0  0  0
   -5.5379   -5.0071   -1.0653 H   0  0  0  0  0  0  0  0  0  0  0  0
   -5.1583   -1.4435    1.6686 H   0  0  0  0  0  0  0  0  0  0  0  0
   -7.4390   -1.4478    1.3820 H   0  0  0  0  0  0  0  0  0  0  0  0
   -7.1749   -4.3423    0.4140 H   0  0  0  0  0  0  0  0  0  0  0  0
   -7.3929   -3.7858    2.1127 H   0  0  0  0  0  0  0  0  0  0  0  0
   -8.6850   -3.4809    0.8873 H   0  0  0  0  0  0  0  0  0  0  0  0
   -7.3288   -0.2253   -2.1455 H   0  0  0  0  0  0  0  0  0  0  0  0
   -7.8082    0.5518    0.6814 H   0  0  0  0  0  0  0  0  0  0  0  0
  -10.2830    0.8186    0.4083 H   0  0  0  0  0  0  0  0  0  0  0  0
  -10.1836   -0.0797   -1.1589 H   0  0  0  0  0  0  0  0  0  0  0  0
   -9.7573   -0.9050    0.3844 H   0  0  0  0  0  0  0  0  0  0  0  0
   -7.4355    3.8598   -0.9521 H   0  0  0  0  0  0  0  0  0  0  0  0
   -7.7149    2.7177    1.6832 H   0  0  0  0  0  0  0  0  0  0  0  0
   -7.3821    5.0831    1.4223 H   0  0  0  0  0  0  0  0  0  0  0  0
   -5.9859    4.4319    2.3555 H   0  0  0  0  0  0  0  0  0  0  0  0
   -5.7973    4.8692    0.6122 H   0  0  0  0  0  0  0  0  0  0  0  0
   -4.2802    0.8876    0.1320 H   0  0  0  0  0  0  0  0  0  0  0  0
   -5.0836    3.4297   -1.2240 H   0  0  0  0  0  0  0  0  0  0  0  0
   -3.0798    3.0082   -2.6181 H   0  0  0  0  0  0  0  0  0  0  0  0
   -2.5989    1.6291   -1.5462 H   0  0  0  0  0  0  0  0  0  0  0  0
   -4.1230    1.5509   -2.5134 H   0  0  0  0  0  0  0  0  0  0  0  0
   -3.2840    5.2792   -1.5682 H   0  0  0  0  0  0  0  0  0  0  0  0
   -1.5356    5.4652    0.9154 H   0  0  0  0  0  0  0  0  0  0  0  0
   -2.5626    6.5831    2.7042 H   0  0  0  0  0  0  0  0  0  0  0  0
   -3.5921    8.0296    2.4303 H   0  0  0  0  0  0  0  0  0  0  0  0
   -1.4020    7.1594   -1.6441 H   0  0  0  0  0  0  0  0  0  0  0  0
   -0.2275    7.1254   -0.2877 H   0  0  0  0  0  0  0  0  0  0  0  0
   -0.2410    3.6364    0.1285 H   0  0  0  0  0  0  0  0  0  0  0  0
    0.8438    5.0198    0.5291 H   0  0  0  0  0  0  0  0  0  0  0  0
  1  2  1  0
  2  3  2  0
  2  4  1  0
  4  5  1  0
  5  6  1  0
  6  7  1  0
  7  8  1  0
  8  9  1  0
  9 10  1  0
 10 11  2  0
 11 12  1  0
 12 13  2  0
 13 14  1  0
 13 15  1  0
 15 16  1  0
 16 17  1  0
 17 18  1  0
 18 19  1  0
 19 20  1  0
 20 21  2  0
 20 22  1  0
 22 23  1  0
 22 24  1  0
 24 25  1  0
 25 26  2  0
 18 27  1  0
 27 28  2  0
 27 29  1  0
 29 30  1  0
 30 31  1  0
 30 32  1  0
 32 33  2  0
 32 34  1  0
 34 35  1  0
 35 36  1  0
 35 37  1  0
 37 38  2  0
 37 39  1  0
 39 40  1  0
 40 41  1  0
 40 42  1  0
 42 43  2  0
 42 44  1  0
 44 45  1  0
 45 46  1  0
 45 47  1  0
 47 48  2  0
 47 49  1  0
 49 50  1  0
 50 51  1  0
 50 52  1  0
 52 53  2  0
 52 54  1  0
 54 55  1  0
 55 56  1  0
 55 57  1  0
 57 58  2  0
 57 59  1  0
 59 60  1  0
 60 61  1  0
 60 62  1  0
 62 63  2  0
 62 64  1  0
 64 65  1  0
 65 66  1  0
 66 67  1  0
 66 68  2  0
 65 69  1  0
 69 70  1  0
 70 71  1  0
 25  5  1  0
 14  9  2  0
 71 11  1  0
  1 72  1  0
  1 73  1  0
  1 74  1  0
  4 75  1  0
  5 76  1  6
  6 77  1  0
  6 78  1  0
  8 79  1  0
  8 80  1  0
 10 81  1  0
 12 82  1  0
 14 83  1  0
 15 84  1  0
 15 85  1  0
 17 86  1  0
 17 87  1  0
 18 88  1  1
 19 89  1  0
 22 90  1  1
 23 91  1  0
 23 92  1  0
 23 93  1  0
 24 94  1  0
 29 95  1  0
 30 96  1  1
 31 97  1  0
 31 98  1  0
 31 99  1  0
 34100  1  0
 35101  1  6
 36102  1  0
 36103  1  0
 36104  1  0
 39105  1  0
 40106  1  1
 41107  1  0
 41108  1  0
 41109  1  0
 44110  1  0
 45111  1  1
 46112  1  0
 46113  1  0
 46114  1  0
 49115  1  0
 50116  1  1
 51117  1  0
 51118  1  0
 51119  1  0
 54120  1  0
 55121  1  1
 56122  1  0
 56123  1  0
 56124  1  0
 59125  1  0
 60126  1  6
 61127  1  0
 61128  1  0
 61129  1  0
 64130  1  0
 65131  1  1
 67132  1  0
 67133  1  0
 69134  1  0
 69135  1  0
 71136  1  0
 71137  1  0
M  END
