
     RDKit          3D

227229  0  0  0  0  0  0  0  0999 V2000
    6.8077    8.2149    1.8053 C   0  0  0  0  0  0  0  0  0  0  0  0
    6.9899    8.1450    0.3150 C   0  0  0  0  0  0  0  0  0  0  0  0
    7.8075    8.9396   -0.2226 O   0  0  0  0  0  0  0  0  0  0  0  0
    6.2923    7.1979   -0.5148 N   0  0  0  0  0  0  0  0  0  0  0  0
    5.5617    6.0275   -0.0115 C   0  0  1  0  0  0  0  0  0  0  0  0
    4.9042    5.2425   -1.1767 C   0  0  0  0  0  0  0  0  0  0  0  0
    4.2700    3.5830   -0.7179 S   0  0  0  0  0  0  0  0  0  0  0  0
    2.9663    4.1203    0.4478 C   0  0  0  0  0  0  0  0  0  0  0  0
    1.7592    3.2265    0.3196 C   0  0  0  0  0  0  0  0  0  0  0  0
    0.5160    3.7626   -0.0432 C   0  0  0  0  0  0  0  0  0  0  0  0
   -0.6208    2.9365   -0.1497 C   0  0  0  0  0  0  0  0  0  0  0  0
   -0.5007    1.5687    0.1567 C   0  0  0  0  0  0  0  0  0  0  0  0
    0.7291    1.0242    0.5481 C   0  0  0  0  0  0  0  0  0  0  0  0
    1.8600    1.8572    0.6188 C   0  0  0  0  0  0  0  0  0  0  0  0
    0.8180   -0.4020    1.0145 C   0  0  0  0  0  0  0  0  0  0  0  0
    1.7651   -1.4355   -0.1589 S   0  0  0  0  0  0  0  0  0  0  0  0
    0.3544   -2.0356   -1.1652 C   0  0  0  0  0  0  0  0  0  0  0  0
    0.6294   -3.4741   -1.6355 C   0  0  2  0  0  0  0  0  0  0  0  0
    1.7539   -3.4802   -2.5783 N   0  0  0  0  0  0  0  0  0  0  0  0
    2.9321   -4.3133   -2.5126 C   0  0  0  0  0  0  0  0  0  0  0  0
    3.8085   -4.1748   -3.4076 O   0  0  0  0  0  0  0  0  0  0  0  0
    3.1912   -5.2959   -1.3872 C   0  0  1  0  0  0  0  0  0  0  0  0
    3.9192   -6.5404   -1.9192 C   0  0  0  0  0  0  0  0  0  0  0  0
    3.9953   -4.6592   -0.3447 N   0  0  0  0  0  0  0  0  0  0  0  0
    4.3889   -5.3664    0.8363 C   0  0  0  0  0  0  0  0  0  0  0  0
    3.5259   -6.0033    1.5047 O   0  0  0  0  0  0  0  0  0  0  0  0
    5.8325   -5.3773    1.2605 C   0  0  1  0  0  0  0  0  0  0  0  0
    6.0204   -4.6396    2.5913 C   0  0  0  0  0  0  0  0  0  0  0  0
    6.2959   -6.7596    1.3951 N   0  0  0  0  0  0  0  0  0  0  0  0
    7.3812   -7.3464    0.6620 C   0  0  0  0  0  0  0  0  0  0  0  0
    7.3612   -8.5897    0.4511 O   0  0  0  0  0  0  0  0  0  0  0  0
    8.5464   -6.5373    0.1307 C   0  0  1  0  0  0  0  0  0  0  0  0
    9.8639   -7.2061    0.5542 C   0  0  0  0  0  0  0  0  0  0  0  0
    8.4453   -6.4356   -1.3334 N   0  0  0  0  0  0  0  0  0  0  0  0
    9.1373   -5.4854   -2.1673 C   0  0  0  0  0  0  0  0  0  0  0  0
    8.8078   -5.3992   -3.3815 O   0  0  0  0  0  0  0  0  0  0  0  0
   10.3064   -4.6603   -1.6751 C   0  0  1  0  0  0  0  0  0  0  0  0
   11.6221   -5.3234   -2.1092 C   0  0  0  0  0  0  0  0  0  0  0  0
   10.2468   -3.3019   -2.2202 N   0  0  0  0  0  0  0  0  0  0  0  0
   10.9390   -2.2144   -1.5936 C   0  0  0  0  0  0  0  0  0  0  0  0
   11.6654   -1.4656   -2.3060 O   0  0  0  0  0  0  0  0  0  0  0  0
   10.8459   -1.9707   -0.1016 C   0  0  1  0  0  0  0  0  0  0  0  0
   12.0756   -2.5208    0.6226 C   0  0  0  0  0  0  0  0  0  0  0  0
   10.6299   -0.5495    0.1870 N   0  0  0  0  0  0  0  0  0  0  0  0
   11.5810    0.4745   -0.1419 C   0  0  0  0  0  0  0  0  0  0  0  0
   11.3972    1.1735   -1.1736 O   0  0  0  0  0  0  0  0  0  0  0  0
   12.7056    0.8159    0.8028 C   0  0  1  0  0  0  0  0  0  0  0  0
   14.0618    0.8135    0.0924 C   0  0  0  0  0  0  0  0  0  0  0  0
   12.4331    2.0951    1.4587 N   0  0  0  0  0  0  0  0  0  0  0  0
   12.3517    3.3359    0.7430 C   0  0  0  0  0  0  0  0  0  0  0  0
   13.3345    3.7382    0.0589 O   0  0  0  0  0  0  0  0  0  0  0  0
   11.1113    4.1872    0.8627 C   0  0  1  0  0  0  0  0  0  0  0  0
   11.1754    5.0651    2.1136 C   0  0  0  0  0  0  0  0  0  0  0  0
   10.9342    5.0263   -0.3260 N   0  0  0  0  0  0  0  0  0  0  0  0
    9.6727    5.6113   -0.7011 C   0  0  0  0  0  0  0  0  0  0  0  0
    9.6456    6.8398   -0.9672 O   0  0  0  0  0  0  0  0  0  0  0  0
    8.3901    4.8185   -0.8460 C   0  0  1  0  0  0  0  0  0  0  0  0
    8.6108    3.4683   -1.5364 C   0  0  0  0  0  0  0  0  0  0  0  0
    7.7301    4.6346    0.4515 N   0  0  0  0  0  0  0  0  0  0  0  0
    6.4488    5.1528    0.8544 C   0  0  0  0  0  0  0  0  0  0  0  0
    6.0296    4.8644    2.0108 O   0  0  0  0  0  0  0  0  0  0  0  0
   -0.5934   -4.0451   -2.3107 C   0  0  0  0  0  0  0  0  0  0  0  0
   -0.7943   -3.7832   -3.5261 O   0  0  0  0  0  0  0  0  0  0  0  0
   -1.5530   -4.8750   -1.6255 N   0  0  0  0  0  0  0  0  0  0  0  0
   -1.6410   -5.0463   -0.1716 C   0  0  2  0  0  0  0  0  0  0  0  0
   -0.8945   -6.3217    0.2276 C   0  0  0  0  0  0  0  0  0  0  0  0
   -3.0957   -5.0837    0.2364 C   0  0  0  0  0  0  0  0  0  0  0  0
   -3.9204   -4.3021   -0.3057 O   0  0  0  0  0  0  0  0  0  0  0  0
   -3.5574   -6.0108    1.2377 N   0  0  0  0  0  0  0  0  0  0  0  0
   -4.7438   -6.8735    1.1245 C   0  0  2  0  0  0  0  0  0  0  0  0
   -4.3446   -8.3001    1.5131 C   0  0  0  0  0  0  0  0  0  0  0  0
   -5.3316   -6.8689   -0.2774 C   0  0  0  0  0  0  0  0  0  0  0  0
   -4.5981   -7.2455   -1.2314 O   0  0  0  0  0  0  0  0  0  0  0  0
   -6.6794   -6.4437   -0.5661 N   0  0  0  0  0  0  0  0  0  0  0  0
   -7.7964   -6.4060    0.3928 C   0  0  2  0  0  0  0  0  0  0  0  0
   -8.1014   -7.8108    0.9212 C   0  0  0  0  0  0  0  0  0  0  0  0
   -9.0486   -5.8630   -0.2738 C   0  0  0  0  0  0  0  0  0  0  0  0
   -9.4370   -6.4011   -1.3462 O   0  0  0  0  0  0  0  0  0  0  0  0
   -9.8792   -4.8458    0.3222 N   0  0  0  0  0  0  0  0  0  0  0  0
   -9.4989   -4.0157    1.4705 C   0  0  2  0  0  0  0  0  0  0  0  0
   -9.8293   -4.7495    2.7747 C   0  0  0  0  0  0  0  0  0  0  0  0
  -10.2011   -2.6747    1.4561 C   0  0  0  0  0  0  0  0  0  0  0  0
   -9.9474   -1.8357    2.3674 O   0  0  0  0  0  0  0  0  0  0  0  0
  -11.1837   -2.3337    0.4652 N   0  0  0  0  0  0  0  0  0  0  0  0
  -10.8453   -1.9543   -0.9133 C   0  0  2  0  0  0  0  0  0  0  0  0
   -9.5508   -1.1278   -1.0138 C   0  0  0  0  0  0  0  0  0  0  0  0
  -11.9971   -1.2180   -1.5671 C   0  0  0  0  0  0  0  0  0  0  0  0
  -12.5137   -1.7228   -2.5983 O   0  0  0  0  0  0  0  0  0  0  0  0
  -12.5248    0.0351   -1.0907 N   0  0  0  0  0  0  0  0  0  0  0  0
  -12.3176    0.6108    0.2429 C   0  0  2  0  0  0  0  0  0  0  0  0
  -13.5581    0.4009    1.1192 C   0  0  0  0  0  0  0  0  0  0  0  0
  -11.9695    2.0744    0.1383 C   0  0  0  0  0  0  0  0  0  0  0  0
  -10.7561    2.4193    0.1271 O   0  0  0  0  0  0  0  0  0  0  0  0
  -12.9935    3.0697    0.0147 N   0  0  0  0  0  0  0  0  0  0  0  0
  -12.8418    4.4243    0.5576 C   0  0  2  0  0  0  0  0  0  0  0  0
  -14.0266    4.7435    1.4706 C   0  0  0  0  0  0  0  0  0  0  0  0
  -12.7739    5.4241   -0.5736 C   0  0  0  0  0  0  0  0  0  0  0  0
  -13.5809    5.3014   -1.5354 O   0  0  0  0  0  0  0  0  0  0  0  0
  -11.9067    6.5791   -0.5456 N   0  0  0  0  0  0  0  0  0  0  0  0
  -10.7784    6.7827    0.3738 C   0  0  2  0  0  0  0  0  0  0  0  0
  -11.2396    7.6022    1.5822 C   0  0  0  0  0  0  0  0  0  0  0  0
   -9.6119    7.4434   -0.3223 C   0  0  0  0  0  0  0  0  0  0  0  0
   -9.7226    7.8707   -1.5053 O   0  0  0  0  0  0  0  0  0  0  0  0
   -8.3391    7.5003    0.3305 N   0  0  0  0  0  0  0  0  0  0  0  0
   -7.1438    6.9396   -0.3019 C   0  0  2  0  0  0  0  0  0  0  0  0
   -7.3617    5.4488   -0.5857 C   0  0  0  0  0  0  0  0  0  0  0  0
   -5.9406    7.1321    0.5946 C   0  0  0  0  0  0  0  0  0  0  0  0
   -5.9850    6.7390    1.7908 O   0  0  0  0  0  0  0  0  0  0  0  0
   -4.7626    7.8018    0.1244 N   0  0  0  0  0  0  0  0  0  0  0  0
   -3.8341    7.1871   -0.8325 C   0  0  2  0  0  0  0  0  0  0  0  0
   -4.4160    7.2330   -2.2253 C   0  0  0  0  0  0  0  0  0  0  0  0
   -4.7477    8.4922   -2.8075 N   0  0  0  0  0  0  0  0  0  0  0  0
   -4.6241    6.1772   -2.8823 O   0  0  0  0  0  0  0  0  0  0  0  0
   -3.4445    5.7710   -0.3565 C   0  0  0  0  0  0  0  0  0  0  0  0
   -2.0155    5.1057   -1.2748 S   0  0  0  0  0  0  0  0  0  0  0  0
   -2.0035    3.4924   -0.3955 C   0  0  0  0  0  0  0  0  0  0  0  0
    6.6249    9.2687    2.0985 H   0  0  0  0  0  0  0  0  0  0  0  0
    7.7312    7.8581    2.3128 H   0  0  0  0  0  0  0  0  0  0  0  0
    5.9459    7.6127    2.1477 H   0  0  0  0  0  0  0  0  0  0  0  0
    6.3389    7.3544   -1.5485 H   0  0  0  0  0  0  0  0  0  0  0  0
    4.7248    6.4018    0.6174 H   0  0  0  0  0  0  0  0  0  0  0  0
    5.6243    5.0868   -1.9982 H   0  0  0  0  0  0  0  0  0  0  0  0
    4.0751    5.8470   -1.6019 H   0  0  0  0  0  0  0  0  0  0  0  0
    3.3602    4.0540    1.4839 H   0  0  0  0  0  0  0  0  0  0  0  0
    2.6842    5.1791    0.2615 H   0  0  0  0  0  0  0  0  0  0  0  0
    0.4382    4.8259   -0.2094 H   0  0  0  0  0  0  0  0  0  0  0  0
   -1.3857    0.9403    0.1368 H   0  0  0  0  0  0  0  0  0  0  0  0
    2.8064    1.4414    0.9596 H   0  0  0  0  0  0  0  0  0  0  0  0
    1.3402   -0.4218    1.9948 H   0  0  0  0  0  0  0  0  0  0  0  0
   -0.1906   -0.8211    1.2064 H   0  0  0  0  0  0  0  0  0  0  0  0
    0.2130   -1.3552   -2.0315 H   0  0  0  0  0  0  0  0  0  0  0  0
   -0.5849   -2.0210   -0.5765 H   0  0  0  0  0  0  0  0  0  0  0  0
    0.8595   -4.0648   -0.7308 H   0  0  0  0  0  0  0  0  0  0  0  0
    1.6782   -2.8575   -3.4200 H   0  0  0  0  0  0  0  0  0  0  0  0
    2.2449   -5.6599   -0.9544 H   0  0  0  0  0  0  0  0  0  0  0  0
    3.3358   -6.9891   -2.7524 H   0  0  0  0  0  0  0  0  0  0  0  0
    4.0137   -7.3048   -1.1162 H   0  0  0  0  0  0  0  0  0  0  0  0
    4.9416   -6.2823   -2.2806 H   0  0  0  0  0  0  0  0  0  0  0  0
    4.3011   -3.6572   -0.4430 H   0  0  0  0  0  0  0  0  0  0  0  0
    6.4168   -4.8481    0.4829 H   0  0  0  0  0  0  0  0  0  0  0  0
    5.6109   -3.6060    2.5178 H   0  0  0  0  0  0  0  0  0  0  0  0
    5.4963   -5.1814    3.4085 H   0  0  0  0  0  0  0  0  0  0  0  0
    7.1031   -4.5711    2.8318 H   0  0  0  0  0  0  0  0  0  0  0  0
    5.7244   -7.4080    1.9921 H   0  0  0  0  0  0  0  0  0  0  0  0
    8.5190   -5.5241    0.5814 H   0  0  0  0  0  0  0  0  0  0  0  0
    9.8428   -7.4315    1.6446 H   0  0  0  0  0  0  0  0  0  0  0  0
   10.0298   -8.1521   -0.0063 H   0  0  0  0  0  0  0  0  0  0  0  0
   10.7317   -6.5443    0.3914 H   0  0  0  0  0  0  0  0  0  0  0  0
    7.7345   -7.0301   -1.8217 H   0  0  0  0  0  0  0  0  0  0  0  0
   10.2809   -4.6048   -0.5773 H   0  0  0  0  0  0  0  0  0  0  0  0
   11.7099   -5.3119   -3.2170 H   0  0  0  0  0  0  0  0  0  0  0  0
   12.4838   -4.7676   -1.6845 H   0  0  0  0  0  0  0  0  0  0  0  0
   11.6740   -6.3766   -1.7614 H   0  0  0  0  0  0  0  0  0  0  0  0
   10.0526   -3.1993   -3.2394 H   0  0  0  0  0  0  0  0  0  0  0  0
    9.9638   -2.5215    0.2860 H   0  0  0  0  0  0  0  0  0  0  0  0
   13.0095   -2.0780    0.2201 H   0  0  0  0  0  0  0  0  0  0  0  0
   12.0076   -2.3000    1.7114 H   0  0  0  0  0  0  0  0  0  0  0  0
   12.1450   -3.6205    0.5035 H   0  0  0  0  0  0  0  0  0  0  0  0
    9.6498   -0.2378    0.3677 H   0  0  0  0  0  0  0  0  0  0  0  0
   12.7457    0.0357    1.5933 H   0  0  0  0  0  0  0  0  0  0  0  0
   14.8584    1.1237    0.7959 H   0  0  0  0  0  0  0  0  0  0  0  0
   14.3013   -0.1981   -0.2777 H   0  0  0  0  0  0  0  0  0  0  0  0
   14.0629    1.4936   -0.7790 H   0  0  0  0  0  0  0  0  0  0  0  0
   12.0092    2.0628    2.4142 H   0  0  0  0  0  0  0  0  0  0  0  0
   10.2682    3.4889    0.9643 H   0  0  0  0  0  0  0  0  0  0  0  0
   12.0434    5.7557    2.0627 H   0  0  0  0  0  0  0  0  0  0  0  0
   11.2622    4.4322    3.0221 H   0  0  0  0  0  0  0  0  0  0  0  0
   10.2395    5.6603    2.1974 H   0  0  0  0  0  0  0  0  0  0  0  0
   11.7705    5.5674   -0.6359 H   0  0  0  0  0  0  0  0  0  0  0  0
    7.7433    5.3990   -1.5231 H   0  0  0  0  0  0  0  0  0  0  0  0
    9.1802    3.6052   -2.4829 H   0  0  0  0  0  0  0  0  0  0  0  0
    7.6270    3.0110   -1.7839 H   0  0  0  0  0  0  0  0  0  0  0  0
    9.1618    2.7613   -0.8808 H   0  0  0  0  0  0  0  0  0  0  0  0
    8.2070    4.0329    1.1615 H   0  0  0  0  0  0  0  0  0  0  0  0
   -2.1853   -5.4596   -2.2169 H   0  0  0  0  0  0  0  0  0  0  0  0
   -1.1752   -4.1805    0.3430 H   0  0  0  0  0  0  0  0  0  0  0  0
    0.1414   -6.3029   -0.1628 H   0  0  0  0  0  0  0  0  0  0  0  0
   -0.8342   -6.4115    1.3339 H   0  0  0  0  0  0  0  0  0  0  0  0
   -1.4059   -7.2182   -0.1912 H   0  0  0  0  0  0  0  0  0  0  0  0
   -3.0257   -6.0423    2.1381 H   0  0  0  0  0  0  0  0  0  0  0  0
   -5.4928   -6.5185    1.8602 H   0  0  0  0  0  0  0  0  0  0  0  0
   -3.5795   -8.6971    0.8192 H   0  0  0  0  0  0  0  0  0  0  0  0
   -3.9219   -8.3156    2.5422 H   0  0  0  0  0  0  0  0  0  0  0  0
   -5.2124   -8.9876    1.4934 H   0  0  0  0  0  0  0  0  0  0  0  0
   -6.8681   -6.1988   -1.5637 H   0  0  0  0  0  0  0  0  0  0  0  0
   -7.5093   -5.7712    1.2494 H   0  0  0  0  0  0  0  0  0  0  0  0
   -9.0514   -7.8197    1.5064 H   0  0  0  0  0  0  0  0  0  0  0  0
   -8.2030   -8.5315    0.0780 H   0  0  0  0  0  0  0  0  0  0  0  0
   -7.2988   -8.1593    1.6006 H   0  0  0  0  0  0  0  0  0  0  0  0
  -10.8693   -4.8097   -0.0126 H   0  0  0  0  0  0  0  0  0  0  0  0
   -8.4106   -3.7890    1.4329 H   0  0  0  0  0  0  0  0  0  0  0  0
   -9.5037   -4.1496    3.6526 H   0  0  0  0  0  0  0  0  0  0  0  0
  -10.9278   -4.9274    2.8482 H   0  0  0  0  0  0  0  0  0  0  0  0
   -9.3113   -5.7272    2.8170 H   0  0  0  0  0  0  0  0  0  0  0  0
  -12.1757   -2.2891    0.7861 H   0  0  0  0  0  0  0  0  0  0  0  0
  -10.6634   -2.8953   -1.4845 H   0  0  0  0  0  0  0  0  0  0  0  0
   -8.7096   -1.6689   -0.5356 H   0  0  0  0  0  0  0  0  0  0  0  0
   -9.2935   -0.9775   -2.0818 H   0  0  0  0  0  0  0  0  0  0  0  0
   -9.6537   -0.1388   -0.5239 H   0  0  0  0  0  0  0  0  0  0  0  0
  -13.2491    0.4987   -1.6827 H   0  0  0  0  0  0  0  0  0  0  0  0
  -11.4718    0.1192    0.7640 H   0  0  0  0  0  0  0  0  0  0  0  0
  -13.4258    0.9225    2.0945 H   0  0  0  0  0  0  0  0  0  0  0  0
  -13.7121   -0.6779    1.3215 H   0  0  0  0  0  0  0  0  0  0  0  0
  -14.4693    0.7939    0.6183 H   0  0  0  0  0  0  0  0  0  0  0  0
  -13.8982    2.8176   -0.4550 H   0  0  0  0  0  0  0  0  0  0  0  0
  -11.9334    4.4569    1.1921 H   0  0  0  0  0  0  0  0  0  0  0  0
  -14.9858    4.5001    0.9665 H   0  0  0  0  0  0  0  0  0  0  0  0
  -13.9500    4.1510    2.4060 H   0  0  0  0  0  0  0  0  0  0  0  0
  -14.0411    5.8207    1.7349 H   0  0  0  0  0  0  0  0  0  0  0  0
  -12.1679    7.3698   -1.1852 H   0  0  0  0  0  0  0  0  0  0  0  0
  -10.3838    5.8089    0.7219 H   0  0  0  0  0  0  0  0  0  0  0  0
  -12.0770    7.0831    2.0887 H   0  0  0  0  0  0  0  0  0  0  0  0
  -10.4257    7.7106    2.3212 H   0  0  0  0  0  0  0  0  0  0  0  0
  -11.5866    8.6066    1.2599 H   0  0  0  0  0  0  0  0  0  0  0  0
   -8.3127    7.7963    1.3331 H   0  0  0  0  0  0  0  0  0  0  0  0
   -6.9722    7.4674   -1.2648 H   0  0  0  0  0  0  0  0  0  0  0  0
   -6.4804    5.0090   -1.0880 H   0  0  0  0  0  0  0  0  0  0  0  0
   -8.2307    5.3097   -1.2600 H   0  0  0  0  0  0  0  0  0  0  0  0
   -7.5565    4.8982    0.3624 H   0  0  0  0  0  0  0  0  0  0  0  0
   -4.3867    8.5779    0.7148 H   0  0  0  0  0  0  0  0  0  0  0  0
   -2.8989    7.7980   -0.8484 H   0  0  0  0  0  0  0  0  0  0  0  0
   -4.6333    9.3735   -2.2618 H   0  0  0  0  0  0  0  0  0  0  0  0
   -5.1044    8.5448   -3.7921 H   0  0  0  0  0  0  0  0  0  0  0  0
   -4.2986    5.0745   -0.4604 H   0  0  0  0  0  0  0  0  0  0  0  0
   -3.1660    5.8262    0.7190 H   0  0  0  0  0  0  0  0  0  0  0  0
   -2.5714    2.7768   -1.0309 H   0  0  0  0  0  0  0  0  0  0  0  0
   -2.5218    3.5598    0.5872 H   0  0  0  0  0  0  0  0  0  0  0  0
  1  2  1  0
  2  3  2  0
  2  4  1  0
  4  5  1  0
  5  6  1  0
  6  7  1  0
  7  8  1  0
  8  9  1  0
  9 10  2  0
 10 11  1  0
 11 12  2  0
 12 13  1  0
 13 14  2  0
 13 15  1  0
 15 16  1  0
 16 17  1  0
 17 18  1  0
 18 19  1  0
 19 20  1  0
 20 21  2  0
 20 22  1  0
 22 23  1  0
 22 24  1  0
 24 25  1  0
 25 26  2  0
 25 27  1  0
 27 28  1  0
 27 29  1  0
 29 30  1  0
 30 31  2  0
 30 32  1  0
 32 33  1  0
 32 34  1  0
 34 35  1  0
 35 36  2  0
 35 37  1  0
 37 38  1  0
 37 39  1  0
 39 40  1  0
 40 41  2  0
 40 42  1  0
 42 43  1  0
 42 44  1  0
 44 45  1  0
 45 46  2  0
 45 47  1  0
 47 48  1  0
 47 49  1  0
 49 50  1  0
 50 51  2  0
 50 52  1  0
 52 53  1  0
 52 54  1  0
 54 55  1  0
 55 56  2  0
 55 57  1  0
 57 58  1  0
 57 59  1  0
 59 60  1  0
 60 61  2  0
 18 62  1  0
 62 63  2  0
 62 64  1  0
 64 65  1  0
 65 66  1  0
 65 67  1  0
 67 68  2  0
 67 69  1  0
 69 70  1  0
 70 71  1  0
 70 72  1  0
 72 73  2  0
 72 74  1  0
 74 75  1  0
 75 76  1  0
 75 77  1  0
 77 78  2  0
 77 79  1  0
 79 80  1  0
 80 81  1  0
 80 82  1  0
 82 83  2  0
 82 84  1  0
 84 85  1  0
 85 86  1  0
 85 87  1  0
 87 88  2  0
 87 89  1  0
 89 90  1  0
 90 91  1  0
 90 92  1  0
 92 93  2  0
 92 94  1  0
 94 95  1  0
 95 96  1  0
 95 97  1  0
 97 98  2  0
 97 99  1  0
 99100  1  0
100101  1  0
100102  1  0
102103  2  0
102104  1  0
104105  1  0
105106  1  0
105107  1  0
107108  2  0
107109  1  0
109110  1  0
110111  1  0
111112  1  0
111113  2  0
110114  1  0
114115  1  0
115116  1  0
 60  5  1  0
 14  9  1  0
116 11  1  0
  1117  1  0
  1118  1  0
  1119  1  0
  4120  1  0
  5121  1  1
  6122  1  0
  6123  1  0
  8124  1  0
  8125  1  0
 10126  1  0
 12127  1  0
 14128  1  0
 15129  1  0
 15130  1  0
 17131  1  0
 17132  1  0
 18133  1  1
 19134  1  0
 22135  1  1
 23136  1  0
 23137  1  0
 23138  1  0
 24139  1  0
 27140  1  6
 28141  1  0
 28142  1  0
 28143  1  0
 29144  1  0
 32145  1  1
 33146  1  0
 33147  1  0
 33148  1  0
 34149  1  0
 37150  1  1
 38151  1  0
 38152  1  0
 38153  1  0
 39154  1  0
 42155  1  1
 43156  1  0
 43157  1  0
 43158  1  0
 44159  1  0
 47160  1  1
 48161  1  0
 48162  1  0
 48163  1  0
 49164  1  0
 52165  1  1
 53166  1  0
 53167  1  0
 53168  1  0
 54169  1  0
 57170  1  6
 58171  1  0
 58172  1  0
 58173  1  0
 59174  1  0
 64175  1  0
 65176  1  1
 66177  1  0
 66178  1  0
 66179  1  0
 69180  1  0
 70181  1  1
 71182  1  0
 71183  1  0
 71184  1  0
 74185  1  0
 75186  1  1
 76187  1  0
 76188  1  0
 76189  1  0
 79190  1  0
 80191  1  6
 81192  1  0
 81193  1  0
 81194  1  0
 84195  1  0
 85196  1  6
 86197  1  0
 86198  1  0
 86199  1  0
 89200  1  0
 90201  1  1
 91202  1  0
 91203  1  0
 91204  1  0
 94205  1  0
 95206  1  1
 96207  1  0
 96208  1  0
 96209  1  0
 99210  1  0
100211  1  1
101212  1  0
101213  1  0
101214  1  0
104215  1  0
105216  1  6
106217  1  0
106218  1  0
106219  1  0
109220  1  0
110221  1  6
112222  1  0
112223  1  0
114224  1  0
114225  1  0
116226  1  0
116227  1  0
M  END
