
     RDKit          3D

217219  0  0  0  0  0  0  0  0999 V2000
   -4.3856   -9.5746   -0.5389 C   0  0  0  0  0  0  0  0  0  0  0  0
   -4.5463   -8.9452    0.8183 C   0  0  0  0  0  0  0  0  0  0  0  0
   -4.9031   -9.6668    1.7821 O   0  0  0  0  0  0  0  0  0  0  0  0
   -4.3355   -7.5397    1.0274 N   0  0  0  0  0  0  0  0  0  0  0  0
   -4.2675   -6.5739   -0.0740 C   0  0  2  0  0  0  0  0  0  0  0  0
   -3.5949   -5.2651    0.4013 C   0  0  0  0  0  0  0  0  0  0  0  0
   -3.0176   -4.2879   -1.0386 S   0  0  0  0  0  0  0  0  0  0  0  0
   -2.0754   -3.0474   -0.0749 C   0  0  0  0  0  0  0  0  0  0  0  0
   -0.7391   -2.7864   -0.7194 C   0  0  0  0  0  0  0  0  0  0  0  0
    0.2462   -3.7855   -0.7227 C   0  0  0  0  0  0  0  0  0  0  0  0
    1.5402   -3.5252   -1.2265 C   0  0  0  0  0  0  0  0  0  0  0  0
    1.8257   -2.2442   -1.7250 C   0  0  0  0  0  0  0  0  0  0  0  0
    0.8371   -1.2469   -1.7514 C   0  0  0  0  0  0  0  0  0  0  0  0
   -0.4487   -1.5358   -1.2676 C   0  0  0  0  0  0  0  0  0  0  0  0
    1.1752    0.1272   -2.2640 C   0  0  0  0  0  0  0  0  0  0  0  0
    2.0118    1.1313   -0.9821 S   0  0  0  0  0  0  0  0  0  0  0  0
    0.5059    1.6155   -0.0453 C   0  0  0  0  0  0  0  0  0  0  0  0
    0.3419    3.1369   -0.0035 C   0  0  2  0  0  0  0  0  0  0  0  0
   -0.8220    3.4974    0.8045 N   0  0  0  0  0  0  0  0  0  0  0  0
   -0.9769    4.8197    1.3219 C   0  0  0  0  0  0  0  0  0  0  0  0
   -0.1300    5.2497    2.1545 O   0  0  0  0  0  0  0  0  0  0  0  0
   -2.0898    5.7401    0.8681 C   0  0  1  0  0  0  0  0  0  0  0  0
   -1.4772    6.9586    0.1663 C   0  0  0  0  0  0  0  0  0  0  0  0
   -3.0375    5.0804   -0.0421 N   0  0  0  0  0  0  0  0  0  0  0  0
   -4.1567    5.7820   -0.6022 C   0  0  0  0  0  0  0  0  0  0  0  0
   -4.1518    6.0504   -1.8333 O   0  0  0  0  0  0  0  0  0  0  0  0
   -5.3292    6.1998    0.2475 C   0  0  1  0  0  0  0  0  0  0  0  0
   -5.1257    7.6005    0.8382 C   0  0  0  0  0  0  0  0  0  0  0  0
   -6.5475    6.2007   -0.5660 N   0  0  0  0  0  0  0  0  0  0  0  0
   -7.2264    4.9852   -0.9102 C   0  0  0  0  0  0  0  0  0  0  0  0
   -7.3365    4.6813   -2.1303 O   0  0  0  0  0  0  0  0  0  0  0  0
   -7.7778    4.0666    0.1568 C   0  0  1  0  0  0  0  0  0  0  0  0
   -8.5093    4.8433    1.2609 C   0  0  0  0  0  0  0  0  0  0  0  0
   -8.6310    3.0175   -0.4158 N   0  0  0  0  0  0  0  0  0  0  0  0
   -9.7172    3.2334   -1.3363 C   0  0  0  0  0  0  0  0  0  0  0  0
   -9.7558    2.5368   -2.3946 O   0  0  0  0  0  0  0  0  0  0  0  0
  -10.8324    4.2090   -1.0685 C   0  0  1  0  0  0  0  0  0  0  0  0
  -10.6247    5.4984   -1.8638 C   0  0  0  0  0  0  0  0  0  0  0  0
  -12.1173    3.5855   -1.4332 N   0  0  0  0  0  0  0  0  0  0  0  0
  -12.7035    2.4774   -0.7263 C   0  0  0  0  0  0  0  0  0  0  0  0
  -13.6770    1.8708   -1.2468 O   0  0  0  0  0  0  0  0  0  0  0  0
  -12.2336    2.0618    0.6491 C   0  0  1  0  0  0  0  0  0  0  0  0
  -13.1295    2.6847    1.7205 C   0  0  0  0  0  0  0  0  0  0  0  0
  -12.2292    0.6027    0.7750 N   0  0  0  0  0  0  0  0  0  0  0  0
  -11.0785   -0.1503    0.3892 C   0  0  0  0  0  0  0  0  0  0  0  0
  -10.6298   -0.0264   -0.7790 O   0  0  0  0  0  0  0  0  0  0  0  0
  -10.3068   -0.9644    1.4043 C   0  0  1  0  0  0  0  0  0  0  0  0
  -11.0943   -1.1868    2.7023 C   0  0  0  0  0  0  0  0  0  0  0  0
   -9.8281   -2.2163    0.7875 N   0  0  0  0  0  0  0  0  0  0  0  0
  -10.4568   -3.4968    0.9449 C   0  0  0  0  0  0  0  0  0  0  0  0
  -10.6946   -3.9507    2.0976 O   0  0  0  0  0  0  0  0  0  0  0  0
  -10.8372   -4.3309   -0.2533 C   0  0  1  0  0  0  0  0  0  0  0  0
  -12.1678   -3.8319   -0.8183 C   0  0  0  0  0  0  0  0  0  0  0  0
   -9.7851   -4.2661   -1.2836 N   0  0  0  0  0  0  0  0  0  0  0  0
   -8.4513   -4.7727   -1.1073 C   0  0  0  0  0  0  0  0  0  0  0  0
   -7.5365   -4.3370   -1.8598 O   0  0  0  0  0  0  0  0  0  0  0  0
   -8.1383   -5.8471   -0.0810 C   0  0  1  0  0  0  0  0  0  0  0  0
   -8.6377   -7.2208   -0.5409 C   0  0  0  0  0  0  0  0  0  0  0  0
   -6.7093   -5.8875    0.2622 N   0  0  0  0  0  0  0  0  0  0  0  0
   -5.6482   -6.3323   -0.6105 C   0  0  0  0  0  0  0  0  0  0  0  0
   -5.8815   -6.5425   -1.8354 O   0  0  0  0  0  0  0  0  0  0  0  0
    0.1474    3.6938   -1.4025 C   0  0  0  0  0  0  0  0  0  0  0  0
   -0.7961    3.2305   -2.1056 O   0  0  0  0  0  0  0  0  0  0  0  0
    0.9301    4.7710   -1.9416 N   0  0  0  0  0  0  0  0  0  0  0  0
    2.0647    5.4313   -1.2927 C   0  0  2  0  0  0  0  0  0  0  0  0
    2.1281    6.8948   -1.7485 C   0  0  0  0  0  0  0  0  0  0  0  0
    3.3391    4.7133   -1.6626 C   0  0  0  0  0  0  0  0  0  0  0  0
    3.5235    4.3751   -2.8580 O   0  0  0  0  0  0  0  0  0  0  0  0
    4.2993    4.3162   -0.6721 N   0  0  0  0  0  0  0  0  0  0  0  0
    5.2042    5.2319    0.0471 C   0  0  2  0  0  0  0  0  0  0  0  0
    4.4670    6.0039    1.1447 C   0  0  0  0  0  0  0  0  0  0  0  0
    5.9553    6.1716   -0.8794 C   0  0  0  0  0  0  0  0  0  0  0  0
    5.4691    6.4661   -2.0021 O   0  0  0  0  0  0  0  0  0  0  0  0
    7.1789    6.8098   -0.4862 N   0  0  0  0  0  0  0  0  0  0  0  0
    8.1343    6.2505    0.4843 C   0  0  2  0  0  0  0  0  0  0  0  0
    9.1144    7.3353    0.9415 C   0  0  0  0  0  0  0  0  0  0  0  0
    8.8898    5.1074   -0.1323 C   0  0  0  0  0  0  0  0  0  0  0  0
    9.5291    5.2944   -1.2055 O   0  0  0  0  0  0  0  0  0  0  0  0
    8.9163    3.8334    0.5161 N   0  0  0  0  0  0  0  0  0  0  0  0
   10.0855    2.9557    0.5974 C   0  0  2  0  0  0  0  0  0  0  0  0
   11.3560    3.7519    0.9358 C   0  0  0  0  0  0  0  0  0  0  0  0
   10.2492    2.1491   -0.6744 C   0  0  0  0  0  0  0  0  0  0  0  0
   10.3882    2.7475   -1.7721 O   0  0  0  0  0  0  0  0  0  0  0  0
   10.1666    0.7158   -0.6723 N   0  0  0  0  0  0  0  0  0  0  0  0
   11.1072   -0.2084   -0.0101 C   0  0  2  0  0  0  0  0  0  0  0  0
   10.9494   -0.2040    1.5069 C   0  0  0  0  0  0  0  0  0  0  0  0
   12.5454    0.0570   -0.4046 C   0  0  0  0  0  0  0  0  0  0  0  0
   12.9665    1.2454   -0.4461 O   0  0  0  0  0  0  0  0  0  0  0  0
   13.4803   -1.0041   -0.6639 N   0  0  0  0  0  0  0  0  0  0  0  0
   13.2011   -2.4362   -0.5010 C   0  0  2  0  0  0  0  0  0  0  0  0
   14.5078   -3.2095   -0.3140 C   0  0  0  0  0  0  0  0  0  0  0  0
   12.4784   -2.9749   -1.7146 C   0  0  0  0  0  0  0  0  0  0  0  0
   12.7806   -2.5194   -2.8539 O   0  0  0  0  0  0  0  0  0  0  0  0
   11.5585   -4.0766   -1.6391 N   0  0  0  0  0  0  0  0  0  0  0  0
   10.6697   -4.3478   -0.5077 C   0  0  2  0  0  0  0  0  0  0  0  0
   11.2693   -5.4580    0.3626 C   0  0  0  0  0  0  0  0  0  0  0  0
    9.2934   -4.7412   -1.0016 C   0  0  0  0  0  0  0  0  0  0  0  0
    8.9693   -4.5529   -2.2061 O   0  0  0  0  0  0  0  0  0  0  0  0
    8.3627   -5.3894   -0.1292 N   0  0  0  0  0  0  0  0  0  0  0  0
    7.2866   -4.6854    0.5820 C   0  0  2  0  0  0  0  0  0  0  0  0
    7.6886   -3.2577    0.9814 C   0  0  0  0  0  0  0  0  0  0  0  0
    6.9366   -5.4801    1.8129 C   0  0  0  0  0  0  0  0  0  0  0  0
    7.8293   -5.6803    2.6815 O   0  0  0  0  0  0  0  0  0  0  0  0
    5.6501   -6.0881    2.0058 N   0  0  0  0  0  0  0  0  0  0  0  0
    4.3935   -5.5914    1.4448 C   0  0  2  0  0  0  0  0  0  0  0  0
    3.3331   -5.5949    2.5206 C   0  0  0  0  0  0  0  0  0  0  0  0
    2.9010   -6.8192    3.1220 N   0  0  0  0  0  0  0  0  0  0  0  0
    2.8262   -4.5059    2.9015 O   0  0  0  0  0  0  0  0  0  0  0  0
    3.9862   -6.4473    0.2277 C   0  0  0  0  0  0  0  0  0  0  0  0
    2.2789   -6.1052   -0.3500 S   0  0  0  0  0  0  0  0  0  0  0  0
    2.6284   -4.5745   -1.3007 C   0  0  0  0  0  0  0  0  0  0  0  0
   -5.1581   -9.1789   -1.2247 H   0  0  0  0  0  0  0  0  0  0  0  0
   -3.3794   -9.3537   -0.9446 H   0  0  0  0  0  0  0  0  0  0  0  0
   -4.5059  -10.6724   -0.4670 H   0  0  0  0  0  0  0  0  0  0  0  0
   -4.3632   -7.1862    2.0104 H   0  0  0  0  0  0  0  0  0  0  0  0
   -3.6233   -6.9920   -0.8747 H   0  0  0  0  0  0  0  0  0  0  0  0
   -4.2930   -4.6581    1.0143 H   0  0  0  0  0  0  0  0  0  0  0  0
   -2.7134   -5.5260    1.0226 H   0  0  0  0  0  0  0  0  0  0  0  0
   -2.6833   -2.1144   -0.0337 H   0  0  0  0  0  0  0  0  0  0  0  0
   -1.9006   -3.3607    0.9700 H   0  0  0  0  0  0  0  0  0  0  0  0
   -0.0090   -4.7542   -0.3212 H   0  0  0  0  0  0  0  0  0  0  0  0
    2.8162   -2.0193   -2.1006 H   0  0  0  0  0  0  0  0  0  0  0  0
   -1.2193   -0.7736   -1.3036 H   0  0  0  0  0  0  0  0  0  0  0  0
    0.2749    0.6495   -2.6495 H   0  0  0  0  0  0  0  0  0  0  0  0
    1.8764    0.0294   -3.1187 H   0  0  0  0  0  0  0  0  0  0  0  0
    0.6221    1.2257    0.9921 H   0  0  0  0  0  0  0  0  0  0  0  0
   -0.4135    1.1546   -0.4620 H   0  0  0  0  0  0  0  0  0  0  0  0
    1.2505    3.5397    0.4800 H   0  0  0  0  0  0  0  0  0  0  0  0
   -1.5501    2.7813    1.0532 H   0  0  0  0  0  0  0  0  0  0  0  0
   -2.6344    6.0682    1.7745 H   0  0  0  0  0  0  0  0  0  0  0  0
   -0.9920    6.6410   -0.7818 H   0  0  0  0  0  0  0  0  0  0  0  0
   -0.7113    7.4425    0.8099 H   0  0  0  0  0  0  0  0  0  0  0  0
   -2.2643    7.7118   -0.0576 H   0  0  0  0  0  0  0  0  0  0  0  0
   -2.7503    4.2190   -0.5551 H   0  0  0  0  0  0  0  0  0  0  0  0
   -5.4338    5.4809    1.0874 H   0  0  0  0  0  0  0  0  0  0  0  0
   -6.0178    7.8728    1.4401 H   0  0  0  0  0  0  0  0  0  0  0  0
   -4.9974    8.3550    0.0357 H   0  0  0  0  0  0  0  0  0  0  0  0
   -4.2388    7.6381    1.4976 H   0  0  0  0  0  0  0  0  0  0  0  0
   -6.6948    7.0065   -1.2090 H   0  0  0  0  0  0  0  0  0  0  0  0
   -6.9095    3.5673    0.6381 H   0  0  0  0  0  0  0  0  0  0  0  0
   -7.7789    5.3101    1.9492 H   0  0  0  0  0  0  0  0  0  0  0  0
   -9.1416    5.6536    0.8411 H   0  0  0  0  0  0  0  0  0  0  0  0
   -9.1502    4.1527    1.8541 H   0  0  0  0  0  0  0  0  0  0  0  0
   -8.2690    2.0353   -0.3562 H   0  0  0  0  0  0  0  0  0  0  0  0
  -10.8768    4.4780    0.0058 H   0  0  0  0  0  0  0  0  0  0  0  0
   -9.7035    6.0175   -1.5358 H   0  0  0  0  0  0  0  0  0  0  0  0
  -10.5466    5.2807   -2.9493 H   0  0  0  0  0  0  0  0  0  0  0  0
  -11.4781    6.1869   -1.6960 H   0  0  0  0  0  0  0  0  0  0  0  0
  -12.5660    3.8680   -2.3326 H   0  0  0  0  0  0  0  0  0  0  0  0
  -11.2014    2.4164    0.8456 H   0  0  0  0  0  0  0  0  0  0  0  0
  -14.1925    2.3918    1.5732 H   0  0  0  0  0  0  0  0  0  0  0  0
  -12.8026    2.3429    2.7296 H   0  0  0  0  0  0  0  0  0  0  0  0
  -13.0466    3.7921    1.6823 H   0  0  0  0  0  0  0  0  0  0  0  0
  -13.1061    0.0942    1.0471 H   0  0  0  0  0  0  0  0  0  0  0  0
   -9.4102   -0.3644    1.6740 H   0  0  0  0  0  0  0  0  0  0  0  0
  -10.4779   -1.7627    3.4240 H   0  0  0  0  0  0  0  0  0  0  0  0
  -11.3387   -0.2138    3.1745 H   0  0  0  0  0  0  0  0  0  0  0  0
  -12.0407   -1.7318    2.5004 H   0  0  0  0  0  0  0  0  0  0  0  0
   -9.1776   -2.1062   -0.0214 H   0  0  0  0  0  0  0  0  0  0  0  0
  -10.9804   -5.3840    0.0550 H   0  0  0  0  0  0  0  0  0  0  0  0
  -12.4481   -4.4430   -1.7017 H   0  0  0  0  0  0  0  0  0  0  0  0
  -12.9645   -3.9319   -0.0606 H   0  0  0  0  0  0  0  0  0  0  0  0
  -12.0853   -2.7691   -1.1259 H   0  0  0  0  0  0  0  0  0  0  0  0
   -9.9771   -3.7355   -2.1643 H   0  0  0  0  0  0  0  0  0  0  0  0
   -8.6870   -5.5993    0.8503 H   0  0  0  0  0  0  0  0  0  0  0  0
   -8.3379   -7.9951    0.1952 H   0  0  0  0  0  0  0  0  0  0  0  0
   -8.2280   -7.4867   -1.5372 H   0  0  0  0  0  0  0  0  0  0  0  0
   -9.7444   -7.2265   -0.6130 H   0  0  0  0  0  0  0  0  0  0  0  0
   -6.4570   -5.6660    1.2495 H   0  0  0  0  0  0  0  0  0  0  0  0
    0.7171    5.0468   -2.9320 H   0  0  0  0  0  0  0  0  0  0  0  0
    1.9383    5.4537   -0.1934 H   0  0  0  0  0  0  0  0  0  0  0  0
    3.0308    7.4092   -1.3404 H   0  0  0  0  0  0  0  0  0  0  0  0
    1.2222    7.4246   -1.3881 H   0  0  0  0  0  0  0  0  0  0  0  0
    2.1320    6.9653   -2.8660 H   0  0  0  0  0  0  0  0  0  0  0  0
    4.5217    3.2994   -0.6346 H   0  0  0  0  0  0  0  0  0  0  0  0
    5.9464    4.5920    0.5559 H   0  0  0  0  0  0  0  0  0  0  0  0
    3.9234    5.3037    1.8102 H   0  0  0  0  0  0  0  0  0  0  0  0
    3.7428    6.7255    0.7170 H   0  0  0  0  0  0  0  0  0  0  0  0
    5.1915    6.5770    1.7564 H   0  0  0  0  0  0  0  0  0  0  0  0
    7.4943    7.6215   -1.0699 H   0  0  0  0  0  0  0  0  0  0  0  0
    7.5914    5.9122    1.3919 H   0  0  0  0  0  0  0  0  0  0  0  0
    9.6913    7.7316    0.0775 H   0  0  0  0  0  0  0  0  0  0  0  0
    8.5605    8.1718    1.4203 H   0  0  0  0  0  0  0  0  0  0  0  0
    9.8247    6.9121    1.6839 H   0  0  0  0  0  0  0  0  0  0  0  0
    8.0529    3.5272    1.0315 H   0  0  0  0  0  0  0  0  0  0  0  0
    9.9044    2.2618    1.4381 H   0  0  0  0  0  0  0  0  0  0  0  0
   12.1535    3.0647    1.2842 H   0  0  0  0  0  0  0  0  0  0  0  0
   11.1424    4.4758    1.7536 H   0  0  0  0  0  0  0  0  0  0  0  0
   11.7264    4.3153    0.0505 H   0  0  0  0  0  0  0  0  0  0  0  0
    9.5389    0.3010   -1.3932 H   0  0  0  0  0  0  0  0  0  0  0  0
   10.8330   -1.2241   -0.3519 H   0  0  0  0  0  0  0  0  0  0  0  0
   11.4367   -1.1001    1.9445 H   0  0  0  0  0  0  0  0  0  0  0  0
    9.8736   -0.2258    1.7871 H   0  0  0  0  0  0  0  0  0  0  0  0
   11.4314    0.6924    1.9567 H   0  0  0  0  0  0  0  0  0  0  0  0
   14.4522   -0.7177   -0.9335 H   0  0  0  0  0  0  0  0  0  0  0  0
   12.6052   -2.5878    0.4216 H   0  0  0  0  0  0  0  0  0  0  0  0
   15.1502   -3.1233   -1.2186 H   0  0  0  0  0  0  0  0  0  0  0  0
   14.3099   -4.2830   -0.1210 H   0  0  0  0  0  0  0  0  0  0  0  0
   15.0681   -2.7994    0.5566 H   0  0  0  0  0  0  0  0  0  0  0  0
   11.5365   -4.7306   -2.4546 H   0  0  0  0  0  0  0  0  0  0  0  0
   10.5471   -3.4441    0.1200 H   0  0  0  0  0  0  0  0  0  0  0  0
   12.2752   -5.1610    0.7180 H   0  0  0  0  0  0  0  0  0  0  0  0
   11.3569   -6.4027   -0.2168 H   0  0  0  0  0  0  0  0  0  0  0  0
   10.6371   -5.6336    1.2570 H   0  0  0  0  0  0  0  0  0  0  0  0
    8.2034   -6.3993   -0.3238 H   0  0  0  0  0  0  0  0  0  0  0  0
    6.4206   -4.6172   -0.1085 H   0  0  0  0  0  0  0  0  0  0  0  0
    8.5975   -3.2686    1.6206 H   0  0  0  0  0  0  0  0  0  0  0  0
    6.8606   -2.7692    1.5369 H   0  0  0  0  0  0  0  0  0  0  0  0
    7.8916   -2.6443    0.0757 H   0  0  0  0  0  0  0  0  0  0  0  0
    5.6187   -6.9350    2.6198 H   0  0  0  0  0  0  0  0  0  0  0  0
    4.5246   -4.5400    1.1164 H   0  0  0  0  0  0  0  0  0  0  0  0
    2.2121   -6.7974    3.9090 H   0  0  0  0  0  0  0  0  0  0  0  0
    3.2913   -7.7410    2.8239 H   0  0  0  0  0  0  0  0  0  0  0  0
    4.0412   -7.5215    0.4996 H   0  0  0  0  0  0  0  0  0  0  0  0
    4.6995   -6.2879   -0.6048 H   0  0  0  0  0  0  0  0  0  0  0  0
    3.5850   -4.1208   -0.9621 H   0  0  0  0  0  0  0  0  0  0  0  0
    2.7643   -4.8670   -2.3622 H   0  0  0  0  0  0  0  0  0  0  0  0
  1  2  1  0
  2  3  2  0
  2  4  1  0
  4  5  1  0
  5  6  1  0
  6  7  1  0
  7  8  1  0
  8  9  1  0
  9 10  2  0
 10 11  1  0
 11 12  2  0
 12 13  1  0
 13 14  2  0
 13 15  1  0
 15 16  1  0
 16 17  1  0
 17 18  1  0
 18 19  1  0
 19 20  1  0
 20 21  2  0
 20 22  1  0
 22 23  1  0
 22 24  1  0
 24 25  1  0
 25 26  2  0
 25 27  1  0
 27 28  1  0
 27 29  1  0
 29 30  1  0
 30 31  2  0
 30 32  1  0
 32 33  1  0
 32 34  1  0
 34 35  1  0
 35 36  2  0
 35 37  1  0
 37 38  1  0
 37 39  1  0
 39 40  1  0
 40 41  2  0
 40 42  1  0
 42 43  1  0
 42 44  1  0
 44 45  1  0
 45 46  2  0
 45 47  1  0
 47 48  1  0
 47 49  1  0
 49 50  1  0
 50 51  2  0
 50 52  1  0
 52 53  1  0
 52 54  1  0
 54 55  1  0
 55 56  2  0
 55 57  1  0
 57 58  1  0
 57 59  1  0
 59 60  1  0
 60 61  2  0
 18 62  1  0
 62 63  2  0
 62 64  1  0
 64 65  1  0
 65 66  1  0
 65 67  1  0
 67 68  2  0
 67 69  1  0
 69 70  1  0
 70 71  1  0
 70 72  1  0
 72 73  2  0
 72 74  1  0
 74 75  1  0
 75 76  1  0
 75 77  1  0
 77 78  2  0
 77 79  1  0
 79 80  1  0
 80 81  1  0
 80 82  1  0
 82 83  2  0
 82 84  1  0
 84 85  1  0
 85 86  1  0
 85 87  1  0
 87 88  2  0
 87 89  1  0
 89 90  1  0
 90 91  1  0
 90 92  1  0
 92 93  2  0
 92 94  1  0
 94 95  1  0
 95 96  1  0
 95 97  1  0
 97 98  2  0
 97 99  1  0
 99100  1  0
100101  1  0
100102  1  0
102103  2  0
102104  1  0
104105  1  0
105106  1  0
106107  1  0
106108  2  0
105109  1  0
109110  1  0
110111  1  0
 60  5  1  0
 14  9  1  0
111 11  1  0
  1112  1  0
  1113  1  0
  1114  1  0
  4115  1  0
  5116  1  6
  6117  1  0
  6118  1  0
  8119  1  0
  8120  1  0
 10121  1  0
 12122  1  0
 14123  1  0
 15124  1  0
 15125  1  0
 17126  1  0
 17127  1  0
 18128  1  1
 19129  1  0
 22130  1  1
 23131  1  0
 23132  1  0
 23133  1  0
 24134  1  0
 27135  1  1
 28136  1  0
 28137  1  0
 28138  1  0
 29139  1  0
 32140  1  1
 33141  1  0
 33142  1  0
 33143  1  0
 34144  1  0
 37145  1  1
 38146  1  0
 38147  1  0
 38148  1  0
 39149  1  0
 42150  1  1
 43151  1  0
 43152  1  0
 43153  1  0
 44154  1  0
 47155  1  1
 48156  1  0
 48157  1  0
 48158  1  0
 49159  1  0
 52160  1  1
 53161  1  0
 53162  1  0
 53163  1  0
 54164  1  0
 57165  1  1
 58166  1  0
 58167  1  0
 58168  1  0
 59169  1  0
 64170  1  0
 65171  1  1
 66172  1  0
 66173  1  0
 66174  1  0
 69175  1  0
 70176  1  1
 71177  1  0
 71178  1  0
 71179  1  0
 74180  1  0
 75181  1  1
 76182  1  0
 76183  1  0
 76184  1  0
 79185  1  0
 80186  1  1
 81187  1  0
 81188  1  0
 81189  1  0
 84190  1  0
 85191  1  6
 86192  1  0
 86193  1  0
 86194  1  0
 89195  1  0
 90196  1  1
 91197  1  0
 91198  1  0
 91199  1  0
 94200  1  0
 95201  1  1
 96202  1  0
 96203  1  0
 96204  1  0
 99205  1  0
100206  1  6
101207  1  0
101208  1  0
101209  1  0
104210  1  0
105211  1  6
107212  1  0
107213  1  0
109214  1  0
109215  1  0
111216  1  0
111217  1  0
M  END
