
     RDKit          3D

227229  0  0  0  0  0  0  0  0999 V2000
   -4.8973    7.4052   -3.6536 C   0  0  0  0  0  0  0  0  0  0  0  0
   -4.7487    7.1729   -2.1861 C   0  0  0  0  0  0  0  0  0  0  0  0
   -4.3764    8.1245   -1.4461 O   0  0  0  0  0  0  0  0  0  0  0  0
   -5.0331    5.8820   -1.6227 N   0  0  0  0  0  0  0  0  0  0  0  0
   -4.8973    5.6011   -0.1917 C   0  0  2  0  0  0  0  0  0  0  0  0
   -4.9659    4.0827    0.0749 C   0  0  0  0  0  0  0  0  0  0  0  0
   -4.6082    3.6305    1.8205 S   0  0  0  0  0  0  0  0  0  0  0  0
   -2.7929    3.9357    1.8697 C   0  0  0  0  0  0  0  0  0  0  0  0
   -2.0396    3.2813    0.7367 C   0  0  0  0  0  0  0  0  0  0  0  0
   -1.2252    4.0540   -0.1031 C   0  0  0  0  0  0  0  0  0  0  0  0
   -0.5764    3.4721   -1.1991 C   0  0  0  0  0  0  0  0  0  0  0  0
   -0.7527    2.1058   -1.4594 C   0  0  0  0  0  0  0  0  0  0  0  0
   -1.5476    1.3079   -0.6153 C   0  0  0  0  0  0  0  0  0  0  0  0
   -2.1790    1.9055    0.4868 C   0  0  0  0  0  0  0  0  0  0  0  0
   -1.9211   -0.1057   -0.9995 C   0  0  0  0  0  0  0  0  0  0  0  0
   -0.5623   -1.0375   -1.7988 S   0  0  0  0  0  0  0  0  0  0  0  0
    0.3052   -1.5606   -0.2760 C   0  0  0  0  0  0  0  0  0  0  0  0
   -0.0875   -3.0005    0.1162 C   0  0  2  0  0  0  0  0  0  0  0  0
   -1.4058   -3.0274    0.7548 N   0  0  0  0  0  0  0  0  0  0  0  0
   -2.1086   -4.2594    0.9784 C   0  0  0  0  0  0  0  0  0  0  0  0
   -2.1384   -4.7295    2.1476 O   0  0  0  0  0  0  0  0  0  0  0  0
   -2.9691   -4.9086   -0.0882 C   0  0  1  0  0  0  0  0  0  0  0  0
   -2.4461   -4.6910   -1.5101 C   0  0  0  0  0  0  0  0  0  0  0  0
   -3.0604   -6.3512    0.1707 N   0  0  0  0  0  0  0  0  0  0  0  0
   -4.2548   -7.1078    0.4452 C   0  0  0  0  0  0  0  0  0  0  0  0
   -4.1239   -8.2974    0.8454 O   0  0  0  0  0  0  0  0  0  0  0  0
   -5.6492   -6.5822    0.1733 C   0  0  1  0  0  0  0  0  0  0  0  0
   -5.9975   -6.7521   -1.3044 C   0  0  0  0  0  0  0  0  0  0  0  0
   -6.6347   -7.2974    0.9911 N   0  0  0  0  0  0  0  0  0  0  0  0
   -7.2831   -6.6642    2.0981 C   0  0  0  0  0  0  0  0  0  0  0  0
   -6.8311   -6.8524    3.2624 O   0  0  0  0  0  0  0  0  0  0  0  0
   -8.4703   -5.7626    1.8626 C   0  0  1  0  0  0  0  0  0  0  0  0
   -9.2201   -5.4547    3.1647 C   0  0  0  0  0  0  0  0  0  0  0  0
   -8.0151   -4.5123    1.2508 N   0  0  0  0  0  0  0  0  0  0  0  0
   -8.3344   -4.1051   -0.0913 C   0  0  0  0  0  0  0  0  0  0  0  0
   -7.4168   -3.6241   -0.8105 O   0  0  0  0  0  0  0  0  0  0  0  0
   -9.7378   -4.1356   -0.6540 C   0  0  1  0  0  0  0  0  0  0  0  0
   -9.9466   -5.3504   -1.5607 C   0  0  0  0  0  0  0  0  0  0  0  0
  -10.7535   -4.0964    0.4030 N   0  0  0  0  0  0  0  0  0  0  0  0
  -11.6316   -2.9729    0.5483 C   0  0  0  0  0  0  0  0  0  0  0  0
  -12.7856   -3.0345    0.0493 O   0  0  0  0  0  0  0  0  0  0  0  0
  -11.2569   -1.7680    1.3801 C   0  0  1  0  0  0  0  0  0  0  0  0
   -9.7637   -1.6864    1.6982 C   0  0  0  0  0  0  0  0  0  0  0  0
  -11.6532   -0.5462    0.6803 N   0  0  0  0  0  0  0  0  0  0  0  0
  -12.4890    0.4550    1.2786 C   0  0  0  0  0  0  0  0  0  0  0  0
  -13.1964    0.1777    2.2856 O   0  0  0  0  0  0  0  0  0  0  0  0
  -12.5634    1.8349    0.6736 C   0  0  1  0  0  0  0  0  0  0  0  0
  -13.9050    2.0070   -0.0411 C   0  0  0  0  0  0  0  0  0  0  0  0
  -12.3900    2.8661    1.7082 N   0  0  0  0  0  0  0  0  0  0  0  0
  -12.0660    4.2485    1.4663 C   0  0  0  0  0  0  0  0  0  0  0  0
  -12.0737    5.0485    2.4429 O   0  0  0  0  0  0  0  0  0  0  0  0
  -11.7222    4.7968    0.0987 C   0  0  1  0  0  0  0  0  0  0  0  0
  -12.8123    5.7649   -0.3779 C   0  0  0  0  0  0  0  0  0  0  0  0
  -10.4339    5.4978    0.1518 N   0  0  0  0  0  0  0  0  0  0  0  0
   -9.2025    4.8646   -0.2202 C   0  0  0  0  0  0  0  0  0  0  0  0
   -9.0508    3.6243   -0.0228 O   0  0  0  0  0  0  0  0  0  0  0  0
   -8.0373    5.6744   -0.7373 C   0  0  1  0  0  0  0  0  0  0  0  0
   -8.5018    6.7262   -1.7498 C   0  0  0  0  0  0  0  0  0  0  0  0
   -7.3488    6.3319    0.3826 N   0  0  0  0  0  0  0  0  0  0  0  0
   -5.9246    6.3689    0.6201 C   0  0  0  0  0  0  0  0  0  0  0  0
   -5.5015    7.0949    1.5599 O   0  0  0  0  0  0  0  0  0  0  0  0
    0.9405   -3.6151    1.0400 C   0  0  0  0  0  0  0  0  0  0  0  0
    1.3265   -2.9761    2.0535 O   0  0  0  0  0  0  0  0  0  0  0  0
    1.3157   -4.9956    0.8957 N   0  0  0  0  0  0  0  0  0  0  0  0
    2.2651   -5.5173   -0.1043 C   0  0  2  0  0  0  0  0  0  0  0  0
    2.2536   -4.7321   -1.4233 C   0  0  0  0  0  0  0  0  0  0  0  0
    1.9315   -6.9655   -0.3756 C   0  0  0  0  0  0  0  0  0  0  0  0
    0.7267   -7.2878   -0.5580 O   0  0  0  0  0  0  0  0  0  0  0  0
    2.9318   -7.9944   -0.3923 N   0  0  0  0  0  0  0  0  0  0  0  0
    4.2674   -7.8175   -0.9764 C   0  0  2  0  0  0  0  0  0  0  0  0
    4.6869   -9.1090   -1.6935 C   0  0  0  0  0  0  0  0  0  0  0  0
    5.2610   -7.4530    0.0953 C   0  0  0  0  0  0  0  0  0  0  0  0
    5.4681   -8.2430    1.0533 O   0  0  0  0  0  0  0  0  0  0  0  0
    5.9175   -6.1781    0.0774 N   0  0  0  0  0  0  0  0  0  0  0  0
    7.2093   -5.9257   -0.5816 C   0  0  2  0  0  0  0  0  0  0  0  0
    7.4091   -6.8028   -1.8261 C   0  0  0  0  0  0  0  0  0  0  0  0
    8.3478   -6.1281    0.3939 C   0  0  0  0  0  0  0  0  0  0  0  0
    8.1880   -6.9170    1.3662 O   0  0  0  0  0  0  0  0  0  0  0  0
    9.6220   -5.4740    0.2530 N   0  0  0  0  0  0  0  0  0  0  0  0
   10.0071   -4.5761   -0.8418 C   0  0  2  0  0  0  0  0  0  0  0  0
   11.3832   -4.9746   -1.3848 C   0  0  0  0  0  0  0  0  0  0  0  0
    9.9649   -3.1460   -0.3715 C   0  0  0  0  0  0  0  0  0  0  0  0
    9.2512   -2.3181   -1.0040 O   0  0  0  0  0  0  0  0  0  0  0  0
   10.6085   -2.7320    0.8388 N   0  0  0  0  0  0  0  0  0  0  0  0
   12.0422   -2.4271    0.9000 C   0  0  2  0  0  0  0  0  0  0  0  0
   12.5104   -2.3820    2.3562 C   0  0  0  0  0  0  0  0  0  0  0  0
   12.3698   -1.1259    0.2031 C   0  0  0  0  0  0  0  0  0  0  0  0
   13.5780   -0.8715   -0.0638 O   0  0  0  0  0  0  0  0  0  0  0  0
   11.3439   -0.1630   -0.1163 N   0  0  0  0  0  0  0  0  0  0  0  0
   11.5066    0.9446   -1.0704 C   0  0  2  0  0  0  0  0  0  0  0  0
   12.1303    0.4851   -2.3934 C   0  0  0  0  0  0  0  0  0  0  0  0
   12.2745    2.0902   -0.4636 C   0  0  0  0  0  0  0  0  0  0  0  0
   13.0548    1.8879    0.5069 O   0  0  0  0  0  0  0  0  0  0  0  0
   12.1074    3.4156   -0.9978 N   0  0  0  0  0  0  0  0  0  0  0  0
   12.4766    4.6497   -0.2968 C   0  0  2  0  0  0  0  0  0  0  0  0
   13.9847    4.7313   -0.0404 C   0  0  0  0  0  0  0  0  0  0  0  0
   11.6681    4.7965    0.9805 C   0  0  0  0  0  0  0  0  0  0  0  0
   11.9759    4.0962    1.9822 O   0  0  0  0  0  0  0  0  0  0  0  0
   10.5106    5.6475    1.0825 N   0  0  0  0  0  0  0  0  0  0  0  0
   10.0622    6.5987    0.0533 C   0  0  2  0  0  0  0  0  0  0  0  0
   10.9244    7.8694    0.1283 C   0  0  0  0  0  0  0  0  0  0  0  0
    8.5929    6.9001    0.2310 C   0  0  0  0  0  0  0  0  0  0  0  0
    8.1655    8.0869    0.1348 O   0  0  0  0  0  0  0  0  0  0  0  0
    7.6696    5.8261    0.4690 N   0  0  0  0  0  0  0  0  0  0  0  0
    6.3534    6.0371    1.0853 C   0  0  2  0  0  0  0  0  0  0  0  0
    6.5297    6.5845    2.5065 C   0  0  0  0  0  0  0  0  0  0  0  0
    5.5861    4.7296    1.1467 C   0  0  0  0  0  0  0  0  0  0  0  0
    6.1621    3.7106    1.6161 O   0  0  0  0  0  0  0  0  0  0  0  0
    4.2084    4.6075    0.7365 N   0  0  0  0  0  0  0  0  0  0  0  0
    3.3577    5.7151    0.2793 C   0  0  2  0  0  0  0  0  0  0  0  0
    3.1887    6.7441    1.3646 C   0  0  0  0  0  0  0  0  0  0  0  0
    2.8243    6.3528    2.6901 N   0  0  0  0  0  0  0  0  0  0  0  0
    3.3308    7.9638    1.0903 O   0  0  0  0  0  0  0  0  0  0  0  0
    1.9628    5.2115   -0.1388 C   0  0  0  0  0  0  0  0  0  0  0  0
    2.0596    4.1668   -1.6374 S   0  0  0  0  0  0  0  0  0  0  0  0
    0.2929    4.3098   -2.1001 C   0  0  0  0  0  0  0  0  0  0  0  0
   -5.6342    8.2161   -3.8317 H   0  0  0  0  0  0  0  0  0  0  0  0
   -3.9166    7.6924   -4.0856 H   0  0  0  0  0  0  0  0  0  0  0  0
   -5.2554    6.4851   -4.1635 H   0  0  0  0  0  0  0  0  0  0  0  0
   -5.2675    5.1033   -2.2804 H   0  0  0  0  0  0  0  0  0  0  0  0
   -3.8829    5.9331    0.1169 H   0  0  0  0  0  0  0  0  0  0  0  0
   -5.9799    3.6987   -0.1551 H   0  0  0  0  0  0  0  0  0  0  0  0
   -4.2741    3.5472   -0.6073 H   0  0  0  0  0  0  0  0  0  0  0  0
   -2.4115    3.5118    2.8248 H   0  0  0  0  0  0  0  0  0  0  0  0
   -2.6112    5.0285    1.9048 H   0  0  0  0  0  0  0  0  0  0  0  0
   -1.1163    5.1144    0.0796 H   0  0  0  0  0  0  0  0  0  0  0  0
   -0.3007    1.6775   -2.3444 H   0  0  0  0  0  0  0  0  0  0  0  0
   -2.8296    1.3136    1.1214 H   0  0  0  0  0  0  0  0  0  0  0  0
   -2.2949   -0.6649   -0.1196 H   0  0  0  0  0  0  0  0  0  0  0  0
   -2.7578   -0.0519   -1.7303 H   0  0  0  0  0  0  0  0  0  0  0  0
    1.3909   -1.5258   -0.5063 H   0  0  0  0  0  0  0  0  0  0  0  0
    0.1263   -0.8520    0.5584 H   0  0  0  0  0  0  0  0  0  0  0  0
   -0.1211   -3.6009   -0.8060 H   0  0  0  0  0  0  0  0  0  0  0  0
   -1.5904   -2.2827    1.4669 H   0  0  0  0  0  0  0  0  0  0  0  0
   -3.9593   -4.4184   -0.0327 H   0  0  0  0  0  0  0  0  0  0  0  0
   -1.4661   -5.1962   -1.6456 H   0  0  0  0  0  0  0  0  0  0  0  0
   -2.3559   -3.6073   -1.7363 H   0  0  0  0  0  0  0  0  0  0  0  0
   -3.1554   -5.1297   -2.2435 H   0  0  0  0  0  0  0  0  0  0  0  0
   -2.1580   -6.8775    0.2091 H   0  0  0  0  0  0  0  0  0  0  0  0
   -5.7033   -5.5112    0.4248 H   0  0  0  0  0  0  0  0  0  0  0  0
   -7.0374   -6.4146   -1.4915 H   0  0  0  0  0  0  0  0  0  0  0  0
   -5.3180   -6.1411   -1.9332 H   0  0  0  0  0  0  0  0  0  0  0  0
   -5.9131   -7.8177   -1.6060 H   0  0  0  0  0  0  0  0  0  0  0  0
   -6.7526   -8.3271    0.8725 H   0  0  0  0  0  0  0  0  0  0  0  0
   -9.1621   -6.2988    1.1861 H   0  0  0  0  0  0  0  0  0  0  0  0
  -10.1215   -4.8441    2.9573 H   0  0  0  0  0  0  0  0  0  0  0  0
   -9.5499   -6.3968    3.6510 H   0  0  0  0  0  0  0  0  0  0  0  0
   -8.5754   -4.8898    3.8698 H   0  0  0  0  0  0  0  0  0  0  0  0
   -7.2513   -3.9890    1.7379 H   0  0  0  0  0  0  0  0  0  0  0  0
   -9.8566   -3.2319   -1.2935 H   0  0  0  0  0  0  0  0  0  0  0  0
  -10.9567   -5.3036   -2.0194 H   0  0  0  0  0  0  0  0  0  0  0  0
   -9.1966   -5.3560   -2.3779 H   0  0  0  0  0  0  0  0  0  0  0  0
   -9.8620   -6.2987   -0.9936 H   0  0  0  0  0  0  0  0  0  0  0  0
  -11.0959   -5.0044    0.7925 H   0  0  0  0  0  0  0  0  0  0  0  0
  -11.7962   -1.8550    2.3473 H   0  0  0  0  0  0  0  0  0  0  0  0
   -9.5529   -0.7739    2.2962 H   0  0  0  0  0  0  0  0  0  0  0  0
   -9.1667   -1.6294    0.7626 H   0  0  0  0  0  0  0  0  0  0  0  0
   -9.4530   -2.5618    2.3000 H   0  0  0  0  0  0  0  0  0  0  0  0
  -11.1832   -0.3266   -0.2293 H   0  0  0  0  0  0  0  0  0  0  0  0
  -11.7388    1.9122   -0.0628 H   0  0  0  0  0  0  0  0  0  0  0  0
  -14.0584    1.1839   -0.7712 H   0  0  0  0  0  0  0  0  0  0  0  0
  -13.9291    2.9639   -0.5988 H   0  0  0  0  0  0  0  0  0  0  0  0
  -14.7409    1.9969    0.6912 H   0  0  0  0  0  0  0  0  0  0  0  0
  -12.5417    2.5994    2.7075 H   0  0  0  0  0  0  0  0  0  0  0  0
  -11.6558    3.9915   -0.6587 H   0  0  0  0  0  0  0  0  0  0  0  0
  -12.5922    6.0956   -1.4136 H   0  0  0  0  0  0  0  0  0  0  0  0
  -12.8536    6.6611    0.2777 H   0  0  0  0  0  0  0  0  0  0  0  0
  -13.8078    5.2776   -0.3674 H   0  0  0  0  0  0  0  0  0  0  0  0
  -10.4133    6.4997    0.4501 H   0  0  0  0  0  0  0  0  0  0  0  0
   -7.3663    4.9873   -1.2766 H   0  0  0  0  0  0  0  0  0  0  0  0
   -9.1897    7.4625   -1.2826 H   0  0  0  0  0  0  0  0  0  0  0  0
   -7.6265    7.2848   -2.1413 H   0  0  0  0  0  0  0  0  0  0  0  0
   -9.0138    6.2374   -2.6056 H   0  0  0  0  0  0  0  0  0  0  0  0
   -7.9416    6.9049    1.0267 H   0  0  0  0  0  0  0  0  0  0  0  0
    1.2176   -5.5687    1.7662 H   0  0  0  0  0  0  0  0  0  0  0  0
    3.2837   -5.4455    0.3241 H   0  0  0  0  0  0  0  0  0  0  0  0
    3.0750   -5.0752   -2.0834 H   0  0  0  0  0  0  0  0  0  0  0  0
    2.4215   -3.6516   -1.2415 H   0  0  0  0  0  0  0  0  0  0  0  0
    1.2938   -4.8785   -1.9621 H   0  0  0  0  0  0  0  0  0  0  0  0
    2.5945   -8.9696   -0.2294 H   0  0  0  0  0  0  0  0  0  0  0  0
    4.2361   -7.0161   -1.7399 H   0  0  0  0  0  0  0  0  0  0  0  0
    3.9254   -9.3771   -2.4557 H   0  0  0  0  0  0  0  0  0  0  0  0
    5.6528   -8.9793   -2.2195 H   0  0  0  0  0  0  0  0  0  0  0  0
    4.7835   -9.9478   -0.9726 H   0  0  0  0  0  0  0  0  0  0  0  0
    5.6503   -5.5121    0.8389 H   0  0  0  0  0  0  0  0  0  0  0  0
    7.2007   -4.8628   -0.9013 H   0  0  0  0  0  0  0  0  0  0  0  0
    7.5252   -7.8671   -1.5353 H   0  0  0  0  0  0  0  0  0  0  0  0
    6.5493   -6.6878   -2.5180 H   0  0  0  0  0  0  0  0  0  0  0  0
    8.3232   -6.5140   -2.3803 H   0  0  0  0  0  0  0  0  0  0  0  0
   10.3015   -5.5864    1.0412 H   0  0  0  0  0  0  0  0  0  0  0  0
    9.3072   -4.6673   -1.6951 H   0  0  0  0  0  0  0  0  0  0  0  0
   11.2924   -5.9157   -1.9710 H   0  0  0  0  0  0  0  0  0  0  0  0
   12.1004   -5.1660   -0.5607 H   0  0  0  0  0  0  0  0  0  0  0  0
   11.7861   -4.1838   -2.0547 H   0  0  0  0  0  0  0  0  0  0  0  0
    9.9921   -2.3056    1.5651 H   0  0  0  0  0  0  0  0  0  0  0  0
   12.6064   -3.2335    0.3982 H   0  0  0  0  0  0  0  0  0  0  0  0
   12.2389   -3.3279    2.8699 H   0  0  0  0  0  0  0  0  0  0  0  0
   12.0367   -1.5334    2.8914 H   0  0  0  0  0  0  0  0  0  0  0  0
   13.6147   -2.2647    2.4052 H   0  0  0  0  0  0  0  0  0  0  0  0
   10.3942   -0.2818    0.3003 H   0  0  0  0  0  0  0  0  0  0  0  0
   10.4859    1.3295   -1.3025 H   0  0  0  0  0  0  0  0  0  0  0  0
   13.2143    0.2911   -2.2794 H   0  0  0  0  0  0  0  0  0  0  0  0
   11.6296   -0.4388   -2.7511 H   0  0  0  0  0  0  0  0  0  0  0  0
   12.0033    1.2742   -3.1636 H   0  0  0  0  0  0  0  0  0  0  0  0
   11.5348    3.5173   -1.8658 H   0  0  0  0  0  0  0  0  0  0  0  0
   12.2530    5.4939   -0.9759 H   0  0  0  0  0  0  0  0  0  0  0  0
   14.5359    4.5374   -0.9832 H   0  0  0  0  0  0  0  0  0  0  0  0
   14.3141    4.0008    0.7262 H   0  0  0  0  0  0  0  0  0  0  0  0
   14.2507    5.7487    0.3174 H   0  0  0  0  0  0  0  0  0  0  0  0
   10.0013    5.6470    1.9977 H   0  0  0  0  0  0  0  0  0  0  0  0
   10.1653    6.1399   -0.9521 H   0  0  0  0  0  0  0  0  0  0  0  0
   10.6402    8.5883   -0.6708 H   0  0  0  0  0  0  0  0  0  0  0  0
   10.8072    8.3606    1.1173 H   0  0  0  0  0  0  0  0  0  0  0  0
   11.9967    7.6188   -0.0073 H   0  0  0  0  0  0  0  0  0  0  0  0
    7.9955    4.8570    0.2535 H   0  0  0  0  0  0  0  0  0  0  0  0
    5.8010    6.7828    0.4822 H   0  0  0  0  0  0  0  0  0  0  0  0
    5.5513    6.6779    3.0187 H   0  0  0  0  0  0  0  0  0  0  0  0
    7.1889    5.9136    3.0974 H   0  0  0  0  0  0  0  0  0  0  0  0
    6.9868    7.5926    2.4790 H   0  0  0  0  0  0  0  0  0  0  0  0
    3.7895    3.6504    0.7999 H   0  0  0  0  0  0  0  0  0  0  0  0
    3.8249    6.1909   -0.6109 H   0  0  0  0  0  0  0  0  0  0  0  0
    2.8532    5.3511    2.9792 H   0  0  0  0  0  0  0  0  0  0  0  0
    2.5126    7.0673    3.3814 H   0  0  0  0  0  0  0  0  0  0  0  0
    1.3144    6.0920   -0.3453 H   0  0  0  0  0  0  0  0  0  0  0  0
    1.5112    4.6206    0.6842 H   0  0  0  0  0  0  0  0  0  0  0  0
    0.1851    3.9605   -3.1477 H   0  0  0  0  0  0  0  0  0  0  0  0
   -0.0289    5.3721   -2.0967 H   0  0  0  0  0  0  0  0  0  0  0  0
  1  2  1  0
  2  3  2  0
  2  4  1  0
  4  5  1  0
  5  6  1  0
  6  7  1  0
  7  8  1  0
  8  9  1  0
  9 10  2  0
 10 11  1  0
 11 12  2  0
 12 13  1  0
 13 14  2  0
 13 15  1  0
 15 16  1  0
 16 17  1  0
 17 18  1  0
 18 19  1  0
 19 20  1  0
 20 21  2  0
 20 22  1  0
 22 23  1  0
 22 24  1  0
 24 25  1  0
 25 26  2  0
 25 27  1  0
 27 28  1  0
 27 29  1  0
 29 30  1  0
 30 31  2  0
 30 32  1  0
 32 33  1  0
 32 34  1  0
 34 35  1  0
 35 36  2  0
 35 37  1  0
 37 38  1  0
 37 39  1  0
 39 40  1  0
 40 41  2  0
 40 42  1  0
 42 43  1  0
 42 44  1  0
 44 45  1  0
 45 46  2  0
 45 47  1  0
 47 48  1  0
 47 49  1  0
 49 50  1  0
 50 51  2  0
 50 52  1  0
 52 53  1  0
 52 54  1  0
 54 55  1  0
 55 56  2  0
 55 57  1  0
 57 58  1  0
 57 59  1  0
 59 60  1  0
 60 61  2  0
 18 62  1  0
 62 63  2  0
 62 64  1  0
 64 65  1  0
 65 66  1  0
 65 67  1  0
 67 68  2  0
 67 69  1  0
 69 70  1  0
 70 71  1  0
 70 72  1  0
 72 73  2  0
 72 74  1  0
 74 75  1  0
 75 76  1  0
 75 77  1  0
 77 78  2  0
 77 79  1  0
 79 80  1  0
 80 81  1  0
 80 82  1  0
 82 83  2  0
 82 84  1  0
 84 85  1  0
 85 86  1  0
 85 87  1  0
 87 88  2  0
 87 89  1  0
 89 90  1  0
 90 91  1  0
 90 92  1  0
 92 93  2  0
 92 94  1  0
 94 95  1  0
 95 96  1  0
 95 97  1  0
 97 98  2  0
 97 99  1  0
 99100  1  0
100101  1  0
100102  1  0
102103  2  0
102104  1  0
104105  1  0
105106  1  0
105107  1  0
107108  2  0
107109  1  0
109110  1  0
110111  1  0
111112  1  0
111113  2  0
110114  1  0
114115  1  0
115116  1  0
 60  5  1  0
 14  9  1  0
116 11  1  0
  1117  1  0
  1118  1  0
  1119  1  0
  4120  1  0
  5121  1  1
  6122  1  0
  6123  1  0
  8124  1  0
  8125  1  0
 10126  1  0
 12127  1  0
 14128  1  0
 15129  1  0
 15130  1  0
 17131  1  0
 17132  1  0
 18133  1  6
 19134  1  0
 22135  1  6
 23136  1  0
 23137  1  0
 23138  1  0
 24139  1  0
 27140  1  1
 28141  1  0
 28142  1  0
 28143  1  0
 29144  1  0
 32145  1  6
 33146  1  0
 33147  1  0
 33148  1  0
 34149  1  0
 37150  1  6
 38151  1  0
 38152  1  0
 38153  1  0
 39154  1  0
 42155  1  1
 43156  1  0
 43157  1  0
 43158  1  0
 44159  1  0
 47160  1  6
 48161  1  0
 48162  1  0
 48163  1  0
 49164  1  0
 52165  1  6
 53166  1  0
 53167  1  0
 53168  1  0
 54169  1  0
 57170  1  6
 58171  1  0
 58172  1  0
 58173  1  0
 59174  1  0
 64175  1  0
 65176  1  1
 66177  1  0
 66178  1  0
 66179  1  0
 69180  1  0
 70181  1  6
 71182  1  0
 71183  1  0
 71184  1  0
 74185  1  0
 75186  1  6
 76187  1  0
 76188  1  0
 76189  1  0
 79190  1  0
 80191  1  6
 81192  1  0
 81193  1  0
 81194  1  0
 84195  1  0
 85196  1  6
 86197  1  0
 86198  1  0
 86199  1  0
 89200  1  0
 90201  1  6
 91202  1  0
 91203  1  0
 91204  1  0
 94205  1  0
 95206  1  6
 96207  1  0
 96208  1  0
 96209  1  0
 99210  1  0
100211  1  6
101212  1  0
101213  1  0
101214  1  0
104215  1  0
105216  1  6
106217  1  0
106218  1  0
106219  1  0
109220  1  0
110221  1  6
112222  1  0
112223  1  0
114224  1  0
114225  1  0
116226  1  0
116227  1  0
M  END
