
     RDKit          3D

217219  0  0  0  0  0  0  0  0999 V2000
    4.6193   -7.1924    4.2981 C   0  0  0  0  0  0  0  0  0  0  0  0
    3.6742   -7.3262    3.1390 C   0  0  0  0  0  0  0  0  0  0  0  0
    2.5809   -7.9297    3.3115 O   0  0  0  0  0  0  0  0  0  0  0  0
    4.0523   -6.9301    1.8108 N   0  0  0  0  0  0  0  0  0  0  0  0
    4.9676   -5.8286    1.5052 C   0  0  2  0  0  0  0  0  0  0  0  0
    4.2637   -4.8332    0.5558 C   0  0  0  0  0  0  0  0  0  0  0  0
    3.7302   -5.6171   -1.0156 S   0  0  0  0  0  0  0  0  0  0  0  0
    3.1219   -4.0927   -1.8130 C   0  0  0  0  0  0  0  0  0  0  0  0
    1.8384   -3.6351   -1.1759 C   0  0  0  0  0  0  0  0  0  0  0  0
    0.6806   -4.4335   -1.2406 C   0  0  0  0  0  0  0  0  0  0  0  0
   -0.4967   -4.0327   -0.5860 C   0  0  0  0  0  0  0  0  0  0  0  0
   -0.4970   -2.8384    0.1552 C   0  0  0  0  0  0  0  0  0  0  0  0
    0.6312   -2.0091    0.1819 C   0  0  0  0  0  0  0  0  0  0  0  0
    1.7919   -2.4112   -0.4943 C   0  0  0  0  0  0  0  0  0  0  0  0
    0.5635   -0.6935    0.8987 C   0  0  0  0  0  0  0  0  0  0  0  0
   -0.4425    0.4851   -0.0784 S   0  0  0  0  0  0  0  0  0  0  0  0
   -0.8049    1.6671    1.2755 C   0  0  0  0  0  0  0  0  0  0  0  0
    0.0492    2.9463    1.1895 C   0  0  2  0  0  0  0  0  0  0  0  0
    1.4689    2.5964    1.0605 N   0  0  0  0  0  0  0  0  0  0  0  0
    2.3910    3.3268    0.2379 C   0  0  0  0  0  0  0  0  0  0  0  0
    3.3389    2.7013   -0.3246 O   0  0  0  0  0  0  0  0  0  0  0  0
    2.3934    4.8309    0.2249 C   0  0  1  0  0  0  0  0  0  0  0  0
    3.1761    5.3234    1.4478 C   0  0  0  0  0  0  0  0  0  0  0  0
    2.9722    5.3217   -1.0371 N   0  0  0  0  0  0  0  0  0  0  0  0
    3.6600    6.5718   -1.1614 C   0  0  0  0  0  0  0  0  0  0  0  0
    2.9987    7.6470   -1.1392 O   0  0  0  0  0  0  0  0  0  0  0  0
    5.1545    6.6276   -1.3618 C   0  0  1  0  0  0  0  0  0  0  0  0
    5.8320    7.2773   -0.1376 C   0  0  0  0  0  0  0  0  0  0  0  0
    5.6888    5.2842   -1.6535 N   0  0  0  0  0  0  0  0  0  0  0  0
    6.9158    4.7667   -1.1196 C   0  0  0  0  0  0  0  0  0  0  0  0
    6.8646    3.9692   -0.1435 O   0  0  0  0  0  0  0  0  0  0  0  0
    8.2526    5.0394   -1.7696 C   0  0  1  0  0  0  0  0  0  0  0  0
    8.1972    6.1483   -2.8318 C   0  0  0  0  0  0  0  0  0  0  0  0
    9.2234    5.3950   -0.7322 N   0  0  0  0  0  0  0  0  0  0  0  0
   10.1746    4.4570   -0.2083 C   0  0  0  0  0  0  0  0  0  0  0  0
   10.2970    4.3468    1.0421 O   0  0  0  0  0  0  0  0  0  0  0  0
   11.0711    3.6548   -1.1087 C   0  0  1  0  0  0  0  0  0  0  0  0
   12.5328    4.0574   -0.9000 C   0  0  0  0  0  0  0  0  0  0  0  0
   10.8944    2.2131   -0.8638 N   0  0  0  0  0  0  0  0  0  0  0  0
   10.0335    1.4483   -1.7118 C   0  0  0  0  0  0  0  0  0  0  0  0
    8.7880    1.6447   -1.6651 O   0  0  0  0  0  0  0  0  0  0  0  0
   10.6148    0.4866   -2.7234 C   0  0  1  0  0  0  0  0  0  0  0  0
   11.4795    1.2638   -3.7404 C   0  0  0  0  0  0  0  0  0  0  0  0
   11.4154   -0.5492   -2.0531 N   0  0  0  0  0  0  0  0  0  0  0  0
   10.8682   -1.3642   -0.9882 C   0  0  0  0  0  0  0  0  0  0  0  0
    9.6583   -1.2127   -0.6605 O   0  0  0  0  0  0  0  0  0  0  0  0
   11.6516   -2.4468   -0.2883 C   0  0  1  0  0  0  0  0  0  0  0  0
   13.1700   -2.3586   -0.5147 C   0  0  0  0  0  0  0  0  0  0  0  0
   11.4013   -2.3659    1.1576 N   0  0  0  0  0  0  0  0  0  0  0  0
   10.6635   -3.2915    1.9887 C   0  0  0  0  0  0  0  0  0  0  0  0
   10.4153   -2.9457    3.1798 O   0  0  0  0  0  0  0  0  0  0  0  0
   10.1592   -4.6347    1.5108 C   0  0  1  0  0  0  0  0  0  0  0  0
   10.6903   -5.7455    2.4156 C   0  0  0  0  0  0  0  0  0  0  0  0
    8.6920   -4.6511    1.5282 N   0  0  0  0  0  0  0  0  0  0  0  0
    7.9105   -4.0282    0.4931 C   0  0  0  0  0  0  0  0  0  0  0  0
    7.5709   -2.8214    0.6307 O   0  0  0  0  0  0  0  0  0  0  0  0
    7.4100   -4.7994   -0.7120 C   0  0  1  0  0  0  0  0  0  0  0  0
    8.5611   -5.1309   -1.6696 C   0  0  0  0  0  0  0  0  0  0  0  0
    6.7530   -6.0731   -0.3410 N   0  0  0  0  0  0  0  0  0  0  0  0
    6.2655   -6.3826    0.9736 C   0  0  0  0  0  0  0  0  0  0  0  0
    6.8376   -7.3061    1.6214 O   0  0  0  0  0  0  0  0  0  0  0  0
   -0.1412    3.7687    2.4517 C   0  0  0  0  0  0  0  0  0  0  0  0
    0.4797    3.4129    3.4907 O   0  0  0  0  0  0  0  0  0  0  0  0
   -0.9751    4.9324    2.5235 N   0  0  0  0  0  0  0  0  0  0  0  0
   -2.0582    5.2932    1.6023 C   0  0  2  0  0  0  0  0  0  0  0  0
   -2.0365    6.8119    1.3811 C   0  0  0  0  0  0  0  0  0  0  0  0
   -3.3793    4.8083    2.1467 C   0  0  0  0  0  0  0  0  0  0  0  0
   -3.4782    3.6165    2.5733 O   0  0  0  0  0  0  0  0  0  0  0  0
   -4.5345    5.6542    2.1814 N   0  0  0  0  0  0  0  0  0  0  0  0
   -5.5792    5.6441    1.1438 C   0  0  2  0  0  0  0  0  0  0  0  0
   -5.0178    5.3033   -0.2495 C   0  0  0  0  0  0  0  0  0  0  0  0
   -6.2658    6.9915    1.1106 C   0  0  0  0  0  0  0  0  0  0  0  0
   -5.5834    8.0219    1.3594 O   0  0  0  0  0  0  0  0  0  0  0  0
   -7.6661    7.1433    0.8319 N   0  0  0  0  0  0  0  0  0  0  0  0
   -8.3867    6.3112   -0.1407 C   0  0  2  0  0  0  0  0  0  0  0  0
   -8.1947    6.8945   -1.5485 C   0  0  0  0  0  0  0  0  0  0  0  0
   -9.8577    6.2470    0.1788 C   0  0  0  0  0  0  0  0  0  0  0  0
  -10.3690    6.9832    1.0676 O   0  0  0  0  0  0  0  0  0  0  0  0
  -10.7055    5.3870   -0.5889 N   0  0  0  0  0  0  0  0  0  0  0  0
  -10.7355    3.9364   -0.3870 C   0  0  2  0  0  0  0  0  0  0  0  0
  -10.0284    3.2366   -1.5480 C   0  0  0  0  0  0  0  0  0  0  0  0
  -12.1701    3.4934   -0.2215 C   0  0  0  0  0  0  0  0  0  0  0  0
  -12.9068    4.0955    0.6033 O   0  0  0  0  0  0  0  0  0  0  0  0
  -12.7323    2.4265   -0.9932 N   0  0  0  0  0  0  0  0  0  0  0  0
  -12.5848    0.9972   -0.6796 C   0  0  2  0  0  0  0  0  0  0  0  0
  -13.9526    0.3228   -0.7731 C   0  0  0  0  0  0  0  0  0  0  0  0
  -11.9709    0.7577    0.6868 C   0  0  0  0  0  0  0  0  0  0  0  0
  -12.4138    1.3699    1.6930 O   0  0  0  0  0  0  0  0  0  0  0  0
  -10.9297   -0.2044    0.8564 N   0  0  0  0  0  0  0  0  0  0  0  0
  -11.1886   -1.6189    0.5730 C   0  0  2  0  0  0  0  0  0  0  0  0
  -11.9515   -2.2339    1.7504 C   0  0  0  0  0  0  0  0  0  0  0  0
   -9.9006   -2.3658    0.3340 C   0  0  0  0  0  0  0  0  0  0  0  0
   -8.9428   -2.2251    1.1413 O   0  0  0  0  0  0  0  0  0  0  0  0
   -9.7182   -3.2019   -0.8240 N   0  0  0  0  0  0  0  0  0  0  0  0
  -10.5396   -4.3793   -1.1397 C   0  0  2  0  0  0  0  0  0  0  0  0
  -11.8220   -3.9760   -1.8841 C   0  0  0  0  0  0  0  0  0  0  0  0
  -10.7932   -5.2229    0.0936 C   0  0  0  0  0  0  0  0  0  0  0  0
  -11.9696   -5.5731    0.3894 O   0  0  0  0  0  0  0  0  0  0  0  0
   -9.7203   -5.6131    0.9670 N   0  0  0  0  0  0  0  0  0  0  0  0
   -8.4244   -6.0766    0.4525 C   0  0  2  0  0  0  0  0  0  0  0  0
   -8.4480   -7.6170    0.3407 C   0  0  0  0  0  0  0  0  0  0  0  0
   -7.2872   -5.6074    1.3350 C   0  0  0  0  0  0  0  0  0  0  0  0
   -7.5335   -4.9061    2.3508 O   0  0  0  0  0  0  0  0  0  0  0  0
   -5.9435   -6.0629    1.1196 N   0  0  0  0  0  0  0  0  0  0  0  0
   -5.0718   -5.6533    0.0069 C   0  0  1  0  0  0  0  0  0  0  0  0
   -5.8303   -5.5184   -1.2913 C   0  0  0  0  0  0  0  0  0  0  0  0
   -6.3486   -4.2591   -1.7422 N   0  0  0  0  0  0  0  0  0  0  0  0
   -5.9840   -6.5310   -2.0264 O   0  0  0  0  0  0  0  0  0  0  0  0
   -4.2710   -4.3963    0.3887 C   0  0  0  0  0  0  0  0  0  0  0  0
   -3.2043   -3.8342   -1.0009 S   0  0  0  0  0  0  0  0  0  0  0  0
   -1.7423   -4.8885   -0.6391 C   0  0  0  0  0  0  0  0  0  0  0  0
    4.8983   -6.1321    4.4732 H   0  0  0  0  0  0  0  0  0  0  0  0
    5.5408   -7.7948    4.0908 H   0  0  0  0  0  0  0  0  0  0  0  0
    4.1451   -7.5937    5.2235 H   0  0  0  0  0  0  0  0  0  0  0  0
    3.6674   -7.4936    1.0248 H   0  0  0  0  0  0  0  0  0  0  0  0
    5.2035   -5.2591    2.4290 H   0  0  0  0  0  0  0  0  0  0  0  0
    4.9278   -3.9732    0.3393 H   0  0  0  0  0  0  0  0  0  0  0  0
    3.3686   -4.4261    1.0763 H   0  0  0  0  0  0  0  0  0  0  0  0
    3.9064   -3.3068   -1.7765 H   0  0  0  0  0  0  0  0  0  0  0  0
    2.9276   -4.3036   -2.8825 H   0  0  0  0  0  0  0  0  0  0  0  0
    0.7007   -5.3666   -1.7900 H   0  0  0  0  0  0  0  0  0  0  0  0
   -1.3868   -2.5399    0.6881 H   0  0  0  0  0  0  0  0  0  0  0  0
    2.6563   -1.7656   -0.4899 H   0  0  0  0  0  0  0  0  0  0  0  0
    0.1297   -0.8712    1.9074 H   0  0  0  0  0  0  0  0  0  0  0  0
    1.5878   -0.2939    1.0257 H   0  0  0  0  0  0  0  0  0  0  0  0
   -0.6887    1.1840    2.2658 H   0  0  0  0  0  0  0  0  0  0  0  0
   -1.8750    1.9472    1.1801 H   0  0  0  0  0  0  0  0  0  0  0  0
   -0.2578    3.5101    0.2851 H   0  0  0  0  0  0  0  0  0  0  0  0
    1.8616    1.8318    1.6487 H   0  0  0  0  0  0  0  0  0  0  0  0
    1.3524    5.2171    0.2956 H   0  0  0  0  0  0  0  0  0  0  0  0
    2.7040    4.9446    2.3792 H   0  0  0  0  0  0  0  0  0  0  0  0
    3.1823    6.4341    1.4975 H   0  0  0  0  0  0  0  0  0  0  0  0
    4.2211    4.9459    1.4059 H   0  0  0  0  0  0  0  0  0  0  0  0
    2.5614    4.9371   -1.9233 H   0  0  0  0  0  0  0  0  0  0  0  0
    5.3593    7.2692   -2.2459 H   0  0  0  0  0  0  0  0  0  0  0  0
    5.3764    8.2689    0.0762 H   0  0  0  0  0  0  0  0  0  0  0  0
    5.7313    6.6395    0.7632 H   0  0  0  0  0  0  0  0  0  0  0  0
    6.9093    7.4418   -0.3285 H   0  0  0  0  0  0  0  0  0  0  0  0
    5.1468    4.6562   -2.2988 H   0  0  0  0  0  0  0  0  0  0  0  0
    8.5491    4.1049   -2.2945 H   0  0  0  0  0  0  0  0  0  0  0  0
    9.1811    6.2339   -3.3367 H   0  0  0  0  0  0  0  0  0  0  0  0
    7.4360    5.9210   -3.6124 H   0  0  0  0  0  0  0  0  0  0  0  0
    7.9594    7.1398   -2.3753 H   0  0  0  0  0  0  0  0  0  0  0  0
    9.0569    6.2700   -0.1861 H   0  0  0  0  0  0  0  0  0  0  0  0
   10.8239    3.8819   -2.1658 H   0  0  0  0  0  0  0  0  0  0  0  0
   12.7885    4.0815    0.1814 H   0  0  0  0  0  0  0  0  0  0  0  0
   12.7154    5.0652   -1.3476 H   0  0  0  0  0  0  0  0  0  0  0  0
   13.2203    3.3264   -1.3960 H   0  0  0  0  0  0  0  0  0  0  0  0
   11.6804    1.6934   -0.4058 H   0  0  0  0  0  0  0  0  0  0  0  0
    9.7788    0.0122   -3.2866 H   0  0  0  0  0  0  0  0  0  0  0  0
   12.4990    1.4684   -3.3228 H   0  0  0  0  0  0  0  0  0  0  0  0
   11.5604    0.6879   -4.6912 H   0  0  0  0  0  0  0  0  0  0  0  0
   11.0013    2.2418   -3.9682 H   0  0  0  0  0  0  0  0  0  0  0  0
   12.2797   -0.8642   -2.5665 H   0  0  0  0  0  0  0  0  0  0  0  0
   11.3101   -3.3981   -0.7208 H   0  0  0  0  0  0  0  0  0  0  0  0
   13.4271   -2.5596   -1.5763 H   0  0  0  0  0  0  0  0  0  0  0  0
   13.5407   -1.3511   -0.2279 H   0  0  0  0  0  0  0  0  0  0  0  0
   13.6881   -3.1180    0.1021 H   0  0  0  0  0  0  0  0  0  0  0  0
   11.6750   -1.4599    1.6139 H   0  0  0  0  0  0  0  0  0  0  0  0
   10.5114   -4.8820    0.4952 H   0  0  0  0  0  0  0  0  0  0  0  0
   10.3427   -6.7423    2.0713 H   0  0  0  0  0  0  0  0  0  0  0  0
   11.7975   -5.7445    2.4308 H   0  0  0  0  0  0  0  0  0  0  0  0
   10.3542   -5.5953    3.4755 H   0  0  0  0  0  0  0  0  0  0  0  0
    8.2286   -4.7064    2.4668 H   0  0  0  0  0  0  0  0  0  0  0  0
    6.6710   -4.1785   -1.2555 H   0  0  0  0  0  0  0  0  0  0  0  0
    9.0902   -4.2274   -2.0327 H   0  0  0  0  0  0  0  0  0  0  0  0
    9.3125   -5.8058   -1.1941 H   0  0  0  0  0  0  0  0  0  0  0  0
    8.1238   -5.6414   -2.5515 H   0  0  0  0  0  0  0  0  0  0  0  0
    6.3001   -6.6115   -1.1118 H   0  0  0  0  0  0  0  0  0  0  0  0
   -0.9399    5.4699    3.4237 H   0  0  0  0  0  0  0  0  0  0  0  0
   -1.9155    4.8153    0.6091 H   0  0  0  0  0  0  0  0  0  0  0  0
   -2.2213    7.3500    2.3346 H   0  0  0  0  0  0  0  0  0  0  0  0
   -1.0466    7.1091    0.9811 H   0  0  0  0  0  0  0  0  0  0  0  0
   -2.8030    7.1258    0.6492 H   0  0  0  0  0  0  0  0  0  0  0  0
   -4.8457    5.9396    3.1421 H   0  0  0  0  0  0  0  0  0  0  0  0
   -6.3143    4.8575    1.4178 H   0  0  0  0  0  0  0  0  0  0  0  0
   -5.8428    5.1531   -0.9774 H   0  0  0  0  0  0  0  0  0  0  0  0
   -4.3716    6.1133   -0.6392 H   0  0  0  0  0  0  0  0  0  0  0  0
   -4.4388    4.3516   -0.2302 H   0  0  0  0  0  0  0  0  0  0  0  0
   -8.0700    8.0824    1.0412 H   0  0  0  0  0  0  0  0  0  0  0  0
   -8.0002    5.2748   -0.1174 H   0  0  0  0  0  0  0  0  0  0  0  0
   -8.6933    7.8852   -1.6295 H   0  0  0  0  0  0  0  0  0  0  0  0
   -8.6299    6.2144   -2.3122 H   0  0  0  0  0  0  0  0  0  0  0  0
   -7.1173    7.0256   -1.7702 H   0  0  0  0  0  0  0  0  0  0  0  0
  -11.3478    5.8221   -1.2911 H   0  0  0  0  0  0  0  0  0  0  0  0
  -10.1960    3.6842    0.5521 H   0  0  0  0  0  0  0  0  0  0  0  0
  -10.6543    3.2433   -2.4634 H   0  0  0  0  0  0  0  0  0  0  0  0
   -9.0771    3.7532   -1.7839 H   0  0  0  0  0  0  0  0  0  0  0  0
   -9.7921    2.1867   -1.2757 H   0  0  0  0  0  0  0  0  0  0  0  0
  -13.3283    2.6993   -1.8136 H   0  0  0  0  0  0  0  0  0  0  0  0
  -11.9148    0.5427   -1.4449 H   0  0  0  0  0  0  0  0  0  0  0  0
  -13.9299   -0.7008   -0.3403 H   0  0  0  0  0  0  0  0  0  0  0  0
  -14.2504    0.2323   -1.8445 H   0  0  0  0  0  0  0  0  0  0  0  0
  -14.7264    0.9145   -0.2309 H   0  0  0  0  0  0  0  0  0  0  0  0
  -10.2095    0.0168    1.5810 H   0  0  0  0  0  0  0  0  0  0  0  0
  -11.8119   -1.6960   -0.3357 H   0  0  0  0  0  0  0  0  0  0  0  0
  -12.8869   -1.6610    1.9299 H   0  0  0  0  0  0  0  0  0  0  0  0
  -12.2370   -3.2824    1.5334 H   0  0  0  0  0  0  0  0  0  0  0  0
  -11.3290   -2.2083    2.6729 H   0  0  0  0  0  0  0  0  0  0  0  0
   -8.7865   -3.1430   -1.2913 H   0  0  0  0  0  0  0  0  0  0  0  0
   -9.9679   -5.0071   -1.8572 H   0  0  0  0  0  0  0  0  0  0  0  0
  -12.2492   -4.8600   -2.3979 H   0  0  0  0  0  0  0  0  0  0  0  0
  -11.5894   -3.2081   -2.6497 H   0  0  0  0  0  0  0  0  0  0  0  0
  -12.5905   -3.5853   -1.1914 H   0  0  0  0  0  0  0  0  0  0  0  0
   -9.9739   -5.8819    1.9424 H   0  0  0  0  0  0  0  0  0  0  0  0
   -8.2622   -5.6594   -0.5518 H   0  0  0  0  0  0  0  0  0  0  0  0
   -8.1141   -7.9295   -0.6716 H   0  0  0  0  0  0  0  0  0  0  0  0
   -9.4761   -8.0187    0.4929 H   0  0  0  0  0  0  0  0  0  0  0  0
   -7.7867   -8.1030    1.0923 H   0  0  0  0  0  0  0  0  0  0  0  0
   -5.4514   -6.4280    1.9644 H   0  0  0  0  0  0  0  0  0  0  0  0
   -4.3258   -6.4652   -0.1443 H   0  0  0  0  0  0  0  0  0  0  0  0
   -6.2874   -3.3992   -1.1528 H   0  0  0  0  0  0  0  0  0  0  0  0
   -6.8689   -4.1930   -2.6416 H   0  0  0  0  0  0  0  0  0  0  0  0
   -3.6579   -4.5980    1.2940 H   0  0  0  0  0  0  0  0  0  0  0  0
   -4.9625   -3.5712    0.6735 H   0  0  0  0  0  0  0  0  0  0  0  0
   -1.8258   -5.4548    0.3156 H   0  0  0  0  0  0  0  0  0  0  0  0
   -1.6651   -5.6414   -1.4620 H   0  0  0  0  0  0  0  0  0  0  0  0
  1  2  1  0
  2  3  2  0
  2  4  1  0
  4  5  1  0
  5  6  1  0
  6  7  1  0
  7  8  1  0
  8  9  1  0
  9 10  2  0
 10 11  1  0
 11 12  2  0
 12 13  1  0
 13 14  2  0
 13 15  1  0
 15 16  1  0
 16 17  1  0
 17 18  1  0
 18 19  1  0
 19 20  1  0
 20 21  2  0
 20 22  1  0
 22 23  1  0
 22 24  1  0
 24 25  1  0
 25 26  2  0
 25 27  1  0
 27 28  1  0
 27 29  1  0
 29 30  1  0
 30 31  2  0
 30 32  1  0
 32 33  1  0
 32 34  1  0
 34 35  1  0
 35 36  2  0
 35 37  1  0
 37 38  1  0
 37 39  1  0
 39 40  1  0
 40 41  2  0
 40 42  1  0
 42 43  1  0
 42 44  1  0
 44 45  1  0
 45 46  2  0
 45 47  1  0
 47 48  1  0
 47 49  1  0
 49 50  1  0
 50 51  2  0
 50 52  1  0
 52 53  1  0
 52 54  1  0
 54 55  1  0
 55 56  2  0
 55 57  1  0
 57 58  1  0
 57 59  1  0
 59 60  1  0
 60 61  2  0
 18 62  1  0
 62 63  2  0
 62 64  1  0
 64 65  1  0
 65 66  1  0
 65 67  1  0
 67 68  2  0
 67 69  1  0
 69 70  1  0
 70 71  1  0
 70 72  1  0
 72 73  2  0
 72 74  1  0
 74 75  1  0
 75 76  1  0
 75 77  1  0
 77 78  2  0
 77 79  1  0
 79 80  1  0
 80 81  1  0
 80 82  1  0
 82 83  2  0
 82 84  1  0
 84 85  1  0
 85 86  1  0
 85 87  1  0
 87 88  2  0
 87 89  1  0
 89 90  1  0
 90 91  1  0
 90 92  1  0
 92 93  2  0
 92 94  1  0
 94 95  1  0
 95 96  1  0
 95 97  1  0
 97 98  2  0
 97 99  1  0
 99100  1  0
100101  1  0
100102  1  0
102103  2  0
102104  1  0
104105  1  0
105106  1  0
106107  1  0
106108  2  0
105109  1  0
109110  1  0
110111  1  0
 60  5  1  0
 14  9  1  0
111 11  1  0
  1112  1  0
  1113  1  0
  1114  1  0
  4115  1  0
  5116  1  1
  6117  1  0
  6118  1  0
  8119  1  0
  8120  1  0
 10121  1  0
 12122  1  0
 14123  1  0
 15124  1  0
 15125  1  0
 17126  1  0
 17127  1  0
 18128  1  6
 19129  1  0
 22130  1  1
 23131  1  0
 23132  1  0
 23133  1  0
 24134  1  0
 27135  1  6
 28136  1  0
 28137  1  0
 28138  1  0
 29139  1  0
 32140  1  6
 33141  1  0
 33142  1  0
 33143  1  0
 34144  1  0
 37145  1  6
 38146  1  0
 38147  1  0
 38148  1  0
 39149  1  0
 42150  1  6
 43151  1  0
 43152  1  0
 43153  1  0
 44154  1  0
 47155  1  6
 48156  1  0
 48157  1  0
 48158  1  0
 49159  1  0
 52160  1  6
 53161  1  0
 53162  1  0
 53163  1  0
 54164  1  0
 57165  1  6
 58166  1  0
 58167  1  0
 58168  1  0
 59169  1  0
 64170  1  0
 65171  1  6
 66172  1  0
 66173  1  0
 66174  1  0
 69175  1  0
 70176  1  1
 71177  1  0
 71178  1  0
 71179  1  0
 74180  1  0
 75181  1  6
 76182  1  0
 76183  1  0
 76184  1  0
 79185  1  0
 80186  1  1
 81187  1  0
 81188  1  0
 81189  1  0
 84190  1  0
 85191  1  6
 86192  1  0
 86193  1  0
 86194  1  0
 89195  1  0
 90196  1  6
 91197  1  0
 91198  1  0
 91199  1  0
 94200  1  0
 95201  1  6
 96202  1  0
 96203  1  0
 96204  1  0
 99205  1  0
100206  1  6
101207  1  0
101208  1  0
101209  1  0
104210  1  0
105211  1  6
107212  1  0
107213  1  0
109214  1  0
109215  1  0
111216  1  0
111217  1  0
M  END
