
     RDKit          3D

227229  0  0  0  0  0  0  0  0999 V2000
    5.8404   -5.7249    3.0823 C   0  0  0  0  0  0  0  0  0  0  0  0
    5.8023   -4.2453    2.8537 C   0  0  0  0  0  0  0  0  0  0  0  0
    6.0167   -3.4722    3.8283 O   0  0  0  0  0  0  0  0  0  0  0  0
    5.5250   -3.6748    1.5685 N   0  0  0  0  0  0  0  0  0  0  0  0
    5.5124   -4.4228    0.3044 C   0  0  1  0  0  0  0  0  0  0  0  0
    4.1099   -4.3434   -0.3414 C   0  0  0  0  0  0  0  0  0  0  0  0
    2.9740   -5.5746    0.4020 S   0  0  0  0  0  0  0  0  0  0  0  0
    2.2472   -4.4944    1.6822 C   0  0  0  0  0  0  0  0  0  0  0  0
    1.0175   -3.7895    1.1760 C   0  0  0  0  0  0  0  0  0  0  0  0
   -0.0907   -4.5313    0.7500 C   0  0  0  0  0  0  0  0  0  0  0  0
   -1.2759   -3.8894    0.3622 C   0  0  0  0  0  0  0  0  0  0  0  0
   -1.3650   -2.4908    0.4627 C   0  0  0  0  0  0  0  0  0  0  0  0
   -0.2617   -1.7316    0.8940 C   0  0  0  0  0  0  0  0  0  0  0  0
    0.9315   -2.3916    1.2299 C   0  0  0  0  0  0  0  0  0  0  0  0
   -0.4179   -0.2653    1.2127 C   0  0  0  0  0  0  0  0  0  0  0  0
   -1.2116    0.6656   -0.1544 S   0  0  0  0  0  0  0  0  0  0  0  0
    0.3228    1.2376   -0.9837 C   0  0  0  0  0  0  0  0  0  0  0  0
    0.6186    2.7258   -0.7161 C   0  0  2  0  0  0  0  0  0  0  0  0
    1.0591    2.9338    0.6633 N   0  0  0  0  0  0  0  0  0  0  0  0
    2.0786    3.8819    0.9860 C   0  0  0  0  0  0  0  0  0  0  0  0
    1.7509    5.0795    1.1892 O   0  0  0  0  0  0  0  0  0  0  0  0
    3.4884    3.4089    1.2539 C   0  0  1  0  0  0  0  0  0  0  0  0
    4.0399    2.5119    0.1393 C   0  0  0  0  0  0  0  0  0  0  0  0
    4.4163    4.5022    1.5878 N   0  0  0  0  0  0  0  0  0  0  0  0
    4.5836    5.7673    0.9112 C   0  0  0  0  0  0  0  0  0  0  0  0
    5.0575    6.7349    1.5719 O   0  0  0  0  0  0  0  0  0  0  0  0
    4.3297    5.9641   -0.5713 C   0  0  1  0  0  0  0  0  0  0  0  0
    3.4233    7.1822   -0.8014 C   0  0  0  0  0  0  0  0  0  0  0  0
    5.6029    6.1536   -1.2724 N   0  0  0  0  0  0  0  0  0  0  0  0
    6.6840    5.2226   -1.1607 C   0  0  0  0  0  0  0  0  0  0  0  0
    6.4779    4.0008   -1.3977 O   0  0  0  0  0  0  0  0  0  0  0  0
    8.0567    5.6615   -0.7039 C   0  0  1  0  0  0  0  0  0  0  0  0
    8.1647    7.1819   -0.5365 C   0  0  0  0  0  0  0  0  0  0  0  0
    8.3641    5.0113    0.5735 N   0  0  0  0  0  0  0  0  0  0  0  0
    9.5754    4.2866    0.8309 C   0  0  0  0  0  0  0  0  0  0  0  0
    9.5490    3.3469    1.6685 O   0  0  0  0  0  0  0  0  0  0  0  0
   10.8758    4.6380    0.1342 C   0  0  1  0  0  0  0  0  0  0  0  0
   12.0737    4.5149    1.0825 C   0  0  0  0  0  0  0  0  0  0  0  0
   11.0963    3.8292   -1.0722 N   0  0  0  0  0  0  0  0  0  0  0  0
   10.7563    2.4401   -1.1797 C   0  0  0  0  0  0  0  0  0  0  0  0
    9.5507    2.1129   -1.3534 O   0  0  0  0  0  0  0  0  0  0  0  0
   11.8030    1.3527   -1.0678 C   0  0  1  0  0  0  0  0  0  0  0  0
   13.2090    1.8763   -1.3878 C   0  0  0  0  0  0  0  0  0  0  0  0
   11.7656    0.7823    0.2845 N   0  0  0  0  0  0  0  0  0  0  0  0
   12.3114   -0.4821    0.6841 C   0  0  0  0  0  0  0  0  0  0  0  0
   12.2496   -0.8065    1.9053 O   0  0  0  0  0  0  0  0  0  0  0  0
   12.9348   -1.4776   -0.2778 C   0  0  1  0  0  0  0  0  0  0  0  0
   14.4047   -1.6932    0.1223 C   0  0  0  0  0  0  0  0  0  0  0  0
   12.1807   -2.7366   -0.2143 N   0  0  0  0  0  0  0  0  0  0  0  0
   12.6254   -3.9792   -0.7991 C   0  0  0  0  0  0  0  0  0  0  0  0
   13.4392   -3.9606   -1.7633 O   0  0  0  0  0  0  0  0  0  0  0  0
   12.0383   -5.3001   -0.3557 C   0  0  1  0  0  0  0  0  0  0  0  0
   13.1453   -6.3277   -0.1049 C   0  0  0  0  0  0  0  0  0  0  0  0
   11.2463   -5.1362    0.8708 N   0  0  0  0  0  0  0  0  0  0  0  0
    9.8123   -5.0000    0.9139 C   0  0  0  0  0  0  0  0  0  0  0  0
    9.2436   -5.0167    2.0391 O   0  0  0  0  0  0  0  0  0  0  0  0
    8.9670   -4.8359   -0.3280 C   0  0  1  0  0  0  0  0  0  0  0  0
    8.3744   -6.1973   -0.7150 C   0  0  0  0  0  0  0  0  0  0  0  0
    7.9459   -3.8051   -0.0924 N   0  0  0  0  0  0  0  0  0  0  0  0
    6.6018   -3.8687   -0.5813 C   0  0  0  0  0  0  0  0  0  0  0  0
    6.3361   -3.3744   -1.7139 O   0  0  0  0  0  0  0  0  0  0  0  0
   -0.5774    3.5925   -1.0505 C   0  0  0  0  0  0  0  0  0  0  0  0
   -0.7544    3.9234   -2.2617 O   0  0  0  0  0  0  0  0  0  0  0  0
   -1.5441    3.9570   -0.0512 N   0  0  0  0  0  0  0  0  0  0  0  0
   -2.9123    4.4125   -0.3203 C   0  0  2  0  0  0  0  0  0  0  0  0
   -3.6172    3.5694   -1.3947 C   0  0  0  0  0  0  0  0  0  0  0  0
   -2.9179    5.8837   -0.6717 C   0  0  0  0  0  0  0  0  0  0  0  0
   -2.3665    6.2481   -1.7479 O   0  0  0  0  0  0  0  0  0  0  0  0
   -3.5316    6.8995    0.1556 N   0  0  0  0  0  0  0  0  0  0  0  0
   -4.2625    6.7174    1.4189 C   0  0  2  0  0  0  0  0  0  0  0  0
   -3.2940    6.3351    2.5527 C   0  0  0  0  0  0  0  0  0  0  0  0
   -5.4514    5.7827    1.2758 C   0  0  0  0  0  0  0  0  0  0  0  0
   -5.6099    4.8590    2.1246 O   0  0  0  0  0  0  0  0  0  0  0  0
   -6.4215    5.8979    0.2203 N   0  0  0  0  0  0  0  0  0  0  0  0
   -6.6066    7.0600   -0.6699 C   0  0  2  0  0  0  0  0  0  0  0  0
   -6.9550    8.3341    0.1073 C   0  0  0  0  0  0  0  0  0  0  0  0
   -7.6557    6.7847   -1.7369 C   0  0  0  0  0  0  0  0  0  0  0  0
   -7.4703    7.2717   -2.8856 O   0  0  0  0  0  0  0  0  0  0  0  0
   -8.7933    5.9265   -1.5377 N   0  0  0  0  0  0  0  0  0  0  0  0
   -9.9201    6.1887   -0.6274 C   0  0  2  0  0  0  0  0  0  0  0  0
  -10.3710    7.6596   -0.6812 C   0  0  0  0  0  0  0  0  0  0  0  0
   -9.6127    5.6934    0.7695 C   0  0  0  0  0  0  0  0  0  0  0  0
   -9.4254    6.5121    1.7076 O   0  0  0  0  0  0  0  0  0  0  0  0
   -9.5139    4.2854    1.0529 N   0  0  0  0  0  0  0  0  0  0  0  0
  -10.3418    3.2699    0.3834 C   0  0  2  0  0  0  0  0  0  0  0  0
  -11.7765    3.3864    0.9129 C   0  0  0  0  0  0  0  0  0  0  0  0
   -9.7378    1.8915    0.5867 C   0  0  0  0  0  0  0  0  0  0  0  0
   -8.4859    1.7569    0.4865 O   0  0  0  0  0  0  0  0  0  0  0  0
  -10.5231    0.7357    0.9252 N   0  0  0  0  0  0  0  0  0  0  0  0
  -11.5963    0.2231    0.0642 C   0  0  2  0  0  0  0  0  0  0  0  0
  -12.8682   -0.0159    0.8956 C   0  0  0  0  0  0  0  0  0  0  0  0
  -11.1444   -1.0369   -0.6367 C   0  0  0  0  0  0  0  0  0  0  0  0
  -10.4257   -0.9406   -1.6696 O   0  0  0  0  0  0  0  0  0  0  0  0
  -11.5253   -2.3356   -0.1522 N   0  0  0  0  0  0  0  0  0  0  0  0
  -11.8913   -3.4333   -1.0574 C   0  0  2  0  0  0  0  0  0  0  0  0
  -13.0759   -3.0267   -1.9394 C   0  0  0  0  0  0  0  0  0  0  0  0
  -12.2631   -4.6660   -0.2518 C   0  0  0  0  0  0  0  0  0  0  0  0
  -13.2298   -4.5796    0.5562 O   0  0  0  0  0  0  0  0  0  0  0  0
  -11.5937   -5.9383   -0.3813 N   0  0  0  0  0  0  0  0  0  0  0  0
  -10.4036   -6.1874   -1.2017 C   0  0  2  0  0  0  0  0  0  0  0  0
  -10.8263   -6.4784   -2.6434 C   0  0  0  0  0  0  0  0  0  0  0  0
   -9.6005   -7.3474   -0.6477 C   0  0  0  0  0  0  0  0  0  0  0  0
  -10.2047   -8.3472   -0.1659 O   0  0  0  0  0  0  0  0  0  0  0  0
   -8.1646   -7.3312   -0.6078 N   0  0  0  0  0  0  0  0  0  0  0  0
   -7.3329   -6.7241   -1.6539 C   0  0  2  0  0  0  0  0  0  0  0  0
   -6.9032   -7.7914   -2.6717 C   0  0  0  0  0  0  0  0  0  0  0  0
   -6.1353   -6.0600   -1.0306 C   0  0  0  0  0  0  0  0  0  0  0  0
   -6.0496   -4.8030   -1.0197 O   0  0  0  0  0  0  0  0  0  0  0  0
   -5.0786   -6.8430   -0.4733 N   0  0  0  0  0  0  0  0  0  0  0  0
   -5.0230   -7.1463    0.9578 C   0  0  1  0  0  0  0  0  0  0  0  0
   -5.1285   -8.6338    1.1754 C   0  0  0  0  0  0  0  0  0  0  0  0
   -4.3254   -9.5546    0.4320 N   0  0  0  0  0  0  0  0  0  0  0  0
   -5.9315   -9.0745    2.0394 O   0  0  0  0  0  0  0  0  0  0  0  0
   -3.7225   -6.6163    1.5816 C   0  0  0  0  0  0  0  0  0  0  0  0
   -3.6114   -4.7946    1.4451 S   0  0  0  0  0  0  0  0  0  0  0  0
   -2.4899   -4.6977   -0.0033 C   0  0  0  0  0  0  0  0  0  0  0  0
    6.6899   -6.1691    2.5272 H   0  0  0  0  0  0  0  0  0  0  0  0
    4.8947   -6.1826    2.7409 H   0  0  0  0  0  0  0  0  0  0  0  0
    5.9782   -5.9431    4.1700 H   0  0  0  0  0  0  0  0  0  0  0  0
    5.3751   -2.6400    1.5166 H   0  0  0  0  0  0  0  0  0  0  0  0
    5.7437   -5.4902    0.4720 H   0  0  0  0  0  0  0  0  0  0  0  0
    4.1669   -4.5919   -1.4164 H   0  0  0  0  0  0  0  0  0  0  0  0
    3.6900   -3.3154   -0.2657 H   0  0  0  0  0  0  0  0  0  0  0  0
    2.9900   -3.7734    2.0579 H   0  0  0  0  0  0  0  0  0  0  0  0
    1.9572   -5.1305    2.5436 H   0  0  0  0  0  0  0  0  0  0  0  0
   -0.0453   -5.6130    0.7437 H   0  0  0  0  0  0  0  0  0  0  0  0
   -2.3037   -1.9957    0.2371 H   0  0  0  0  0  0  0  0  0  0  0  0
    1.7784   -1.8174    1.5912 H   0  0  0  0  0  0  0  0  0  0  0  0
    0.5513    0.1915    1.4939 H   0  0  0  0  0  0  0  0  0  0  0  0
   -1.0691   -0.1765    2.1029 H   0  0  0  0  0  0  0  0  0  0  0  0
    0.1641    1.0985   -2.0772 H   0  0  0  0  0  0  0  0  0  0  0  0
    1.1986    0.6153   -0.7070 H   0  0  0  0  0  0  0  0  0  0  0  0
    1.4470    3.0207   -1.4021 H   0  0  0  0  0  0  0  0  0  0  0  0
    0.5062    2.5371    1.4531 H   0  0  0  0  0  0  0  0  0  0  0  0
    3.4193    2.7539    2.1559 H   0  0  0  0  0  0  0  0  0  0  0  0
    3.4816    1.5501    0.1226 H   0  0  0  0  0  0  0  0  0  0  0  0
    3.9334    2.9672   -0.8595 H   0  0  0  0  0  0  0  0  0  0  0  0
    5.1097    2.2827    0.3262 H   0  0  0  0  0  0  0  0  0  0  0  0
    4.9132    4.4122    2.5050 H   0  0  0  0  0  0  0  0  0  0  0  0
    3.8042    5.0938   -1.0006 H   0  0  0  0  0  0  0  0  0  0  0  0
    2.4795    7.1024   -0.2201 H   0  0  0  0  0  0  0  0  0  0  0  0
    3.1620    7.2575   -1.8825 H   0  0  0  0  0  0  0  0  0  0  0  0
    3.9396    8.1200   -0.5053 H   0  0  0  0  0  0  0  0  0  0  0  0
    5.6998    6.9357   -1.9676 H   0  0  0  0  0  0  0  0  0  0  0  0
    8.7814    5.3502   -1.4871 H   0  0  0  0  0  0  0  0  0  0  0  0
    7.4337    7.5487    0.2186 H   0  0  0  0  0  0  0  0  0  0  0  0
    7.9775    7.6962   -1.5045 H   0  0  0  0  0  0  0  0  0  0  0  0
    9.1868    7.4562   -0.1933 H   0  0  0  0  0  0  0  0  0  0  0  0
    7.6289    5.0074    1.3168 H   0  0  0  0  0  0  0  0  0  0  0  0
   10.8306    5.7058   -0.1693 H   0  0  0  0  0  0  0  0  0  0  0  0
   12.2055    3.4680    1.4258 H   0  0  0  0  0  0  0  0  0  0  0  0
   11.9276    5.1673    1.9688 H   0  0  0  0  0  0  0  0  0  0  0  0
   13.0025    4.8353    0.5596 H   0  0  0  0  0  0  0  0  0  0  0  0
   11.5590    4.2915   -1.8901 H   0  0  0  0  0  0  0  0  0  0  0  0
   11.5349    0.5737   -1.8089 H   0  0  0  0  0  0  0  0  0  0  0  0
   13.9406    1.0431   -1.3939 H   0  0  0  0  0  0  0  0  0  0  0  0
   13.2243    2.3436   -2.3968 H   0  0  0  0  0  0  0  0  0  0  0  0
   13.5365    2.6259   -0.6378 H   0  0  0  0  0  0  0  0  0  0  0  0
   11.2971    1.3345    1.0399 H   0  0  0  0  0  0  0  0  0  0  0  0
   12.9124   -1.1098   -1.3215 H   0  0  0  0  0  0  0  0  0  0  0  0
   14.9533   -2.2388   -0.6692 H   0  0  0  0  0  0  0  0  0  0  0  0
   14.9126   -0.7156    0.2665 H   0  0  0  0  0  0  0  0  0  0  0  0
   14.4701   -2.2727    1.0703 H   0  0  0  0  0  0  0  0  0  0  0  0
   11.1994   -2.7001    0.1539 H   0  0  0  0  0  0  0  0  0  0  0  0
   11.4052   -5.7071   -1.1702 H   0  0  0  0  0  0  0  0  0  0  0  0
   13.6771   -6.5546   -1.0505 H   0  0  0  0  0  0  0  0  0  0  0  0
   13.8751   -5.9490    0.6436 H   0  0  0  0  0  0  0  0  0  0  0  0
   12.7042   -7.2742    0.2761 H   0  0  0  0  0  0  0  0  0  0  0  0
   11.7612   -5.0186    1.7760 H   0  0  0  0  0  0  0  0  0  0  0  0
    9.5919   -4.4787   -1.1697 H   0  0  0  0  0  0  0  0  0  0  0  0
    7.7420   -6.6002    0.1046 H   0  0  0  0  0  0  0  0  0  0  0  0
    7.7655   -6.1123   -1.6409 H   0  0  0  0  0  0  0  0  0  0  0  0
    9.1872   -6.9244   -0.9125 H   0  0  0  0  0  0  0  0  0  0  0  0
    8.2977   -2.8467    0.1466 H   0  0  0  0  0  0  0  0  0  0  0  0
   -1.1990    4.0895    0.9274 H   0  0  0  0  0  0  0  0  0  0  0  0
   -3.4973    4.2335    0.6010 H   0  0  0  0  0  0  0  0  0  0  0  0
   -3.4816    2.4888   -1.1742 H   0  0  0  0  0  0  0  0  0  0  0  0
   -3.2276    3.7824   -2.4066 H   0  0  0  0  0  0  0  0  0  0  0  0
   -4.7106    3.7896   -1.3890 H   0  0  0  0  0  0  0  0  0  0  0  0
   -3.4552    7.8829   -0.1933 H   0  0  0  0  0  0  0  0  0  0  0  0
   -4.6693    7.7015    1.7253 H   0  0  0  0  0  0  0  0  0  0  0  0
   -2.4937    7.1014    2.6354 H   0  0  0  0  0  0  0  0  0  0  0  0
   -3.8353    6.3001    3.5185 H   0  0  0  0  0  0  0  0  0  0  0  0
   -2.8152    5.3549    2.3845 H   0  0  0  0  0  0  0  0  0  0  0  0
   -7.0151    5.0521    0.0683 H   0  0  0  0  0  0  0  0  0  0  0  0
   -5.6600    7.2399   -1.2060 H   0  0  0  0  0  0  0  0  0  0  0  0
   -6.0408    8.8296    0.4763 H   0  0  0  0  0  0  0  0  0  0  0  0
   -7.6074    8.1146    0.9733 H   0  0  0  0  0  0  0  0  0  0  0  0
   -7.4516    9.0800   -0.5495 H   0  0  0  0  0  0  0  0  0  0  0  0
   -8.9797    5.2354   -2.3057 H   0  0  0  0  0  0  0  0  0  0  0  0
  -10.7987    5.6187   -0.9972 H   0  0  0  0  0  0  0  0  0  0  0  0
  -11.3388    7.7679   -0.1476 H   0  0  0  0  0  0  0  0  0  0  0  0
  -10.5158    7.9729   -1.7368 H   0  0  0  0  0  0  0  0  0  0  0  0
   -9.6389    8.3370   -0.2038 H   0  0  0  0  0  0  0  0  0  0  0  0
   -9.0452    4.0223    1.9508 H   0  0  0  0  0  0  0  0  0  0  0  0
  -10.3393    3.4550   -0.7069 H   0  0  0  0  0  0  0  0  0  0  0  0
  -12.4913    2.9108    0.2176 H   0  0  0  0  0  0  0  0  0  0  0  0
  -11.8616    2.9284    1.9215 H   0  0  0  0  0  0  0  0  0  0  0  0
  -12.0845    4.4494    0.9959 H   0  0  0  0  0  0  0  0  0  0  0  0
  -10.1228    0.0783    1.6366 H   0  0  0  0  0  0  0  0  0  0  0  0
  -11.8455    0.9658   -0.7244 H   0  0  0  0  0  0  0  0  0  0  0  0
  -12.6596   -0.6521    1.7803 H   0  0  0  0  0  0  0  0  0  0  0  0
  -13.6482   -0.5054    0.2694 H   0  0  0  0  0  0  0  0  0  0  0  0
  -13.2809    0.9434    1.2648 H   0  0  0  0  0  0  0  0  0  0  0  0
  -11.5720   -2.4840    0.8809 H   0  0  0  0  0  0  0  0  0  0  0  0
  -11.0346   -3.6355   -1.7342 H   0  0  0  0  0  0  0  0  0  0  0  0
  -12.7889   -2.1942   -2.6174 H   0  0  0  0  0  0  0  0  0  0  0  0
  -13.4021   -3.8815   -2.5711 H   0  0  0  0  0  0  0  0  0  0  0  0
  -13.9309   -2.6932   -1.3152 H   0  0  0  0  0  0  0  0  0  0  0  0
  -12.0634   -6.7520    0.0853 H   0  0  0  0  0  0  0  0  0  0  0  0
   -9.7496   -5.2934   -1.1709 H   0  0  0  0  0  0  0  0  0  0  0  0
   -9.9410   -6.7038   -3.2754 H   0  0  0  0  0  0  0  0  0  0  0  0
  -11.5239   -7.3431   -2.6826 H   0  0  0  0  0  0  0  0  0  0  0  0
  -11.3328   -5.5945   -3.0767 H   0  0  0  0  0  0  0  0  0  0  0  0
   -7.7078   -8.0526   -0.0096 H   0  0  0  0  0  0  0  0  0  0  0  0
   -7.8927   -5.9488   -2.2122 H   0  0  0  0  0  0  0  0  0  0  0  0
   -6.3756   -8.6297   -2.1581 H   0  0  0  0  0  0  0  0  0  0  0  0
   -7.7982   -8.1977   -3.1891 H   0  0  0  0  0  0  0  0  0  0  0  0
   -6.2237   -7.3434   -3.4313 H   0  0  0  0  0  0  0  0  0  0  0  0
   -4.3011   -7.1446   -1.1031 H   0  0  0  0  0  0  0  0  0  0  0  0
   -5.8713   -6.6497    1.4875 H   0  0  0  0  0  0  0  0  0  0  0  0
   -3.7029   -9.2264   -0.3363 H   0  0  0  0  0  0  0  0  0  0  0  0
   -4.3764  -10.5781    0.6315 H   0  0  0  0  0  0  0  0  0  0  0  0
   -3.7274   -6.8487    2.6694 H   0  0  0  0  0  0  0  0  0  0  0  0
   -2.8331   -7.1275    1.1655 H   0  0  0  0  0  0  0  0  0  0  0  0
   -2.1772   -5.6926   -0.3589 H   0  0  0  0  0  0  0  0  0  0  0  0
   -3.0296   -4.2196   -0.8491 H   0  0  0  0  0  0  0  0  0  0  0  0
  1  2  1  0
  2  3  2  0
  2  4  1  0
  4  5  1  0
  5  6  1  0
  6  7  1  0
  7  8  1  0
  8  9  1  0
  9 10  2  0
 10 11  1  0
 11 12  2  0
 12 13  1  0
 13 14  2  0
 13 15  1  0
 15 16  1  0
 16 17  1  0
 17 18  1  0
 18 19  1  0
 19 20  1  0
 20 21  2  0
 20 22  1  0
 22 23  1  0
 22 24  1  0
 24 25  1  0
 25 26  2  0
 25 27  1  0
 27 28  1  0
 27 29  1  0
 29 30  1  0
 30 31  2  0
 30 32  1  0
 32 33  1  0
 32 34  1  0
 34 35  1  0
 35 36  2  0
 35 37  1  0
 37 38  1  0
 37 39  1  0
 39 40  1  0
 40 41  2  0
 40 42  1  0
 42 43  1  0
 42 44  1  0
 44 45  1  0
 45 46  2  0
 45 47  1  0
 47 48  1  0
 47 49  1  0
 49 50  1  0
 50 51  2  0
 50 52  1  0
 52 53  1  0
 52 54  1  0
 54 55  1  0
 55 56  2  0
 55 57  1  0
 57 58  1  0
 57 59  1  0
 59 60  1  0
 60 61  2  0
 18 62  1  0
 62 63  2  0
 62 64  1  0
 64 65  1  0
 65 66  1  0
 65 67  1  0
 67 68  2  0
 67 69  1  0
 69 70  1  0
 70 71  1  0
 70 72  1  0
 72 73  2  0
 72 74  1  0
 74 75  1  0
 75 76  1  0
 75 77  1  0
 77 78  2  0
 77 79  1  0
 79 80  1  0
 80 81  1  0
 80 82  1  0
 82 83  2  0
 82 84  1  0
 84 85  1  0
 85 86  1  0
 85 87  1  0
 87 88  2  0
 87 89  1  0
 89 90  1  0
 90 91  1  0
 90 92  1  0
 92 93  2  0
 92 94  1  0
 94 95  1  0
 95 96  1  0
 95 97  1  0
 97 98  2  0
 97 99  1  0
 99100  1  0
100101  1  0
100102  1  0
102103  2  0
102104  1  0
104105  1  0
105106  1  0
105107  1  0
107108  2  0
107109  1  0
109110  1  0
110111  1  0
111112  1  0
111113  2  0
110114  1  0
114115  1  0
115116  1  0
 60  5  1  0
 14  9  1  0
116 11  1  0
  1117  1  0
  1118  1  0
  1119  1  0
  4120  1  0
  5121  1  1
  6122  1  0
  6123  1  0
  8124  1  0
  8125  1  0
 10126  1  0
 12127  1  0
 14128  1  0
 15129  1  0
 15130  1  0
 17131  1  0
 17132  1  0
 18133  1  6
 19134  1  0
 22135  1  1
 23136  1  0
 23137  1  0
 23138  1  0
 24139  1  0
 27140  1  6
 28141  1  0
 28142  1  0
 28143  1  0
 29144  1  0
 32145  1  6
 33146  1  0
 33147  1  0
 33148  1  0
 34149  1  0
 37150  1  6
 38151  1  0
 38152  1  0
 38153  1  0
 39154  1  0
 42155  1  6
 43156  1  0
 43157  1  0
 43158  1  0
 44159  1  0
 47160  1  6
 48161  1  0
 48162  1  0
 48163  1  0
 49164  1  0
 52165  1  6
 53166  1  0
 53167  1  0
 53168  1  0
 54169  1  0
 57170  1  6
 58171  1  0
 58172  1  0
 58173  1  0
 59174  1  0
 64175  1  0
 65176  1  1
 66177  1  0
 66178  1  0
 66179  1  0
 69180  1  0
 70181  1  1
 71182  1  0
 71183  1  0
 71184  1  0
 74185  1  0
 75186  1  6
 76187  1  0
 76188  1  0
 76189  1  0
 79190  1  0
 80191  1  6
 81192  1  0
 81193  1  0
 81194  1  0
 84195  1  0
 85196  1  6
 86197  1  0
 86198  1  0
 86199  1  0
 89200  1  0
 90201  1  6
 91202  1  0
 91203  1  0
 91204  1  0
 94205  1  0
 95206  1  6
 96207  1  0
 96208  1  0
 96209  1  0
 99210  1  0
100211  1  6
101212  1  0
101213  1  0
101214  1  0
104215  1  0
105216  1  6
106217  1  0
106218  1  0
106219  1  0
109220  1  0
110221  1  1
112222  1  0
112223  1  0
114224  1  0
114225  1  0
116226  1  0
116227  1  0
M  END
