
     RDKit          3D

237239  0  0  0  0  0  0  0  0999 V2000
    5.3431  -10.1445   -0.1772 C   0  0  0  0  0  0  0  0  0  0  0  0
    5.8199   -8.8241    0.3371 C   0  0  0  0  0  0  0  0  0  0  0  0
    7.0272   -8.6884    0.6726 O   0  0  0  0  0  0  0  0  0  0  0  0
    4.8936   -7.7385    0.4889 N   0  0  0  0  0  0  0  0  0  0  0  0
    5.3092   -6.3311    0.5508 C   0  0  1  0  0  0  0  0  0  0  0  0
    4.0788   -5.4165    0.6930 C   0  0  0  0  0  0  0  0  0  0  0  0
    4.5519   -3.6435    0.7313 S   0  0  0  0  0  0  0  0  0  0  0  0
    2.9584   -3.0113    1.3633 C   0  0  0  0  0  0  0  0  0  0  0  0
    2.0161   -2.6725    0.2434 C   0  0  0  0  0  0  0  0  0  0  0  0
    1.1950   -3.6578   -0.3236 C   0  0  0  0  0  0  0  0  0  0  0  0
    0.3058   -3.3333   -1.3580 C   0  0  0  0  0  0  0  0  0  0  0  0
    0.2355   -2.0129   -1.8194 C   0  0  0  0  0  0  0  0  0  0  0  0
    1.0097   -1.0088   -1.2203 C   0  0  0  0  0  0  0  0  0  0  0  0
    1.9101   -1.3451   -0.2060 C   0  0  0  0  0  0  0  0  0  0  0  0
    0.7661    0.4240   -1.5979 C   0  0  0  0  0  0  0  0  0  0  0  0
   -0.4422    1.1847   -0.4475 S   0  0  0  0  0  0  0  0  0  0  0  0
    0.7603    1.9050    0.7380 C   0  0  0  0  0  0  0  0  0  0  0  0
    0.5947    3.4366    0.7994 C   0  0  2  0  0  0  0  0  0  0  0  0
    1.7111    4.0505    1.5216 N   0  0  0  0  0  0  0  0  0  0  0  0
    3.0655    3.9683    1.0476 C   0  0  0  0  0  0  0  0  0  0  0  0
    3.9099    3.3397    1.7371 O   0  0  0  0  0  0  0  0  0  0  0  0
    3.5390    4.7252   -0.1767 C   0  0  1  0  0  0  0  0  0  0  0  0
    3.0164    4.1389   -1.4934 C   0  0  0  0  0  0  0  0  0  0  0  0
    3.1610    6.1350   -0.0580 N   0  0  0  0  0  0  0  0  0  0  0  0
    4.0797    7.2190   -0.2862 C   0  0  0  0  0  0  0  0  0  0  0  0
    3.7583    8.1174   -1.1107 O   0  0  0  0  0  0  0  0  0  0  0  0
    5.3826    7.3728    0.4805 C   0  0  1  0  0  0  0  0  0  0  0  0
    5.3968    8.7136    1.2315 C   0  0  0  0  0  0  0  0  0  0  0  0
    5.5859    6.2869    1.4503 N   0  0  0  0  0  0  0  0  0  0  0  0
    6.8371    5.5952    1.6519 C   0  0  0  0  0  0  0  0  0  0  0  0
    7.0321    5.0142    2.7583 O   0  0  0  0  0  0  0  0  0  0  0  0
    7.9322    5.5570    0.6057 C   0  0  1  0  0  0  0  0  0  0  0  0
    8.8590    6.7708    0.7906 C   0  0  0  0  0  0  0  0  0  0  0  0
    8.6489    4.2776    0.6761 N   0  0  0  0  0  0  0  0  0  0  0  0
   10.0707    4.1389    0.7967 C   0  0  0  0  0  0  0  0  0  0  0  0
   10.5703    3.7791    1.8997 O   0  0  0  0  0  0  0  0  0  0  0  0
   10.9480    4.2079   -0.4290 C   0  0  1  0  0  0  0  0  0  0  0  0
   12.1617    5.1134   -0.1470 C   0  0  0  0  0  0  0  0  0  0  0  0
   11.3453    2.8500   -0.8081 N   0  0  0  0  0  0  0  0  0  0  0  0
   12.5672    2.5228   -1.4844 C   0  0  0  0  0  0  0  0  0  0  0  0
   12.8810    3.1437   -2.5339 O   0  0  0  0  0  0  0  0  0  0  0  0
   13.4663    1.4470   -0.9409 C   0  0  1  0  0  0  0  0  0  0  0  0
   14.1844    1.9526    0.3089 C   0  0  0  0  0  0  0  0  0  0  0  0
   12.6888    0.2508   -0.6043 N   0  0  0  0  0  0  0  0  0  0  0  0
   12.8742   -0.9775   -1.2990 C   0  0  0  0  0  0  0  0  0  0  0  0
   12.2594   -1.1809   -2.3841 O   0  0  0  0  0  0  0  0  0  0  0  0
   13.7829   -2.0336   -0.7339 C   0  0  1  0  0  0  0  0  0  0  0  0
   15.2507   -1.6725   -0.9673 C   0  0  0  0  0  0  0  0  0  0  0  0
   13.5199   -2.2120    0.6963 N   0  0  0  0  0  0  0  0  0  0  0  0
   12.5090   -3.0719    1.2447 C   0  0  0  0  0  0  0  0  0  0  0  0
   12.2393   -2.9896    2.4743 O   0  0  0  0  0  0  0  0  0  0  0  0
   11.7463   -4.0622    0.3882 C   0  0  1  0  0  0  0  0  0  0  0  0
   12.6184   -5.2916    0.1099 C   0  0  0  0  0  0  0  0  0  0  0  0
   10.5133   -4.4827    1.0568 N   0  0  0  0  0  0  0  0  0  0  0  0
    9.2315   -4.0607    0.5844 C   0  0  0  0  0  0  0  0  0  0  0  0
    8.9983   -2.8251    0.4267 O   0  0  0  0  0  0  0  0  0  0  0  0
    8.1499   -5.0663    0.2967 C   0  0  1  0  0  0  0  0  0  0  0  0
    8.7192   -6.1922   -0.5758 C   0  0  0  0  0  0  0  0  0  0  0  0
    7.5937   -5.6015    1.5489 N   0  0  0  0  0  0  0  0  0  0  0  0
    6.2560   -6.1157    1.7191 C   0  0  0  0  0  0  0  0  0  0  0  0
    5.8644   -6.4196    2.8799 O   0  0  0  0  0  0  0  0  0  0  0  0
   -0.7164    3.8314    1.4541 C   0  0  0  0  0  0  0  0  0  0  0  0
   -1.1850    3.0920    2.3688 O   0  0  0  0  0  0  0  0  0  0  0  0
   -1.4490    5.0198    1.1054 N   0  0  0  0  0  0  0  0  0  0  0  0
   -0.9656    6.1103    0.2521 C   0  0  2  0  0  0  0  0  0  0  0  0
   -0.3402    7.1923    1.1377 C   0  0  0  0  0  0  0  0  0  0  0  0
   -2.1255    6.6174   -0.5681 C   0  0  0  0  0  0  0  0  0  0  0  0
   -2.6756    5.8298   -1.3827 O   0  0  0  0  0  0  0  0  0  0  0  0
   -2.6486    7.9365   -0.4044 N   0  0  0  0  0  0  0  0  0  0  0  0
   -4.0875    8.1954   -0.3534 C   0  0  2  0  0  0  0  0  0  0  0  0
   -4.3452    9.7128   -0.3022 C   0  0  0  0  0  0  0  0  0  0  0  0
   -4.6674    7.5210    0.8704 C   0  0  0  0  0  0  0  0  0  0  0  0
   -4.2560    7.8993    2.0024 O   0  0  0  0  0  0  0  0  0  0  0  0
   -5.5715    6.3936    0.8243 N   0  0  0  0  0  0  0  0  0  0  0  0
   -6.6432    6.0953   -0.1568 C   0  0  2  0  0  0  0  0  0  0  0  0
   -6.0728    5.6228   -1.4993 C   0  0  0  0  0  0  0  0  0  0  0  0
   -7.6566    7.2155   -0.2918 C   0  0  0  0  0  0  0  0  0  0  0  0
   -7.3609    8.3667    0.1303 O   0  0  0  0  0  0  0  0  0  0  0  0
   -8.9847    7.0105   -0.8173 N   0  0  0  0  0  0  0  0  0  0  0  0
   -9.5159    5.7564   -1.3805 C   0  0  2  0  0  0  0  0  0  0  0  0
   -9.4074    5.7980   -2.9087 C   0  0  0  0  0  0  0  0  0  0  0  0
  -10.9586    5.5841   -0.9754 C   0  0  0  0  0  0  0  0  0  0  0  0
  -11.8083    6.4240   -1.3817 O   0  0  0  0  0  0  0  0  0  0  0  0
  -11.4207    4.4586   -0.2021 N   0  0  0  0  0  0  0  0  0  0  0  0
  -10.8049    3.9516    1.0339 C   0  0  2  0  0  0  0  0  0  0  0  0
  -10.2518    5.0963    1.8966 C   0  0  0  0  0  0  0  0  0  0  0  0
   -9.7750    2.8800    0.7309 C   0  0  0  0  0  0  0  0  0  0  0  0
   -8.5486    3.1255    0.9042 O   0  0  0  0  0  0  0  0  0  0  0  0
  -10.1447    1.5729    0.2524 N   0  0  0  0  0  0  0  0  0  0  0  0
  -11.4692    0.9783    0.4399 C   0  0  2  0  0  0  0  0  0  0  0  0
  -11.6545    0.5174    1.8926 C   0  0  0  0  0  0  0  0  0  0  0  0
  -11.6811   -0.1608   -0.5235 C   0  0  0  0  0  0  0  0  0  0  0  0
  -12.2656    0.0708   -1.6184 O   0  0  0  0  0  0  0  0  0  0  0  0
  -11.1311   -1.4732   -0.2602 N   0  0  0  0  0  0  0  0  0  0  0  0
  -11.8480   -2.7556   -0.4346 C   0  0  2  0  0  0  0  0  0  0  0  0
  -13.1290   -2.6143   -1.2717 C   0  0  0  0  0  0  0  0  0  0  0  0
  -12.1727   -3.3304    0.9272 C   0  0  0  0  0  0  0  0  0  0  0  0
  -12.9072   -2.6511    1.7029 O   0  0  0  0  0  0  0  0  0  0  0  0
  -11.6356   -4.5754    1.4096 N   0  0  0  0  0  0  0  0  0  0  0  0
  -11.2882   -5.7365    0.5661 C   0  0  2  0  0  0  0  0  0  0  0  0
  -12.5492   -6.2609   -0.1421 C   0  0  0  0  0  0  0  0  0  0  0  0
  -10.6925   -6.8725    1.3823 C   0  0  0  0  0  0  0  0  0  0  0  0
  -10.9050   -6.9262    2.6282 O   0  0  0  0  0  0  0  0  0  0  0  0
   -9.9961   -7.9730    0.7780 N   0  0  0  0  0  0  0  0  0  0  0  0
   -9.0946   -7.8577   -0.3882 C   0  0  2  0  0  0  0  0  0  0  0  0
   -9.8763   -7.9926   -1.6991 C   0  0  0  0  0  0  0  0  0  0  0  0
   -8.0407   -8.9470   -0.3139 C   0  0  0  0  0  0  0  0  0  0  0  0
   -8.4273  -10.1456   -0.3925 O   0  0  0  0  0  0  0  0  0  0  0  0
   -6.6241   -8.6964   -0.1860 N   0  0  0  0  0  0  0  0  0  0  0  0
   -5.9484   -7.4804    0.2794 C   0  0  2  0  0  0  0  0  0  0  0  0
   -6.5655   -6.9156    1.5637 C   0  0  0  0  0  0  0  0  0  0  0  0
   -5.8347   -6.4439   -0.8191 C   0  0  0  0  0  0  0  0  0  0  0  0
   -6.6597   -6.4494   -1.7753 O   0  0  0  0  0  0  0  0  0  0  0  0
   -4.7991   -5.4417   -0.8133 N   0  0  0  0  0  0  0  0  0  0  0  0
   -3.5125   -5.5785   -0.1111 C   0  0  1  0  0  0  0  0  0  0  0  0
   -2.7527   -6.8037   -0.5872 C   0  0  0  0  0  0  0  0  0  0  0  0
   -2.8701   -7.2793   -1.9278 N   0  0  0  0  0  0  0  0  0  0  0  0
   -2.0023   -7.4186    0.2177 O   0  0  0  0  0  0  0  0  0  0  0  0
   -2.6504   -4.3260   -0.2634 C   0  0  0  0  0  0  0  0  0  0  0  0
   -2.2977   -3.9514   -2.0305 S   0  0  0  0  0  0  0  0  0  0  0  0
   -0.5245   -4.4073   -2.0127 C   0  0  0  0  0  0  0  0  0  0  0  0
    4.5102  -10.5115    0.4582 H   0  0  0  0  0  0  0  0  0  0  0  0
    6.1627  -10.8907   -0.1642 H   0  0  0  0  0  0  0  0  0  0  0  0
    4.9801  -10.0278   -1.2226 H   0  0  0  0  0  0  0  0  0  0  0  0
    3.8711   -7.9620    0.4268 H   0  0  0  0  0  0  0  0  0  0  0  0
    5.7851   -6.0773   -0.4138 H   0  0  0  0  0  0  0  0  0  0  0  0
    3.4103   -5.5736   -0.1798 H   0  0  0  0  0  0  0  0  0  0  0  0
    3.5214   -5.6910    1.6188 H   0  0  0  0  0  0  0  0  0  0  0  0
    2.4851   -3.7235    2.0680 H   0  0  0  0  0  0  0  0  0  0  0  0
    3.1796   -2.1002    1.9598 H   0  0  0  0  0  0  0  0  0  0  0  0
    1.2521   -4.6746    0.0427 H   0  0  0  0  0  0  0  0  0  0  0  0
   -0.4554   -1.7591   -2.6117 H   0  0  0  0  0  0  0  0  0  0  0  0
    2.5139   -0.5710    0.2425 H   0  0  0  0  0  0  0  0  0  0  0  0
    0.3231    0.4770   -2.6110 H   0  0  0  0  0  0  0  0  0  0  0  0
    1.7177    0.9811   -1.6495 H   0  0  0  0  0  0  0  0  0  0  0  0
    1.8085    1.6635    0.4588 H   0  0  0  0  0  0  0  0  0  0  0  0
    0.6022    1.4462    1.7317 H   0  0  0  0  0  0  0  0  0  0  0  0
    0.5769    3.7925   -0.2429 H   0  0  0  0  0  0  0  0  0  0  0  0
    1.5932    4.1715    2.5544 H   0  0  0  0  0  0  0  0  0  0  0  0
    4.6468    4.6395   -0.2210 H   0  0  0  0  0  0  0  0  0  0  0  0
    3.6803    4.4575   -2.3260 H   0  0  0  0  0  0  0  0  0  0  0  0
    3.0159    3.0305   -1.4601 H   0  0  0  0  0  0  0  0  0  0  0  0
    2.0045    4.5112   -1.7345 H   0  0  0  0  0  0  0  0  0  0  0  0
    2.1456    6.3619   -0.1467 H   0  0  0  0  0  0  0  0  0  0  0  0
    6.1925    7.3999   -0.2733 H   0  0  0  0  0  0  0  0  0  0  0  0
    4.5348    8.7798    1.9321 H   0  0  0  0  0  0  0  0  0  0  0  0
    5.3540    9.5643    0.5182 H   0  0  0  0  0  0  0  0  0  0  0  0
    6.3347    8.8028    1.8217 H   0  0  0  0  0  0  0  0  0  0  0  0
    4.8446    6.1378    2.1685 H   0  0  0  0  0  0  0  0  0  0  0  0
    7.4670    5.6112   -0.4022 H   0  0  0  0  0  0  0  0  0  0  0  0
    8.2822    7.7162    0.8174 H   0  0  0  0  0  0  0  0  0  0  0  0
    9.5720    6.8372   -0.0526 H   0  0  0  0  0  0  0  0  0  0  0  0
    9.4212    6.6874    1.7422 H   0  0  0  0  0  0  0  0  0  0  0  0
    8.0826    3.3969    0.7169 H   0  0  0  0  0  0  0  0  0  0  0  0
   10.3600    4.6540   -1.2668 H   0  0  0  0  0  0  0  0  0  0  0  0
   12.7456    5.2806   -1.0752 H   0  0  0  0  0  0  0  0  0  0  0  0
   12.8263    4.6641    0.6191 H   0  0  0  0  0  0  0  0  0  0  0  0
   11.8288    6.1082    0.2201 H   0  0  0  0  0  0  0  0  0  0  0  0
   10.6268    2.0944   -0.7488 H   0  0  0  0  0  0  0  0  0  0  0  0
   14.2319    1.1887   -1.7113 H   0  0  0  0  0  0  0  0  0  0  0  0
   13.4548    2.2641    1.0889 H   0  0  0  0  0  0  0  0  0  0  0  0
   14.8237    1.1556    0.7310 H   0  0  0  0  0  0  0  0  0  0  0  0
   14.8277    2.8198    0.0523 H   0  0  0  0  0  0  0  0  0  0  0  0
   12.0354    0.2640    0.2084 H   0  0  0  0  0  0  0  0  0  0  0  0
   13.5982   -2.9821   -1.2859 H   0  0  0  0  0  0  0  0  0  0  0  0
   15.4622   -1.5803   -2.0565 H   0  0  0  0  0  0  0  0  0  0  0  0
   15.5103   -0.7181   -0.4671 H   0  0  0  0  0  0  0  0  0  0  0  0
   15.9037   -2.4733   -0.5523 H   0  0  0  0  0  0  0  0  0  0  0  0
   14.0162   -1.5777    1.3679 H   0  0  0  0  0  0  0  0  0  0  0  0
   11.4934   -3.5816   -0.5833 H   0  0  0  0  0  0  0  0  0  0  0  0
   12.0779   -5.9747   -0.5797 H   0  0  0  0  0  0  0  0  0  0  0  0
   12.8421   -5.8389    1.0494 H   0  0  0  0  0  0  0  0  0  0  0  0
   13.5731   -5.0113   -0.3741 H   0  0  0  0  0  0  0  0  0  0  0  0
   10.5499   -5.2831    1.7274 H   0  0  0  0  0  0  0  0  0  0  0  0
    7.3520   -4.5417   -0.2738 H   0  0  0  0  0  0  0  0  0  0  0  0
    7.9081   -6.8544   -0.9448 H   0  0  0  0  0  0  0  0  0  0  0  0
    9.4498   -6.8019   -0.0027 H   0  0  0  0  0  0  0  0  0  0  0  0
    9.2244   -5.7684   -1.4624 H   0  0  0  0  0  0  0  0  0  0  0  0
    8.1978   -5.5753    2.4058 H   0  0  0  0  0  0  0  0  0  0  0  0
   -2.3407    5.1814    1.6285 H   0  0  0  0  0  0  0  0  0  0  0  0
   -0.1960    5.7613   -0.4587 H   0  0  0  0  0  0  0  0  0  0  0  0
    0.1289    7.9797    0.5146 H   0  0  0  0  0  0  0  0  0  0  0  0
   -1.1051    7.6543    1.8059 H   0  0  0  0  0  0  0  0  0  0  0  0
    0.4604    6.7484    1.7787 H   0  0  0  0  0  0  0  0  0  0  0  0
   -1.9727    8.7409   -0.3594 H   0  0  0  0  0  0  0  0  0  0  0  0
   -4.5585    7.8185   -1.2820 H   0  0  0  0  0  0  0  0  0  0  0  0
   -5.4309    9.9335   -0.2383 H   0  0  0  0  0  0  0  0  0  0  0  0
   -3.9553   10.1809   -1.2358 H   0  0  0  0  0  0  0  0  0  0  0  0
   -3.8285   10.1727    0.5657 H   0  0  0  0  0  0  0  0  0  0  0  0
   -5.5664    5.7868    1.6762 H   0  0  0  0  0  0  0  0  0  0  0  0
   -7.1858    5.2261    0.2710 H   0  0  0  0  0  0  0  0  0  0  0  0
   -5.9512    6.4547   -2.2187 H   0  0  0  0  0  0  0  0  0  0  0  0
   -6.7478    4.8745   -1.9641 H   0  0  0  0  0  0  0  0  0  0  0  0
   -5.0965    5.1104   -1.3522 H   0  0  0  0  0  0  0  0  0  0  0  0
   -9.5787    7.8649   -0.9220 H   0  0  0  0  0  0  0  0  0  0  0  0
   -8.9417    4.8843   -1.0171 H   0  0  0  0  0  0  0  0  0  0  0  0
   -9.7255    4.8207   -3.3481 H   0  0  0  0  0  0  0  0  0  0  0  0
   -8.3652    6.0052   -3.2294 H   0  0  0  0  0  0  0  0  0  0  0  0
  -10.0559    6.6062   -3.3249 H   0  0  0  0  0  0  0  0  0  0  0  0
  -12.4204    4.1915   -0.3495 H   0  0  0  0  0  0  0  0  0  0  0  0
  -11.6015    3.4876    1.6471 H   0  0  0  0  0  0  0  0  0  0  0  0
   -9.3507    5.5561    1.4469 H   0  0  0  0  0  0  0  0  0  0  0  0
  -11.0320    5.8834    2.0168 H   0  0  0  0  0  0  0  0  0  0  0  0
   -9.9880    4.7169    2.9087 H   0  0  0  0  0  0  0  0  0  0  0  0
   -9.3885    0.9784   -0.1545 H   0  0  0  0  0  0  0  0  0  0  0  0
  -12.2500    1.7349    0.2236 H   0  0  0  0  0  0  0  0  0  0  0  0
  -10.9084   -0.2608    2.1735 H   0  0  0  0  0  0  0  0  0  0  0  0
  -12.6770    0.1075    2.0445 H   0  0  0  0  0  0  0  0  0  0  0  0
  -11.5193    1.3707    2.5905 H   0  0  0  0  0  0  0  0  0  0  0  0
  -10.2122   -1.5139    0.2330 H   0  0  0  0  0  0  0  0  0  0  0  0
  -11.1722   -3.4424   -0.9804 H   0  0  0  0  0  0  0  0  0  0  0  0
  -12.8776   -2.3047   -2.3062 H   0  0  0  0  0  0  0  0  0  0  0  0
  -13.6760   -3.5758   -1.3468 H   0  0  0  0  0  0  0  0  0  0  0  0
  -13.8243   -1.8704   -0.8170 H   0  0  0  0  0  0  0  0  0  0  0  0
  -11.7098   -4.7109    2.4432 H   0  0  0  0  0  0  0  0  0  0  0  0
  -10.5333   -5.4192   -0.1745 H   0  0  0  0  0  0  0  0  0  0  0  0
  -12.3821   -7.2726   -0.5631 H   0  0  0  0  0  0  0  0  0  0  0  0
  -12.8180   -5.5956   -0.9822 H   0  0  0  0  0  0  0  0  0  0  0  0
  -13.3944   -6.3212    0.5725 H   0  0  0  0  0  0  0  0  0  0  0  0
   -9.9530   -8.8544    1.3349 H   0  0  0  0  0  0  0  0  0  0  0  0
   -8.6308   -6.8558   -0.3917 H   0  0  0  0  0  0  0  0  0  0  0  0
   -9.1711   -8.1118   -2.5578 H   0  0  0  0  0  0  0  0  0  0  0  0
  -10.5498   -8.8806   -1.6675 H   0  0  0  0  0  0  0  0  0  0  0  0
  -10.4791   -7.0791   -1.9005 H   0  0  0  0  0  0  0  0  0  0  0  0
   -6.0060   -9.5308   -0.3262 H   0  0  0  0  0  0  0  0  0  0  0  0
   -4.9225   -7.7916    0.5568 H   0  0  0  0  0  0  0  0  0  0  0  0
   -6.7916   -7.7429    2.2738 H   0  0  0  0  0  0  0  0  0  0  0  0
   -5.8485   -6.2188    2.0474 H   0  0  0  0  0  0  0  0  0  0  0  0
   -7.4923   -6.3386    1.3698 H   0  0  0  0  0  0  0  0  0  0  0  0
   -4.9624   -4.6021   -1.4075 H   0  0  0  0  0  0  0  0  0  0  0  0
   -3.7267   -5.7084    0.9778 H   0  0  0  0  0  0  0  0  0  0  0  0
   -2.3494   -8.1373   -2.2160 H   0  0  0  0  0  0  0  0  0  0  0  0
   -3.2875   -6.6724   -2.6583 H   0  0  0  0  0  0  0  0  0  0  0  0
   -3.1965   -3.4613    0.1662 H   0  0  0  0  0  0  0  0  0  0  0  0
   -1.7096   -4.4346    0.3231 H   0  0  0  0  0  0  0  0  0  0  0  0
   -0.4031   -5.3858   -1.5024 H   0  0  0  0  0  0  0  0  0  0  0  0
   -0.1737   -4.5389   -3.0556 H   0  0  0  0  0  0  0  0  0  0  0  0
  1  2  1  0
  2  3  2  0
  2  4  1  0
  4  5  1  0
  5  6  1  0
  6  7  1  0
  7  8  1  0
  8  9  1  0
  9 10  2  0
 10 11  1  0
 11 12  2  0
 12 13  1  0
 13 14  2  0
 13 15  1  0
 15 16  1  0
 16 17  1  0
 17 18  1  0
 18 19  1  0
 19 20  1  0
 20 21  2  0
 20 22  1  0
 22 23  1  0
 22 24  1  0
 24 25  1  0
 25 26  2  0
 25 27  1  0
 27 28  1  0
 27 29  1  0
 29 30  1  0
 30 31  2  0
 30 32  1  0
 32 33  1  0
 32 34  1  0
 34 35  1  0
 35 36  2  0
 35 37  1  0
 37 38  1  0
 37 39  1  0
 39 40  1  0
 40 41  2  0
 40 42  1  0
 42 43  1  0
 42 44  1  0
 44 45  1  0
 45 46  2  0
 45 47  1  0
 47 48  1  0
 47 49  1  0
 49 50  1  0
 50 51  2  0
 50 52  1  0
 52 53  1  0
 52 54  1  0
 54 55  1  0
 55 56  2  0
 55 57  1  0
 57 58  1  0
 57 59  1  0
 59 60  1  0
 60 61  2  0
 18 62  1  0
 62 63  2  0
 62 64  1  0
 64 65  1  0
 65 66  1  0
 65 67  1  0
 67 68  2  0
 67 69  1  0
 69 70  1  0
 70 71  1  0
 70 72  1  0
 72 73  2  0
 72 74  1  0
 74 75  1  0
 75 76  1  0
 75 77  1  0
 77 78  2  0
 77 79  1  0
 79 80  1  0
 80 81  1  0
 80 82  1  0
 82 83  2  0
 82 84  1  0
 84 85  1  0
 85 86  1  0
 85 87  1  0
 87 88  2  0
 87 89  1  0
 89 90  1  0
 90 91  1  0
 90 92  1  0
 92 93  2  0
 92 94  1  0
 94 95  1  0
 95 96  1  0
 95 97  1  0
 97 98  2  0
 97 99  1  0
 99100  1  0
100101  1  0
100102  1  0
102103  2  0
102104  1  0
104105  1  0
105106  1  0
105107  1  0
107108  2  0
107109  1  0
109110  1  0
110111  1  0
110112  1  0
112113  2  0
112114  1  0
114115  1  0
115116  1  0
116117  1  0
116118  2  0
115119  1  0
119120  1  0
120121  1  0
 60  5  1  0
 14  9  1  0
121 11  1  0
  1122  1  0
  1123  1  0
  1124  1  0
  4125  1  0
  5126  1  6
  6127  1  0
  6128  1  0
  8129  1  0
  8130  1  0
 10131  1  0
 12132  1  0
 14133  1  0
 15134  1  0
 15135  1  0
 17136  1  0
 17137  1  0
 18138  1  6
 19139  1  0
 22140  1  6
 23141  1  0
 23142  1  0
 23143  1  0
 24144  1  0
 27145  1  6
 28146  1  0
 28147  1  0
 28148  1  0
 29149  1  0
 32150  1  6
 33151  1  0
 33152  1  0
 33153  1  0
 34154  1  0
 37155  1  6
 38156  1  0
 38157  1  0
 38158  1  0
 39159  1  0
 42160  1  6
 43161  1  0
 43162  1  0
 43163  1  0
 44164  1  0
 47165  1  6
 48166  1  0
 48167  1  0
 48168  1  0
 49169  1  0
 52170  1  6
 53171  1  0
 53172  1  0
 53173  1  0
 54174  1  0
 57175  1  6
 58176  1  0
 58177  1  0
 58178  1  0
 59179  1  0
 64180  1  0
 65181  1  6
 66182  1  0
 66183  1  0
 66184  1  0
 69185  1  0
 70186  1  6
 71187  1  0
 71188  1  0
 71189  1  0
 74190  1  0
 75191  1  1
 76192  1  0
 76193  1  0
 76194  1  0
 79195  1  0
 80196  1  1
 81197  1  0
 81198  1  0
 81199  1  0
 84200  1  0
 85201  1  1
 86202  1  0
 86203  1  0
 86204  1  0
 89205  1  0
 90206  1  6
 91207  1  0
 91208  1  0
 91209  1  0
 94210  1  0
 95211  1  6
 96212  1  0
 96213  1  0
 96214  1  0
 99215  1  0
100216  1  6
101217  1  0
101218  1  0
101219  1  0
104220  1  0
105221  1  6
106222  1  0
106223  1  0
106224  1  0
109225  1  0
110226  1  1
111227  1  0
111228  1  0
111229  1  0
114230  1  0
115231  1  1
117232  1  0
117233  1  0
119234  1  0
119235  1  0
121236  1  0
121237  1  0
M  END
