
     RDKit          3D

217219  0  0  0  0  0  0  0  0999 V2000
    2.9812   -9.5951    0.4688 C   0  0  0  0  0  0  0  0  0  0  0  0
    3.4565   -8.1952    0.6806 C   0  0  0  0  0  0  0  0  0  0  0  0
    3.1552   -7.5766    1.7370 O   0  0  0  0  0  0  0  0  0  0  0  0
    4.3069   -7.5765   -0.2932 N   0  0  0  0  0  0  0  0  0  0  0  0
    3.8311   -6.5226   -1.2044 C   0  0  1  0  0  0  0  0  0  0  0  0
    3.0175   -5.4305   -0.4819 C   0  0  0  0  0  0  0  0  0  0  0  0
    1.2600   -5.9071   -0.2410 S   0  0  0  0  0  0  0  0  0  0  0  0
    0.6611   -5.4789   -1.9174 C   0  0  0  0  0  0  0  0  0  0  0  0
   -0.0535   -4.1527   -1.8835 C   0  0  0  0  0  0  0  0  0  0  0  0
   -1.4516   -4.0990   -1.8088 C   0  0  0  0  0  0  0  0  0  0  0  0
   -2.1169   -2.8703   -1.6908 C   0  0  0  0  0  0  0  0  0  0  0  0
   -1.3690   -1.6812   -1.6749 C   0  0  0  0  0  0  0  0  0  0  0  0
    0.0322   -1.7170   -1.8055 C   0  0  0  0  0  0  0  0  0  0  0  0
    0.6756   -2.9561   -1.9105 C   0  0  0  0  0  0  0  0  0  0  0  0
    0.8926   -0.4724   -1.7332 C   0  0  0  0  0  0  0  0  0  0  0  0
    0.0610    1.0361   -2.3451 S   0  0  0  0  0  0  0  0  0  0  0  0
   -0.3237    1.7185   -0.6936 C   0  0  0  0  0  0  0  0  0  0  0  0
   -0.8674    3.1486   -0.8290 C   0  0  2  0  0  0  0  0  0  0  0  0
    0.1336    4.0421   -1.4226 N   0  0  0  0  0  0  0  0  0  0  0  0
    1.5155    4.0995   -1.0307 C   0  0  0  0  0  0  0  0  0  0  0  0
    2.4013    3.9248   -1.9075 O   0  0  0  0  0  0  0  0  0  0  0  0
    1.9317    4.4837    0.3718 C   0  0  1  0  0  0  0  0  0  0  0  0
    2.9568    3.5048    0.9613 C   0  0  0  0  0  0  0  0  0  0  0  0
    2.4266    5.8636    0.3917 N   0  0  0  0  0  0  0  0  0  0  0  0
    3.5339    6.3138   -0.4015 C   0  0  0  0  0  0  0  0  0  0  0  0
    3.3051    6.9688   -1.4524 O   0  0  0  0  0  0  0  0  0  0  0  0
    4.9645    6.0675    0.0297 C   0  0  1  0  0  0  0  0  0  0  0  0
    5.6635    5.1645   -0.9930 C   0  0  0  0  0  0  0  0  0  0  0  0
    5.6733    7.3528    0.1523 N   0  0  0  0  0  0  0  0  0  0  0  0
    6.8993    7.6405    0.8611 C   0  0  0  0  0  0  0  0  0  0  0  0
    7.2715    8.8450    0.9073 O   0  0  0  0  0  0  0  0  0  0  0  0
    7.8152    6.6184    1.5131 C   0  0  1  0  0  0  0  0  0  0  0  0
    7.1113    5.6392    2.4587 C   0  0  0  0  0  0  0  0  0  0  0  0
    8.6198    5.9038    0.5126 N   0  0  0  0  0  0  0  0  0  0  0  0
    9.7836    5.1569    0.8904 C   0  0  0  0  0  0  0  0  0  0  0  0
   10.5379    5.6012    1.7982 O   0  0  0  0  0  0  0  0  0  0  0  0
   10.1005    3.8418    0.2210 C   0  0  1  0  0  0  0  0  0  0  0  0
   10.4566    4.0359   -1.2610 C   0  0  0  0  0  0  0  0  0  0  0  0
   11.1555    3.1296    0.9608 N   0  0  0  0  0  0  0  0  0  0  0  0
   12.5107    3.0174    0.5145 C   0  0  0  0  0  0  0  0  0  0  0  0
   13.3287    3.9390    0.7812 O   0  0  0  0  0  0  0  0  0  0  0  0
   12.9739    1.7595   -0.1705 C   0  0  1  0  0  0  0  0  0  0  0  0
   13.8599    2.0796   -1.3789 C   0  0  0  0  0  0  0  0  0  0  0  0
   13.7167    0.9258    0.7826 N   0  0  0  0  0  0  0  0  0  0  0  0
   13.3630   -0.4026    1.2163 C   0  0  0  0  0  0  0  0  0  0  0  0
   14.2179   -1.0607    1.8729 O   0  0  0  0  0  0  0  0  0  0  0  0
   12.0155   -1.0515    0.9522 C   0  0  1  0  0  0  0  0  0  0  0  0
   10.8762   -0.1963    1.5344 C   0  0  0  0  0  0  0  0  0  0  0  0
   11.8413   -1.3278   -0.4830 N   0  0  0  0  0  0  0  0  0  0  0  0
   10.8654   -2.2220   -1.0543 C   0  0  0  0  0  0  0  0  0  0  0  0
   10.9412   -2.4842   -2.2854 O   0  0  0  0  0  0  0  0  0  0  0  0
    9.7073   -2.7956   -0.2716 C   0  0  1  0  0  0  0  0  0  0  0  0
    8.4689   -1.8985   -0.4346 C   0  0  0  0  0  0  0  0  0  0  0  0
    9.4529   -4.1789   -0.6964 N   0  0  0  0  0  0  0  0  0  0  0  0
    8.2982   -4.5932   -1.4397 C   0  0  0  0  0  0  0  0  0  0  0  0
    8.1767   -4.2362   -2.6451 O   0  0  0  0  0  0  0  0  0  0  0  0
    7.2814   -5.5349   -0.8438 C   0  0  1  0  0  0  0  0  0  0  0  0
    7.4031   -5.6327    0.6823 C   0  0  0  0  0  0  0  0  0  0  0  0
    5.9324   -5.0853   -1.1799 N   0  0  0  0  0  0  0  0  0  0  0  0
    5.0212   -5.9180   -1.8973 C   0  0  0  0  0  0  0  0  0  0  0  0
    5.2519   -6.1919   -3.1059 O   0  0  0  0  0  0  0  0  0  0  0  0
   -1.3980    3.7052    0.4787 C   0  0  0  0  0  0  0  0  0  0  0  0
   -1.2195    3.0544    1.5444 O   0  0  0  0  0  0  0  0  0  0  0  0
   -2.1506    4.9278    0.5452 N   0  0  0  0  0  0  0  0  0  0  0  0
   -2.3349    5.8835   -0.5588 C   0  0  2  0  0  0  0  0  0  0  0  0
   -3.0735    7.1350   -0.0827 C   0  0  0  0  0  0  0  0  0  0  0  0
   -3.0629    5.2867   -1.7435 C   0  0  0  0  0  0  0  0  0  0  0  0
   -2.6639    5.6118   -2.8948 O   0  0  0  0  0  0  0  0  0  0  0  0
   -4.1649    4.3626   -1.6443 N   0  0  0  0  0  0  0  0  0  0  0  0
   -4.9810    4.0922   -0.4542 C   0  0  2  0  0  0  0  0  0  0  0  0
   -5.0025    2.5812   -0.1917 C   0  0  0  0  0  0  0  0  0  0  0  0
   -6.3738    4.6202   -0.6763 C   0  0  0  0  0  0  0  0  0  0  0  0
   -7.0398    4.2051   -1.6661 O   0  0  0  0  0  0  0  0  0  0  0  0
   -6.9222    5.6663    0.1359 N   0  0  0  0  0  0  0  0  0  0  0  0
   -7.2257    5.5442    1.5723 C   0  0  2  0  0  0  0  0  0  0  0  0
   -6.0698    6.0970    2.4200 C   0  0  0  0  0  0  0  0  0  0  0  0
   -7.6242    4.1326    1.9634 C   0  0  0  0  0  0  0  0  0  0  0  0
   -6.8688    3.4656    2.7240 O   0  0  0  0  0  0  0  0  0  0  0  0
   -8.8644    3.5386    1.5405 N   0  0  0  0  0  0  0  0  0  0  0  0
   -9.8698    4.2163    0.7127 C   0  0  2  0  0  0  0  0  0  0  0  0
  -10.8818    4.9173    1.6210 C   0  0  0  0  0  0  0  0  0  0  0  0
  -10.5889    3.2657   -0.2245 C   0  0  0  0  0  0  0  0  0  0  0  0
  -11.4378    3.7462   -1.0247 O   0  0  0  0  0  0  0  0  0  0  0  0
  -10.3330    1.8464   -0.2340 N   0  0  0  0  0  0  0  0  0  0  0  0
  -11.2531    0.8951   -0.8770 C   0  0  2  0  0  0  0  0  0  0  0  0
  -12.6143    0.8906   -0.1653 C   0  0  0  0  0  0  0  0  0  0  0  0
  -10.6361   -0.4873   -0.9274 C   0  0  0  0  0  0  0  0  0  0  0  0
  -10.4260   -1.0224   -2.0484 O   0  0  0  0  0  0  0  0  0  0  0  0
  -10.1821   -1.1569    0.2566 N   0  0  0  0  0  0  0  0  0  0  0  0
  -11.1003   -1.7930    1.2045 C   0  0  2  0  0  0  0  0  0  0  0  0
  -10.3415   -2.4449    2.3649 C   0  0  0  0  0  0  0  0  0  0  0  0
  -12.0184   -2.7714    0.5033 C   0  0  0  0  0  0  0  0  0  0  0  0
  -13.2553   -2.6922    0.7278 O   0  0  0  0  0  0  0  0  0  0  0  0
  -11.5600   -3.7388   -0.4634 N   0  0  0  0  0  0  0  0  0  0  0  0
  -10.2615   -4.4216   -0.4044 C   0  0  2  0  0  0  0  0  0  0  0  0
   -9.9405   -5.0368   -1.7746 C   0  0  0  0  0  0  0  0  0  0  0  0
  -10.3130   -5.5082    0.6448 C   0  0  0  0  0  0  0  0  0  0  0  0
  -11.3608   -6.2027    0.7553 O   0  0  0  0  0  0  0  0  0  0  0  0
   -9.2173   -5.7591    1.5338 N   0  0  0  0  0  0  0  0  0  0  0  0
   -7.8244   -5.8203    1.0776 C   0  0  2  0  0  0  0  0  0  0  0  0
   -7.5622   -7.2302    0.5420 C   0  0  0  0  0  0  0  0  0  0  0  0
   -6.8725   -5.4823    2.2124 C   0  0  0  0  0  0  0  0  0  0  0  0
   -7.3179   -5.4135    3.3886 O   0  0  0  0  0  0  0  0  0  0  0  0
   -5.4546   -5.3139    2.0221 N   0  0  0  0  0  0  0  0  0  0  0  0
   -4.7773   -5.0189    0.7486 C   0  0  2  0  0  0  0  0  0  0  0  0
   -4.1710   -6.2821    0.2032 C   0  0  0  0  0  0  0  0  0  0  0  0
   -4.3767   -6.6580   -1.1647 N   0  0  0  0  0  0  0  0  0  0  0  0
   -3.4803   -7.0235    0.9516 O   0  0  0  0  0  0  0  0  0  0  0  0
   -3.6722   -3.9518    0.9655 C   0  0  0  0  0  0  0  0  0  0  0  0
   -4.0914   -2.3566    0.1646 S   0  0  0  0  0  0  0  0  0  0  0  0
   -3.6141   -2.8242   -1.5386 C   0  0  0  0  0  0  0  0  0  0  0  0
    3.8496  -10.2758    0.3357 H   0  0  0  0  0  0  0  0  0  0  0  0
    2.3800   -9.9405    1.3363 H   0  0  0  0  0  0  0  0  0  0  0  0
    2.3499   -9.6315   -0.4440 H   0  0  0  0  0  0  0  0  0  0  0  0
    5.0924   -8.1717   -0.6432 H   0  0  0  0  0  0  0  0  0  0  0  0
    3.1921   -7.0044   -1.9817 H   0  0  0  0  0  0  0  0  0  0  0  0
    3.4702   -5.2129    0.5111 H   0  0  0  0  0  0  0  0  0  0  0  0
    3.0587   -4.4837   -1.0539 H   0  0  0  0  0  0  0  0  0  0  0  0
    1.4829   -5.4609   -2.6638 H   0  0  0  0  0  0  0  0  0  0  0  0
   -0.0379   -6.2864   -2.2260 H   0  0  0  0  0  0  0  0  0  0  0  0
   -2.0208   -5.0165   -1.7920 H   0  0  0  0  0  0  0  0  0  0  0  0
   -1.8924   -0.7413   -1.5549 H   0  0  0  0  0  0  0  0  0  0  0  0
    1.7526   -2.9827   -1.9984 H   0  0  0  0  0  0  0  0  0  0  0  0
    1.2639   -0.3568   -0.6906 H   0  0  0  0  0  0  0  0  0  0  0  0
    1.7886   -0.6100   -2.3738 H   0  0  0  0  0  0  0  0  0  0  0  0
   -1.0844    1.0648   -0.2136 H   0  0  0  0  0  0  0  0  0  0  0  0
    0.5857    1.7224   -0.0526 H   0  0  0  0  0  0  0  0  0  0  0  0
   -1.7319    3.0739   -1.5222 H   0  0  0  0  0  0  0  0  0  0  0  0
   -0.0798    4.4096   -2.3767 H   0  0  0  0  0  0  0  0  0  0  0  0
    1.0468    4.4373    1.0349 H   0  0  0  0  0  0  0  0  0  0  0  0
    2.4939    2.5069    1.1120 H   0  0  0  0  0  0  0  0  0  0  0  0
    3.8348    3.3764    0.2961 H   0  0  0  0  0  0  0  0  0  0  0  0
    3.3078    3.8719    1.9493 H   0  0  0  0  0  0  0  0  0  0  0  0
    1.7300    6.5919    0.6606 H   0  0  0  0  0  0  0  0  0  0  0  0
    4.9144    5.5795    1.0150 H   0  0  0  0  0  0  0  0  0  0  0  0
    6.4837    4.5967   -0.5119 H   0  0  0  0  0  0  0  0  0  0  0  0
    6.0729    5.7714   -1.8293 H   0  0  0  0  0  0  0  0  0  0  0  0
    4.9662    4.4189   -1.4237 H   0  0  0  0  0  0  0  0  0  0  0  0
    5.2224    8.1900   -0.2872 H   0  0  0  0  0  0  0  0  0  0  0  0
    8.5170    7.2047    2.1505 H   0  0  0  0  0  0  0  0  0  0  0  0
    6.7458    4.7418    1.9206 H   0  0  0  0  0  0  0  0  0  0  0  0
    6.2730    6.1379    2.9927 H   0  0  0  0  0  0  0  0  0  0  0  0
    7.8344    5.2819    3.2215 H   0  0  0  0  0  0  0  0  0  0  0  0
    8.3166    5.8885   -0.4841 H   0  0  0  0  0  0  0  0  0  0  0  0
    9.1847    3.2149    0.2597 H   0  0  0  0  0  0  0  0  0  0  0  0
   11.3262    4.7205   -1.3724 H   0  0  0  0  0  0  0  0  0  0  0  0
   10.7015    3.0550   -1.7196 H   0  0  0  0  0  0  0  0  0  0  0  0
    9.5929    4.4528   -1.8168 H   0  0  0  0  0  0  0  0  0  0  0  0
   10.9622    2.8684    1.9544 H   0  0  0  0  0  0  0  0  0  0  0  0
   12.0875    1.2295   -0.5593 H   0  0  0  0  0  0  0  0  0  0  0  0
   14.7644    2.6446   -1.0672 H   0  0  0  0  0  0  0  0  0  0  0  0
   14.1864    1.1364   -1.8635 H   0  0  0  0  0  0  0  0  0  0  0  0
   13.2940    2.6802   -2.1222 H   0  0  0  0  0  0  0  0  0  0  0  0
   14.6125    1.3193    1.1532 H   0  0  0  0  0  0  0  0  0  0  0  0
   12.0180   -2.0255    1.4974 H   0  0  0  0  0  0  0  0  0  0  0  0
   10.4738    0.5123    0.7861 H   0  0  0  0  0  0  0  0  0  0  0  0
   10.0423   -0.8386    1.8745 H   0  0  0  0  0  0  0  0  0  0  0  0
   11.2193    0.3716    2.4249 H   0  0  0  0  0  0  0  0  0  0  0  0
   12.5674   -0.9710   -1.1445 H   0  0  0  0  0  0  0  0  0  0  0  0
    9.9589   -2.8395    0.8040 H   0  0  0  0  0  0  0  0  0  0  0  0
    8.1661   -1.8264   -1.5000 H   0  0  0  0  0  0  0  0  0  0  0  0
    7.6207   -2.3061    0.1571 H   0  0  0  0  0  0  0  0  0  0  0  0
    8.6743   -0.8725   -0.0736 H   0  0  0  0  0  0  0  0  0  0  0  0
   10.1060   -4.9230   -0.3562 H   0  0  0  0  0  0  0  0  0  0  0  0
    7.4589   -6.5494   -1.2679 H   0  0  0  0  0  0  0  0  0  0  0  0
    6.6119   -6.3021    1.0789 H   0  0  0  0  0  0  0  0  0  0  0  0
    7.2800   -4.6278    1.1425 H   0  0  0  0  0  0  0  0  0  0  0  0
    8.3877   -6.0537    0.9769 H   0  0  0  0  0  0  0  0  0  0  0  0
    5.5834   -4.1853   -0.7707 H   0  0  0  0  0  0  0  0  0  0  0  0
   -2.5164    5.1940    1.4882 H   0  0  0  0  0  0  0  0  0  0  0  0
   -1.3257    6.2183   -0.8927 H   0  0  0  0  0  0  0  0  0  0  0  0
   -3.1192    7.8897   -0.8997 H   0  0  0  0  0  0  0  0  0  0  0  0
   -4.1103    6.8911    0.2266 H   0  0  0  0  0  0  0  0  0  0  0  0
   -2.5402    7.5921    0.7777 H   0  0  0  0  0  0  0  0  0  0  0  0
   -4.4699    3.9118   -2.5402 H   0  0  0  0  0  0  0  0  0  0  0  0
   -4.5569    4.5830    0.4308 H   0  0  0  0  0  0  0  0  0  0  0  0
   -5.6014    2.3528    0.7131 H   0  0  0  0  0  0  0  0  0  0  0  0
   -3.9683    2.2164   -0.0287 H   0  0  0  0  0  0  0  0  0  0  0  0
   -5.4345    2.0379   -1.0589 H   0  0  0  0  0  0  0  0  0  0  0  0
   -7.4421    6.4171   -0.3776 H   0  0  0  0  0  0  0  0  0  0  0  0
   -8.0897    6.2063    1.7958 H   0  0  0  0  0  0  0  0  0  0  0  0
   -6.3787    6.1570    3.4866 H   0  0  0  0  0  0  0  0  0  0  0  0
   -5.1715    5.4522    2.3608 H   0  0  0  0  0  0  0  0  0  0  0  0
   -5.8050    7.1209    2.0798 H   0  0  0  0  0  0  0  0  0  0  0  0
   -9.1579    2.6724    2.0523 H   0  0  0  0  0  0  0  0  0  0  0  0
   -9.3853    4.9764    0.0726 H   0  0  0  0  0  0  0  0  0  0  0  0
  -11.5753    5.5416    1.0185 H   0  0  0  0  0  0  0  0  0  0  0  0
  -11.4672    4.1694    2.1966 H   0  0  0  0  0  0  0  0  0  0  0  0
  -10.3565    5.5815    2.3381 H   0  0  0  0  0  0  0  0  0  0  0  0
   -9.4547    1.4809    0.1998 H   0  0  0  0  0  0  0  0  0  0  0  0
  -11.4218    1.2252   -1.9286 H   0  0  0  0  0  0  0  0  0  0  0  0
  -13.1965   -0.0165   -0.4324 H   0  0  0  0  0  0  0  0  0  0  0  0
  -12.4852    0.9505    0.9347 H   0  0  0  0  0  0  0  0  0  0  0  0
  -13.2047    1.7746   -0.4788 H   0  0  0  0  0  0  0  0  0  0  0  0
   -9.1489   -1.3215    0.3533 H   0  0  0  0  0  0  0  0  0  0  0  0
  -11.7262   -1.0073    1.6691 H   0  0  0  0  0  0  0  0  0  0  0  0
   -9.8349   -1.6563    2.9657 H   0  0  0  0  0  0  0  0  0  0  0  0
  -11.0422   -2.9897    3.0319 H   0  0  0  0  0  0  0  0  0  0  0  0
   -9.5614   -3.1430    2.0109 H   0  0  0  0  0  0  0  0  0  0  0  0
  -12.2898   -4.1441   -1.0890 H   0  0  0  0  0  0  0  0  0  0  0  0
   -9.4595   -3.6947   -0.1807 H   0  0  0  0  0  0  0  0  0  0  0  0
   -8.9457   -5.5294   -1.7561 H   0  0  0  0  0  0  0  0  0  0  0  0
  -10.7059   -5.7908   -2.0598 H   0  0  0  0  0  0  0  0  0  0  0  0
   -9.9136   -4.2403   -2.5493 H   0  0  0  0  0  0  0  0  0  0  0  0
   -9.4550   -6.2929    2.4017 H   0  0  0  0  0  0  0  0  0  0  0  0
   -7.6714   -5.0788    0.2682 H   0  0  0  0  0  0  0  0  0  0  0  0
   -8.3434   -7.5105   -0.1954 H   0  0  0  0  0  0  0  0  0  0  0  0
   -7.5743   -7.9706    1.3717 H   0  0  0  0  0  0  0  0  0  0  0  0
   -6.5874   -7.2909    0.0308 H   0  0  0  0  0  0  0  0  0  0  0  0
   -4.8505   -5.4276    2.8672 H   0  0  0  0  0  0  0  0  0  0  0  0
   -5.5128   -4.6325    0.0149 H   0  0  0  0  0  0  0  0  0  0  0  0
   -4.9318   -6.0483   -1.8029 H   0  0  0  0  0  0  0  0  0  0  0  0
   -4.0124   -7.5630   -1.5267 H   0  0  0  0  0  0  0  0  0  0  0  0
   -3.5340   -3.7411    2.0453 H   0  0  0  0  0  0  0  0  0  0  0  0
   -2.6856   -4.2987    0.6030 H   0  0  0  0  0  0  0  0  0  0  0  0
   -4.0273   -2.0643   -2.2352 H   0  0  0  0  0  0  0  0  0  0  0  0
   -4.0746   -3.7943   -1.8122 H   0  0  0  0  0  0  0  0  0  0  0  0
  1  2  1  0
  2  3  2  0
  2  4  1  0
  4  5  1  0
  5  6  1  0
  6  7  1  0
  7  8  1  0
  8  9  1  0
  9 10  2  0
 10 11  1  0
 11 12  2  0
 12 13  1  0
 13 14  2  0
 13 15  1  0
 15 16  1  0
 16 17  1  0
 17 18  1  0
 18 19  1  0
 19 20  1  0
 20 21  2  0
 20 22  1  0
 22 23  1  0
 22 24  1  0
 24 25  1  0
 25 26  2  0
 25 27  1  0
 27 28  1  0
 27 29  1  0
 29 30  1  0
 30 31  2  0
 30 32  1  0
 32 33  1  0
 32 34  1  0
 34 35  1  0
 35 36  2  0
 35 37  1  0
 37 38  1  0
 37 39  1  0
 39 40  1  0
 40 41  2  0
 40 42  1  0
 42 43  1  0
 42 44  1  0
 44 45  1  0
 45 46  2  0
 45 47  1  0
 47 48  1  0
 47 49  1  0
 49 50  1  0
 50 51  2  0
 50 52  1  0
 52 53  1  0
 52 54  1  0
 54 55  1  0
 55 56  2  0
 55 57  1  0
 57 58  1  0
 57 59  1  0
 59 60  1  0
 60 61  2  0
 18 62  1  0
 62 63  2  0
 62 64  1  0
 64 65  1  0
 65 66  1  0
 65 67  1  0
 67 68  2  0
 67 69  1  0
 69 70  1  0
 70 71  1  0
 70 72  1  0
 72 73  2  0
 72 74  1  0
 74 75  1  0
 75 76  1  0
 75 77  1  0
 77 78  2  0
 77 79  1  0
 79 80  1  0
 80 81  1  0
 80 82  1  0
 82 83  2  0
 82 84  1  0
 84 85  1  0
 85 86  1  0
 85 87  1  0
 87 88  2  0
 87 89  1  0
 89 90  1  0
 90 91  1  0
 90 92  1  0
 92 93  2  0
 92 94  1  0
 94 95  1  0
 95 96  1  0
 95 97  1  0
 97 98  2  0
 97 99  1  0
 99100  1  0
100101  1  0
100102  1  0
102103  2  0
102104  1  0
104105  1  0
105106  1  0
106107  1  0
106108  2  0
105109  1  0
109110  1  0
110111  1  0
 60  5  1  0
 14  9  1  0
111 11  1  0
  1112  1  0
  1113  1  0
  1114  1  0
  4115  1  0
  5116  1  6
  6117  1  0
  6118  1  0
  8119  1  0
  8120  1  0
 10121  1  0
 12122  1  0
 14123  1  0
 15124  1  0
 15125  1  0
 17126  1  0
 17127  1  0
 18128  1  6
 19129  1  0
 22130  1  1
 23131  1  0
 23132  1  0
 23133  1  0
 24134  1  0
 27135  1  1
 28136  1  0
 28137  1  0
 28138  1  0
 29139  1  0
 32140  1  1
 33141  1  0
 33142  1  0
 33143  1  0
 34144  1  0
 37145  1  6
 38146  1  0
 38147  1  0
 38148  1  0
 39149  1  0
 42150  1  6
 43151  1  0
 43152  1  0
 43153  1  0
 44154  1  0
 47155  1  1
 48156  1  0
 48157  1  0
 48158  1  0
 49159  1  0
 52160  1  1
 53161  1  0
 53162  1  0
 53163  1  0
 54164  1  0
 57165  1  6
 58166  1  0
 58167  1  0
 58168  1  0
 59169  1  0
 64170  1  0
 65171  1  6
 66172  1  0
 66173  1  0
 66174  1  0
 69175  1  0
 70176  1  1
 71177  1  0
 71178  1  0
 71179  1  0
 74180  1  0
 75181  1  6
 76182  1  0
 76183  1  0
 76184  1  0
 79185  1  0
 80186  1  6
 81187  1  0
 81188  1  0
 81189  1  0
 84190  1  0
 85191  1  6
 86192  1  0
 86193  1  0
 86194  1  0
 89195  1  0
 90196  1  1
 91197  1  0
 91198  1  0
 91199  1  0
 94200  1  0
 95201  1  1
 96202  1  0
 96203  1  0
 96204  1  0
 99205  1  0
100206  1  6
101207  1  0
101208  1  0
101209  1  0
104210  1  0
105211  1  6
107212  1  0
107213  1  0
109214  1  0
109215  1  0
111216  1  0
111217  1  0
M  END
