
     RDKit          3D

237239  0  0  0  0  0  0  0  0999 V2000
    4.8418    7.9157    1.7412 C   0  0  0  0  0  0  0  0  0  0  0  0
    4.6713    8.0323    0.2553 C   0  0  0  0  0  0  0  0  0  0  0  0
    3.9172    8.9332   -0.1984 O   0  0  0  0  0  0  0  0  0  0  0  0
    5.3221    7.1431   -0.6685 N   0  0  0  0  0  0  0  0  0  0  0  0
    6.2424    6.0449   -0.3299 C   0  0  2  0  0  0  0  0  0  0  0  0
    5.5399    4.9903    0.5656 C   0  0  0  0  0  0  0  0  0  0  0  0
    5.8931    3.2826    0.0127 S   0  0  0  0  0  0  0  0  0  0  0  0
    4.7496    3.2896   -1.4141 C   0  0  0  0  0  0  0  0  0  0  0  0
    3.3466    3.0221   -0.9640 C   0  0  0  0  0  0  0  0  0  0  0  0
    2.3528    4.0173   -1.0461 C   0  0  0  0  0  0  0  0  0  0  0  0
    1.0443    3.7510   -0.6120 C   0  0  0  0  0  0  0  0  0  0  0  0
    0.7302    2.4744   -0.1078 C   0  0  0  0  0  0  0  0  0  0  0  0
    1.6982    1.4585   -0.0647 C   0  0  0  0  0  0  0  0  0  0  0  0
    3.0171    1.7635   -0.4440 C   0  0  0  0  0  0  0  0  0  0  0  0
    1.3510    0.0884    0.4600 C   0  0  0  0  0  0  0  0  0  0  0  0
    2.1726   -1.2067   -0.5533 S   0  0  0  0  0  0  0  0  0  0  0  0
    0.8525   -2.4794   -0.5499 C   0  0  0  0  0  0  0  0  0  0  0  0
    0.7574   -3.2929    0.7663 C   0  0  2  0  0  0  0  0  0  0  0  0
    1.8583   -4.2595    0.9423 N   0  0  0  0  0  0  0  0  0  0  0  0
    3.2188   -4.0740    0.5389 C   0  0  0  0  0  0  0  0  0  0  0  0
    3.8795   -3.1004    1.0020 O   0  0  0  0  0  0  0  0  0  0  0  0
    3.9240   -5.1422   -0.2543 C   0  0  1  0  0  0  0  0  0  0  0  0
    2.9327   -5.9447   -1.1127 C   0  0  0  0  0  0  0  0  0  0  0  0
    4.9295   -4.5422   -1.1321 N   0  0  0  0  0  0  0  0  0  0  0  0
    6.2190   -5.1261   -1.3820 C   0  0  0  0  0  0  0  0  0  0  0  0
    7.1517   -4.3770   -1.7902 O   0  0  0  0  0  0  0  0  0  0  0  0
    6.4946   -6.6018   -1.1773 C   0  0  1  0  0  0  0  0  0  0  0  0
    7.0648   -7.1975   -2.4719 C   0  0  0  0  0  0  0  0  0  0  0  0
    7.4261   -6.8536   -0.0645 N   0  0  0  0  0  0  0  0  0  0  0  0
    7.8800   -5.8401    0.8500 C   0  0  0  0  0  0  0  0  0  0  0  0
    7.0438   -5.0913    1.4281 O   0  0  0  0  0  0  0  0  0  0  0  0
    9.3464   -5.7031    1.1690 C   0  0  1  0  0  0  0  0  0  0  0  0
    9.7323   -6.5957    2.3455 C   0  0  0  0  0  0  0  0  0  0  0  0
   10.1451   -6.0466   -0.0122 N   0  0  0  0  0  0  0  0  0  0  0  0
   10.9780   -5.1086   -0.7104 C   0  0  0  0  0  0  0  0  0  0  0  0
   10.9868   -5.1250   -1.9736 O   0  0  0  0  0  0  0  0  0  0  0  0
   11.9712   -4.2571    0.0324 C   0  0  1  0  0  0  0  0  0  0  0  0
   13.3049   -4.9997    0.1288 C   0  0  0  0  0  0  0  0  0  0  0  0
   12.1578   -2.9671   -0.6419 N   0  0  0  0  0  0  0  0  0  0  0  0
   11.4886   -1.7871   -0.1665 C   0  0  0  0  0  0  0  0  0  0  0  0
   10.2803   -1.8537    0.1845 O   0  0  0  0  0  0  0  0  0  0  0  0
   12.2448   -0.4893   -0.0230 C   0  0  1  0  0  0  0  0  0  0  0  0
   13.5060   -0.7422    0.8192 C   0  0  0  0  0  0  0  0  0  0  0  0
   12.5938    0.0452   -1.3498 N   0  0  0  0  0  0  0  0  0  0  0  0
   13.2002    1.3237   -1.6120 C   0  0  0  0  0  0  0  0  0  0  0  0
   13.5086    1.5994   -2.8072 O   0  0  0  0  0  0  0  0  0  0  0  0
   13.4968    2.3458   -0.5335 C   0  0  1  0  0  0  0  0  0  0  0  0
   15.0102    2.4167   -0.2928 C   0  0  0  0  0  0  0  0  0  0  0  0
   12.9996    3.6754   -0.9280 N   0  0  0  0  0  0  0  0  0  0  0  0
   12.7938    4.7560    0.0007 C   0  0  0  0  0  0  0  0  0  0  0  0
   12.8575    5.9425   -0.4319 O   0  0  0  0  0  0  0  0  0  0  0  0
   12.5142    4.5023    1.4662 C   0  0  1  0  0  0  0  0  0  0  0  0
   12.3831    5.7705    2.3291 C   0  0  0  0  0  0  0  0  0  0  0  0
   11.3448    3.6361    1.6423 N   0  0  0  0  0  0  0  0  0  0  0  0
   10.0042    3.8472    1.1504 C   0  0  0  0  0  0  0  0  0  0  0  0
    9.1209    2.9849    1.4322 O   0  0  0  0  0  0  0  0  0  0  0  0
    9.5842    5.0427    0.3270 C   0  0  1  0  0  0  0  0  0  0  0  0
    9.2930    4.6024   -1.1127 C   0  0  0  0  0  0  0  0  0  0  0  0
    8.4110    5.6619    0.9643 N   0  0  0  0  0  0  0  0  0  0  0  0
    7.5294    6.5606    0.2761 C   0  0  0  0  0  0  0  0  0  0  0  0
    7.8563    7.7711    0.1512 O   0  0  0  0  0  0  0  0  0  0  0  0
   -0.5353   -4.0802    0.7559 C   0  0  0  0  0  0  0  0  0  0  0  0
   -1.4260   -3.8382    1.6143 O   0  0  0  0  0  0  0  0  0  0  0  0
   -0.7101   -5.1496   -0.1905 N   0  0  0  0  0  0  0  0  0  0  0  0
   -0.8670   -6.5381    0.2691 C   0  0  2  0  0  0  0  0  0  0  0  0
   -0.7273   -7.5150   -0.9023 C   0  0  0  0  0  0  0  0  0  0  0  0
   -2.1766   -6.7370    0.9715 C   0  0  0  0  0  0  0  0  0  0  0  0
   -2.1960   -7.0149    2.2000 O   0  0  0  0  0  0  0  0  0  0  0  0
   -3.4086   -6.6377    0.2517 N   0  0  0  0  0  0  0  0  0  0  0  0
   -4.1190   -7.8334   -0.1969 C   0  0  2  0  0  0  0  0  0  0  0  0
   -4.6763   -7.5908   -1.6048 C   0  0  0  0  0  0  0  0  0  0  0  0
   -5.1869   -8.2072    0.8022 C   0  0  0  0  0  0  0  0  0  0  0  0
   -4.9011   -8.2582    2.0284 O   0  0  0  0  0  0  0  0  0  0  0  0
   -6.5120   -8.5927    0.3947 N   0  0  0  0  0  0  0  0  0  0  0  0
   -7.6974   -7.7144    0.3787 C   0  0  2  0  0  0  0  0  0  0  0  0
   -8.1305   -7.4476   -1.0701 C   0  0  0  0  0  0  0  0  0  0  0  0
   -7.5403   -6.4155    1.1568 C   0  0  0  0  0  0  0  0  0  0  0  0
   -6.4105   -5.8709    1.2923 O   0  0  0  0  0  0  0  0  0  0  0  0
   -8.6784   -5.7624    1.7429 N   0  0  0  0  0  0  0  0  0  0  0  0
   -9.5682   -4.9305    0.9225 C   0  0  2  0  0  0  0  0  0  0  0  0
   -8.8390   -3.6365    0.5306 C   0  0  0  0  0  0  0  0  0  0  0  0
  -10.8588   -4.6280    1.6744 C   0  0  0  0  0  0  0  0  0  0  0  0
  -10.8395   -4.6743    2.9325 O   0  0  0  0  0  0  0  0  0  0  0  0
  -12.1138   -4.2717    1.0451 N   0  0  0  0  0  0  0  0  0  0  0  0
  -12.4188   -4.0241   -0.3735 C   0  0  2  0  0  0  0  0  0  0  0  0
  -12.1946   -5.2655   -1.2514 C   0  0  0  0  0  0  0  0  0  0  0  0
  -11.7471   -2.7747   -0.8824 C   0  0  0  0  0  0  0  0  0  0  0  0
  -11.2590   -2.7496   -2.0470 O   0  0  0  0  0  0  0  0  0  0  0  0
  -11.6184   -1.6133   -0.0415 N   0  0  0  0  0  0  0  0  0  0  0  0
  -12.6157   -0.5380    0.0071 C   0  0  2  0  0  0  0  0  0  0  0  0
  -14.0394   -1.0827    0.1525 C   0  0  0  0  0  0  0  0  0  0  0  0
  -12.4987    0.3413   -1.2187 C   0  0  0  0  0  0  0  0  0  0  0  0
  -12.4655   -0.1829   -2.3636 O   0  0  0  0  0  0  0  0  0  0  0  0
  -12.3826    1.7714   -1.1155 N   0  0  0  0  0  0  0  0  0  0  0  0
  -13.2115    2.5758   -0.2015 C   0  0  2  0  0  0  0  0  0  0  0  0
  -14.6253    2.7060   -0.7932 C   0  0  0  0  0  0  0  0  0  0  0  0
  -12.5367    3.9135    0.0467 C   0  0  0  0  0  0  0  0  0  0  0  0
  -11.2812    3.9420    0.1460 O   0  0  0  0  0  0  0  0  0  0  0  0
  -13.2867    5.1334    0.1853 N   0  0  0  0  0  0  0  0  0  0  0  0
  -12.6676    6.4290    0.4892 C   0  0  2  0  0  0  0  0  0  0  0  0
  -13.7257    7.5387    0.4986 C   0  0  0  0  0  0  0  0  0  0  0  0
  -11.6083    6.7823   -0.5279 C   0  0  0  0  0  0  0  0  0  0  0  0
  -11.8125    6.5595   -1.7514 O   0  0  0  0  0  0  0  0  0  0  0  0
  -10.4297    7.4953   -0.1294 N   0  0  0  0  0  0  0  0  0  0  0  0
   -9.2541    6.8100    0.4265 C   0  0  2  0  0  0  0  0  0  0  0  0
   -9.4921    6.4375    1.8950 C   0  0  0  0  0  0  0  0  0  0  0  0
   -8.0333    7.7031    0.3495 C   0  0  0  0  0  0  0  0  0  0  0  0
   -8.1235    8.8867    0.7756 O   0  0  0  0  0  0  0  0  0  0  0  0
   -6.7610    7.2565   -0.1721 N   0  0  0  0  0  0  0  0  0  0  0  0
   -6.4350    5.8734   -0.5495 C   0  0  2  0  0  0  0  0  0  0  0  0
   -6.4872    4.9284    0.6617 C   0  0  0  0  0  0  0  0  0  0  0  0
   -5.0778    5.8058   -1.2148 C   0  0  0  0  0  0  0  0  0  0  0  0
   -4.9573    5.1935   -2.3147 O   0  0  0  0  0  0  0  0  0  0  0  0
   -3.9322    6.5101   -0.6896 N   0  0  0  0  0  0  0  0  0  0  0  0
   -3.0295    5.9766    0.3450 C   0  0  1  0  0  0  0  0  0  0  0  0
   -3.6300    6.1626    1.7135 C   0  0  0  0  0  0  0  0  0  0  0  0
   -4.0871    7.4583    2.1169 N   0  0  0  0  0  0  0  0  0  0  0  0
   -3.7043    5.2011    2.5279 O   0  0  0  0  0  0  0  0  0  0  0  0
   -2.6247    4.5113    0.0456 C   0  0  0  0  0  0  0  0  0  0  0  0
   -1.5202    4.3940   -1.4073 S   0  0  0  0  0  0  0  0  0  0  0  0
    0.0350    4.8705   -0.5660 C   0  0  0  0  0  0  0  0  0  0  0  0
    5.9157    7.9382    2.0193 H   0  0  0  0  0  0  0  0  0  0  0  0
    4.3740    6.9753    2.1009 H   0  0  0  0  0  0  0  0  0  0  0  0
    4.3333    8.7615    2.2570 H   0  0  0  0  0  0  0  0  0  0  0  0
    5.1093    7.2736   -1.6818 H   0  0  0  0  0  0  0  0  0  0  0  0
    6.5465    5.5654   -1.2731 H   0  0  0  0  0  0  0  0  0  0  0  0
    5.8859    5.0797    1.6230 H   0  0  0  0  0  0  0  0  0  0  0  0
    4.4371    5.1416    0.5758 H   0  0  0  0  0  0  0  0  0  0  0  0
    5.0701    2.4924   -2.1237 H   0  0  0  0  0  0  0  0  0  0  0  0
    4.8187    4.2482   -1.9680 H   0  0  0  0  0  0  0  0  0  0  0  0
    2.6144    4.9938   -1.4298 H   0  0  0  0  0  0  0  0  0  0  0  0
   -0.2672    2.2833    0.2739 H   0  0  0  0  0  0  0  0  0  0  0  0
    3.7996    1.0145   -0.3518 H   0  0  0  0  0  0  0  0  0  0  0  0
    1.6925    0.0098    1.5141 H   0  0  0  0  0  0  0  0  0  0  0  0
    0.2484   -0.0556    0.4440 H   0  0  0  0  0  0  0  0  0  0  0  0
    1.0835   -3.1671   -1.3911 H   0  0  0  0  0  0  0  0  0  0  0  0
   -0.1184   -1.9927   -0.7751 H   0  0  0  0  0  0  0  0  0  0  0  0
    0.7503   -2.5923    1.6317 H   0  0  0  0  0  0  0  0  0  0  0  0
    1.6560   -5.1634    1.4297 H   0  0  0  0  0  0  0  0  0  0  0  0
    4.4040   -5.8324    0.4734 H   0  0  0  0  0  0  0  0  0  0  0  0
    2.3151   -6.5974   -0.4650 H   0  0  0  0  0  0  0  0  0  0  0  0
    2.2759   -5.2635   -1.6932 H   0  0  0  0  0  0  0  0  0  0  0  0
    3.4713   -6.5958   -1.8309 H   0  0  0  0  0  0  0  0  0  0  0  0
    4.7232   -3.6254   -1.5848 H   0  0  0  0  0  0  0  0  0  0  0  0
    5.5587   -7.1600   -0.9690 H   0  0  0  0  0  0  0  0  0  0  0  0
    6.3607   -7.0169   -3.3141 H   0  0  0  0  0  0  0  0  0  0  0  0
    8.0452   -6.7243   -2.7135 H   0  0  0  0  0  0  0  0  0  0  0  0
    7.2145   -8.2929   -2.3612 H   0  0  0  0  0  0  0  0  0  0  0  0
    7.8880   -7.7850   -0.0133 H   0  0  0  0  0  0  0  0  0  0  0  0
    9.5263   -4.6445    1.4518 H   0  0  0  0  0  0  0  0  0  0  0  0
    9.1026   -6.3560    3.2303 H   0  0  0  0  0  0  0  0  0  0  0  0
    9.5978   -7.6688    2.0904 H   0  0  0  0  0  0  0  0  0  0  0  0
   10.7945   -6.4230    2.6131 H   0  0  0  0  0  0  0  0  0  0  0  0
   10.0294   -6.9899   -0.4427 H   0  0  0  0  0  0  0  0  0  0  0  0
   11.6302   -4.0792    1.0773 H   0  0  0  0  0  0  0  0  0  0  0  0
   13.1773   -5.9385    0.7027 H   0  0  0  0  0  0  0  0  0  0  0  0
   14.0521   -4.3622    0.6533 H   0  0  0  0  0  0  0  0  0  0  0  0
   13.6863   -5.2477   -0.8825 H   0  0  0  0  0  0  0  0  0  0  0  0
   13.0031   -2.8341   -1.2411 H   0  0  0  0  0  0  0  0  0  0  0  0
   11.5905    0.2362    0.5035 H   0  0  0  0  0  0  0  0  0  0  0  0
   13.2874   -1.4137    1.6796 H   0  0  0  0  0  0  0  0  0  0  0  0
   13.8952    0.1975    1.2536 H   0  0  0  0  0  0  0  0  0  0  0  0
   14.3091   -1.2132    0.2071 H   0  0  0  0  0  0  0  0  0  0  0  0
   12.4028   -0.5520   -2.1872 H   0  0  0  0  0  0  0  0  0  0  0  0
   12.9916    2.0495    0.4025 H   0  0  0  0  0  0  0  0  0  0  0  0
   15.4168    1.4073   -0.0535 H   0  0  0  0  0  0  0  0  0  0  0  0
   15.5329    2.8098   -1.1939 H   0  0  0  0  0  0  0  0  0  0  0  0
   15.2335    3.0849    0.5659 H   0  0  0  0  0  0  0  0  0  0  0  0
   12.9709    3.9228   -1.9416 H   0  0  0  0  0  0  0  0  0  0  0  0
   13.3999    3.9694    1.8734 H   0  0  0  0  0  0  0  0  0  0  0  0
   11.4896    6.3702    2.0729 H   0  0  0  0  0  0  0  0  0  0  0  0
   12.3003    5.4828    3.3980 H   0  0  0  0  0  0  0  0  0  0  0  0
   13.2904    6.4037    2.2209 H   0  0  0  0  0  0  0  0  0  0  0  0
   11.4960    2.7537    2.1852 H   0  0  0  0  0  0  0  0  0  0  0  0
   10.3763    5.8045    0.2740 H   0  0  0  0  0  0  0  0  0  0  0  0
   10.1963    4.1208   -1.5432 H   0  0  0  0  0  0  0  0  0  0  0  0
    9.0424    5.4792   -1.7472 H   0  0  0  0  0  0  0  0  0  0  0  0
    8.4583    3.8682   -1.1527 H   0  0  0  0  0  0  0  0  0  0  0  0
    8.4758    5.8300    2.0014 H   0  0  0  0  0  0  0  0  0  0  0  0
   -0.2955   -5.0056   -1.1326 H   0  0  0  0  0  0  0  0  0  0  0  0
   -0.0440   -6.7679    0.9813 H   0  0  0  0  0  0  0  0  0  0  0  0
    0.2804   -7.4345   -1.3571 H   0  0  0  0  0  0  0  0  0  0  0  0
   -1.4790   -7.2955   -1.6911 H   0  0  0  0  0  0  0  0  0  0  0  0
   -0.8642   -8.5579   -0.5537 H   0  0  0  0  0  0  0  0  0  0  0  0
   -3.9250   -5.7244    0.2959 H   0  0  0  0  0  0  0  0  0  0  0  0
   -3.4018   -8.6858   -0.2643 H   0  0  0  0  0  0  0  0  0  0  0  0
   -5.2120   -8.4902   -1.9777 H   0  0  0  0  0  0  0  0  0  0  0  0
   -5.3594   -6.7183   -1.6042 H   0  0  0  0  0  0  0  0  0  0  0  0
   -3.8492   -7.3651   -2.3114 H   0  0  0  0  0  0  0  0  0  0  0  0
   -6.6030   -9.5190   -0.0772 H   0  0  0  0  0  0  0  0  0  0  0  0
   -8.5182   -8.2857    0.8696 H   0  0  0  0  0  0  0  0  0  0  0  0
   -7.8773   -8.3070   -1.7248 H   0  0  0  0  0  0  0  0  0  0  0  0
   -9.2305   -7.3255   -1.1228 H   0  0  0  0  0  0  0  0  0  0  0  0
   -7.6594   -6.5300   -1.4838 H   0  0  0  0  0  0  0  0  0  0  0  0
   -8.5313   -5.4624    2.7301 H   0  0  0  0  0  0  0  0  0  0  0  0
   -9.8107   -5.4999    0.0188 H   0  0  0  0  0  0  0  0  0  0  0  0
   -8.8989   -2.8790    1.3422 H   0  0  0  0  0  0  0  0  0  0  0  0
   -7.7709   -3.8391    0.3158 H   0  0  0  0  0  0  0  0  0  0  0  0
   -9.2522   -3.2205   -0.4052 H   0  0  0  0  0  0  0  0  0  0  0  0
  -12.9134   -4.1182    1.7028 H   0  0  0  0  0  0  0  0  0  0  0  0
  -13.5101   -3.8225   -0.4317 H   0  0  0  0  0  0  0  0  0  0  0  0
  -11.1622   -5.3195   -1.6450 H   0  0  0  0  0  0  0  0  0  0  0  0
  -12.4249   -6.1953   -0.6828 H   0  0  0  0  0  0  0  0  0  0  0  0
  -12.8667   -5.2263   -2.1304 H   0  0  0  0  0  0  0  0  0  0  0  0
  -10.6422   -1.3211    0.1858 H   0  0  0  0  0  0  0  0  0  0  0  0
  -12.3987    0.0657    0.9116 H   0  0  0  0  0  0  0  0  0  0  0  0
  -14.0936   -1.7877    1.0041 H   0  0  0  0  0  0  0  0  0  0  0  0
  -14.7445   -0.2488    0.3521 H   0  0  0  0  0  0  0  0  0  0  0  0
  -14.3616   -1.5973   -0.7751 H   0  0  0  0  0  0  0  0  0  0  0  0
  -11.9684    2.2648   -1.9397 H   0  0  0  0  0  0  0  0  0  0  0  0
  -13.2906    2.0753    0.7798 H   0  0  0  0  0  0  0  0  0  0  0  0
  -15.0023    1.7090   -1.1079 H   0  0  0  0  0  0  0  0  0  0  0  0
  -15.3310    3.0951   -0.0271 H   0  0  0  0  0  0  0  0  0  0  0  0
  -14.6203    3.3768   -1.6791 H   0  0  0  0  0  0  0  0  0  0  0  0
  -14.3161    5.0585    0.3685 H   0  0  0  0  0  0  0  0  0  0  0  0
  -12.2229    6.3912    1.4997 H   0  0  0  0  0  0  0  0  0  0  0  0
  -14.2327    7.6086   -0.4883 H   0  0  0  0  0  0  0  0  0  0  0  0
  -13.2589    8.5250    0.7277 H   0  0  0  0  0  0  0  0  0  0  0  0
  -14.4906    7.3265    1.2767 H   0  0  0  0  0  0  0  0  0  0  0  0
  -10.3386    8.4744   -0.4864 H   0  0  0  0  0  0  0  0  0  0  0  0
   -9.0885    5.8784   -0.1533 H   0  0  0  0  0  0  0  0  0  0  0  0
  -10.1547    5.5521    1.9616 H   0  0  0  0  0  0  0  0  0  0  0  0
   -9.9560    7.2899    2.4373 H   0  0  0  0  0  0  0  0  0  0  0  0
   -8.5428    6.1783    2.4000 H   0  0  0  0  0  0  0  0  0  0  0  0
   -6.0240    7.9917   -0.2679 H   0  0  0  0  0  0  0  0  0  0  0  0
   -7.1771    5.5199   -1.2994 H   0  0  0  0  0  0  0  0  0  0  0  0
   -6.1595    5.4510    1.5835 H   0  0  0  0  0  0  0  0  0  0  0  0
   -7.5186    4.5722    0.8359 H   0  0  0  0  0  0  0  0  0  0  0  0
   -5.8538    4.0251    0.5066 H   0  0  0  0  0  0  0  0  0  0  0  0
   -3.5893    7.3200   -1.2538 H   0  0  0  0  0  0  0  0  0  0  0  0
   -2.1055    6.5895    0.3340 H   0  0  0  0  0  0  0  0  0  0  0  0
   -4.4466    7.6053    3.0848 H   0  0  0  0  0  0  0  0  0  0  0  0
   -3.9894    8.2780    1.4762 H   0  0  0  0  0  0  0  0  0  0  0  0
   -3.5299    3.8974   -0.1561 H   0  0  0  0  0  0  0  0  0  0  0  0
   -2.1216    4.0478    0.9192 H   0  0  0  0  0  0  0  0  0  0  0  0
   -0.1358    5.1433    0.4940 H   0  0  0  0  0  0  0  0  0  0  0  0
    0.4142    5.7803   -1.0833 H   0  0  0  0  0  0  0  0  0  0  0  0
  1  2  1  0
  2  3  2  0
  2  4  1  0
  4  5  1  0
  5  6  1  0
  6  7  1  0
  7  8  1  0
  8  9  1  0
  9 10  2  0
 10 11  1  0
 11 12  2  0
 12 13  1  0
 13 14  2  0
 13 15  1  0
 15 16  1  0
 16 17  1  0
 17 18  1  0
 18 19  1  0
 19 20  1  0
 20 21  2  0
 20 22  1  0
 22 23  1  0
 22 24  1  0
 24 25  1  0
 25 26  2  0
 25 27  1  0
 27 28  1  0
 27 29  1  0
 29 30  1  0
 30 31  2  0
 30 32  1  0
 32 33  1  0
 32 34  1  0
 34 35  1  0
 35 36  2  0
 35 37  1  0
 37 38  1  0
 37 39  1  0
 39 40  1  0
 40 41  2  0
 40 42  1  0
 42 43  1  0
 42 44  1  0
 44 45  1  0
 45 46  2  0
 45 47  1  0
 47 48  1  0
 47 49  1  0
 49 50  1  0
 50 51  2  0
 50 52  1  0
 52 53  1  0
 52 54  1  0
 54 55  1  0
 55 56  2  0
 55 57  1  0
 57 58  1  0
 57 59  1  0
 59 60  1  0
 60 61  2  0
 18 62  1  0
 62 63  2  0
 62 64  1  0
 64 65  1  0
 65 66  1  0
 65 67  1  0
 67 68  2  0
 67 69  1  0
 69 70  1  0
 70 71  1  0
 70 72  1  0
 72 73  2  0
 72 74  1  0
 74 75  1  0
 75 76  1  0
 75 77  1  0
 77 78  2  0
 77 79  1  0
 79 80  1  0
 80 81  1  0
 80 82  1  0
 82 83  2  0
 82 84  1  0
 84 85  1  0
 85 86  1  0
 85 87  1  0
 87 88  2  0
 87 89  1  0
 89 90  1  0
 90 91  1  0
 90 92  1  0
 92 93  2  0
 92 94  1  0
 94 95  1  0
 95 96  1  0
 95 97  1  0
 97 98  2  0
 97 99  1  0
 99100  1  0
100101  1  0
100102  1  0
102103  2  0
102104  1  0
104105  1  0
105106  1  0
105107  1  0
107108  2  0
107109  1  0
109110  1  0
110111  1  0
110112  1  0
112113  2  0
112114  1  0
114115  1  0
115116  1  0
116117  1  0
116118  2  0
115119  1  0
119120  1  0
120121  1  0
 60  5  1  0
 14  9  1  0
121 11  1  0
  1122  1  0
  1123  1  0
  1124  1  0
  4125  1  0
  5126  1  6
  6127  1  0
  6128  1  0
  8129  1  0
  8130  1  0
 10131  1  0
 12132  1  0
 14133  1  0
 15134  1  0
 15135  1  0
 17136  1  0
 17137  1  0
 18138  1  1
 19139  1  0
 22140  1  1
 23141  1  0
 23142  1  0
 23143  1  0
 24144  1  0
 27145  1  1
 28146  1  0
 28147  1  0
 28148  1  0
 29149  1  0
 32150  1  1
 33151  1  0
 33152  1  0
 33153  1  0
 34154  1  0
 37155  1  1
 38156  1  0
 38157  1  0
 38158  1  0
 39159  1  0
 42160  1  1
 43161  1  0
 43162  1  0
 43163  1  0
 44164  1  0
 47165  1  1
 48166  1  0
 48167  1  0
 48168  1  0
 49169  1  0
 52170  1  1
 53171  1  0
 53172  1  0
 53173  1  0
 54174  1  0
 57175  1  6
 58176  1  0
 58177  1  0
 58178  1  0
 59179  1  0
 64180  1  0
 65181  1  1
 66182  1  0
 66183  1  0
 66184  1  0
 69185  1  0
 70186  1  6
 71187  1  0
 71188  1  0
 71189  1  0
 74190  1  0
 75191  1  1
 76192  1  0
 76193  1  0
 76194  1  0
 79195  1  0
 80196  1  6
 81197  1  0
 81198  1  0
 81199  1  0
 84200  1  0
 85201  1  1
 86202  1  0
 86203  1  0
 86204  1  0
 89205  1  0
 90206  1  1
 91207  1  0
 91208  1  0
 91209  1  0
 94210  1  0
 95211  1  1
 96212  1  0
 96213  1  0
 96214  1  0
 99215  1  0
100216  1  1
101217  1  0
101218  1  0
101219  1  0
104220  1  0
105221  1  6
106222  1  0
106223  1  0
106224  1  0
109225  1  0
110226  1  6
111227  1  0
111228  1  0
111229  1  0
114230  1  0
115231  1  1
117232  1  0
117233  1  0
119234  1  0
119235  1  0
121236  1  0
121237  1  0
M  END
