
     RDKit          3D

187189  0  0  0  0  0  0  0  0999 V2000
    0.1621   -8.6726   -1.1936 C   0  0  0  0  0  0  0  0  0  0  0  0
    0.5491   -9.1547    0.1674 C   0  0  0  0  0  0  0  0  0  0  0  0
    0.4253  -10.3791    0.4380 O   0  0  0  0  0  0  0  0  0  0  0  0
    1.0554   -8.2658    1.1777 N   0  0  0  0  0  0  0  0  0  0  0  0
    1.1431   -6.8119    1.0128 C   0  0  1  0  0  0  0  0  0  0  0  0
   -0.1602   -6.1543    1.4978 C   0  0  0  0  0  0  0  0  0  0  0  0
   -0.1425   -4.3347    1.2476 S   0  0  0  0  0  0  0  0  0  0  0  0
   -0.3744   -4.3515   -0.5695 C   0  0  0  0  0  0  0  0  0  0  0  0
   -1.6214   -3.6009   -0.9311 C   0  0  0  0  0  0  0  0  0  0  0  0
   -2.7819   -4.3037   -1.2860 C   0  0  0  0  0  0  0  0  0  0  0  0
   -3.9557   -3.6075   -1.6198 C   0  0  0  0  0  0  0  0  0  0  0  0
   -3.9575   -2.2060   -1.6032 C   0  0  0  0  0  0  0  0  0  0  0  0
   -2.8169   -1.4884   -1.2056 C   0  0  0  0  0  0  0  0  0  0  0  0
   -1.6379   -2.1964   -0.9003 C   0  0  0  0  0  0  0  0  0  0  0  0
   -2.8120    0.0245   -1.2002 C   0  0  0  0  0  0  0  0  0  0  0  0
   -4.4233    0.7169   -0.6289 S   0  0  0  0  0  0  0  0  0  0  0  0
   -3.8097    1.9799    0.5480 C   0  0  0  0  0  0  0  0  0  0  0  0
   -3.5517    3.3774   -0.0660 C   0  0  1  0  0  0  0  0  0  0  0  0
   -2.3253    3.3942   -0.8651 N   0  0  0  0  0  0  0  0  0  0  0  0
   -1.4621    4.5445   -0.9930 C   0  0  0  0  0  0  0  0  0  0  0  0
   -0.7110    4.6222   -2.0064 O   0  0  0  0  0  0  0  0  0  0  0  0
   -1.4123    5.6443    0.0565 C   0  0  1  0  0  0  0  0  0  0  0  0
   -0.8265    5.1378    1.3832 C   0  0  0  0  0  0  0  0  0  0  0  0
   -0.7204    6.8498   -0.4355 N   0  0  0  0  0  0  0  0  0  0  0  0
    0.6390    6.9193   -0.9037 C   0  0  0  0  0  0  0  0  0  0  0  0
    0.8653    7.4546   -2.0199 O   0  0  0  0  0  0  0  0  0  0  0  0
    1.8092    6.4398   -0.0837 C   0  0  1  0  0  0  0  0  0  0  0  0
    2.3781    5.1455   -0.6846 C   0  0  0  0  0  0  0  0  0  0  0  0
    2.8107    7.5085    0.0169 N   0  0  0  0  0  0  0  0  0  0  0  0
    4.0711    7.5075   -0.6638 C   0  0  0  0  0  0  0  0  0  0  0  0
    4.1315    7.9425   -1.8462 O   0  0  0  0  0  0  0  0  0  0  0  0
    5.3415    7.0626    0.0222 C   0  0  1  0  0  0  0  0  0  0  0  0
    5.1231    6.7639    1.5133 C   0  0  0  0  0  0  0  0  0  0  0  0
    5.9012    5.8899   -0.6736 N   0  0  0  0  0  0  0  0  0  0  0  0
    6.9500    5.0600   -0.1491 C   0  0  0  0  0  0  0  0  0  0  0  0
    6.6874    3.8417    0.0603 O   0  0  0  0  0  0  0  0  0  0  0  0
    8.3900    5.5083   -0.0347 C   0  0  1  0  0  0  0  0  0  0  0  0
    8.5913    7.0229   -0.1308 C   0  0  0  0  0  0  0  0  0  0  0  0
    8.9495    5.0303    1.2340 N   0  0  0  0  0  0  0  0  0  0  0  0
   10.0444    4.1045    1.3799 C   0  0  0  0  0  0  0  0  0  0  0  0
   10.4725    3.8666    2.5416 O   0  0  0  0  0  0  0  0  0  0  0  0
   10.7179    3.4380    0.1983 C   0  0  1  0  0  0  0  0  0  0  0  0
   11.7671    4.3725   -0.4073 C   0  0  0  0  0  0  0  0  0  0  0  0
   11.3597    2.1906    0.6143 N   0  0  0  0  0  0  0  0  0  0  0  0
   11.2296    1.0070   -0.1721 C   0  0  0  0  0  0  0  0  0  0  0  0
   11.9813    0.8465   -1.1717 O   0  0  0  0  0  0  0  0  0  0  0  0
   10.2967   -0.0973    0.2575 C   0  0  1  0  0  0  0  0  0  0  0  0
    8.9571    0.4641    0.7447 C   0  0  0  0  0  0  0  0  0  0  0  0
   10.0542   -1.0190   -0.8533 N   0  0  0  0  0  0  0  0  0  0  0  0
   10.6256   -2.3326   -0.8893 C   0  0  0  0  0  0  0  0  0  0  0  0
   11.6394   -2.5391   -1.6077 O   0  0  0  0  0  0  0  0  0  0  0  0
    9.9843   -3.4866   -0.1512 C   0  0  1  0  0  0  0  0  0  0  0  0
   10.0953   -3.2953    1.3673 C   0  0  0  0  0  0  0  0  0  0  0  0
    8.5882   -3.6473   -0.5728 N   0  0  0  0  0  0  0  0  0  0  0  0
    7.6690   -4.4800    0.1505 C   0  0  0  0  0  0  0  0  0  0  0  0
    6.9366   -3.9472    1.0273 O   0  0  0  0  0  0  0  0  0  0  0  0
    7.4685   -5.9306   -0.2114 C   0  0  1  0  0  0  0  0  0  0  0  0
    8.7841   -6.6213   -0.5970 C   0  0  0  0  0  0  0  0  0  0  0  0
    6.8566   -6.6447    0.9156 N   0  0  0  0  0  0  0  0  0  0  0  0
    5.4422   -6.7632    1.1419 C   0  0  0  0  0  0  0  0  0  0  0  0
    5.0443   -7.5133    2.0767 O   0  0  0  0  0  0  0  0  0  0  0  0
    4.4146   -6.0537    0.2833 C   0  0  1  0  0  0  0  0  0  0  0  0
    3.8911   -6.9904   -0.8062 C   0  0  0  0  0  0  0  0  0  0  0  0
    3.3351   -5.4909    1.1098 N   0  0  0  0  0  0  0  0  0  0  0  0
    2.3337   -6.2780    1.7695 C   0  0  0  0  0  0  0  0  0  0  0  0
    2.4027   -6.4404    3.0184 O   0  0  0  0  0  0  0  0  0  0  0  0
   -4.7093    3.9080   -0.8739 C   0  0  0  0  0  0  0  0  0  0  0  0
   -5.0928    3.3147   -1.9181 O   0  0  0  0  0  0  0  0  0  0  0  0
   -5.3380    5.1350   -0.4829 N   0  0  0  0  0  0  0  0  0  0  0  0
   -6.7572    5.2146   -0.1389 C   0  0  2  0  0  0  0  0  0  0  0  0
   -7.0913    4.2173    0.9849 C   0  0  0  0  0  0  0  0  0  0  0  0
   -7.5939    5.0254   -1.3787 C   0  0  0  0  0  0  0  0  0  0  0  0
   -7.3694    5.7481   -2.3875 O   0  0  0  0  0  0  0  0  0  0  0  0
   -8.6317    4.0407   -1.4440 N   0  0  0  0  0  0  0  0  0  0  0  0
  -10.0424    4.3049   -1.1108 C   0  0  2  0  0  0  0  0  0  0  0  0
  -10.2747    5.7432   -0.6061 C   0  0  0  0  0  0  0  0  0  0  0  0
  -10.5056    3.2704   -0.1178 C   0  0  0  0  0  0  0  0  0  0  0  0
  -10.9335    3.6135    1.0175 O   0  0  0  0  0  0  0  0  0  0  0  0
  -10.4705    1.8775   -0.4776 N   0  0  0  0  0  0  0  0  0  0  0  0
  -10.6099    0.8074    0.5208 C   0  0  2  0  0  0  0  0  0  0  0  0
   -9.4107    0.8089    1.4773 C   0  0  0  0  0  0  0  0  0  0  0  0
  -10.7257   -0.5309   -0.1607 C   0  0  0  0  0  0  0  0  0  0  0  0
   -9.7711   -0.9622   -0.8588 O   0  0  0  0  0  0  0  0  0  0  0  0
  -11.9205   -1.3067   -0.0245 N   0  0  0  0  0  0  0  0  0  0  0  0
  -11.9946   -2.5985    0.6695 C   0  0  2  0  0  0  0  0  0  0  0  0
  -11.2671   -2.5661    2.0177 C   0  0  0  0  0  0  0  0  0  0  0  0
  -11.5573   -3.7454   -0.2155 C   0  0  0  0  0  0  0  0  0  0  0  0
  -12.3424   -4.7167   -0.3938 O   0  0  0  0  0  0  0  0  0  0  0  0
  -10.2983   -3.7569   -0.9063 N   0  0  0  0  0  0  0  0  0  0  0  0
   -9.0161   -3.9563   -0.2168 C   0  0  1  0  0  0  0  0  0  0  0  0
   -9.0601   -5.2060    0.6292 C   0  0  0  0  0  0  0  0  0  0  0  0
   -8.7770   -5.1482    2.0292 N   0  0  0  0  0  0  0  0  0  0  0  0
   -9.3074   -6.3195    0.0950 O   0  0  0  0  0  0  0  0  0  0  0  0
   -7.8679   -4.0465   -1.2330 C   0  0  0  0  0  0  0  0  0  0  0  0
   -6.2626   -4.2447   -0.3730 S   0  0  0  0  0  0  0  0  0  0  0  0
   -5.2408   -4.3365   -1.8823 C   0  0  0  0  0  0  0  0  0  0  0  0
   -0.2266   -9.5134   -1.8106 H   0  0  0  0  0  0  0  0  0  0  0  0
    1.0462   -8.2452   -1.7131 H   0  0  0  0  0  0  0  0  0  0  0  0
   -0.6332   -7.9011   -1.1114 H   0  0  0  0  0  0  0  0  0  0  0  0
    1.2761   -8.6712    2.1119 H   0  0  0  0  0  0  0  0  0  0  0  0
    1.2845   -6.5596   -0.0547 H   0  0  0  0  0  0  0  0  0  0  0  0
   -0.3028   -6.3491    2.5834 H   0  0  0  0  0  0  0  0  0  0  0  0
   -1.0352   -6.5838    0.9710 H   0  0  0  0  0  0  0  0  0  0  0  0
    0.5086   -3.8708   -1.0399 H   0  0  0  0  0  0  0  0  0  0  0  0
   -0.4197   -5.3800   -0.9741 H   0  0  0  0  0  0  0  0  0  0  0  0
   -2.7800   -5.3857   -1.2756 H   0  0  0  0  0  0  0  0  0  0  0  0
   -4.8737   -1.6780   -1.8566 H   0  0  0  0  0  0  0  0  0  0  0  0
   -0.7419   -1.6528   -0.6147 H   0  0  0  0  0  0  0  0  0  0  0  0
   -1.9754    0.4025   -0.5680 H   0  0  0  0  0  0  0  0  0  0  0  0
   -2.6409    0.3690   -2.2398 H   0  0  0  0  0  0  0  0  0  0  0  0
   -4.6014    2.0877    1.3166 H   0  0  0  0  0  0  0  0  0  0  0  0
   -2.9065    1.6184    1.0800 H   0  0  0  0  0  0  0  0  0  0  0  0
   -3.4355    4.0453    0.8051 H   0  0  0  0  0  0  0  0  0  0  0  0
   -2.2117    2.6521   -1.5918 H   0  0  0  0  0  0  0  0  0  0  0  0
   -2.4598    5.9517    0.2674 H   0  0  0  0  0  0  0  0  0  0  0  0
   -0.5853    5.9964    2.0472 H   0  0  0  0  0  0  0  0  0  0  0  0
    0.0741    4.5180    1.2206 H   0  0  0  0  0  0  0  0  0  0  0  0
   -1.5538    4.5040    1.9249 H   0  0  0  0  0  0  0  0  0  0  0  0
   -1.3403    7.6473   -0.7136 H   0  0  0  0  0  0  0  0  0  0  0  0
    1.4878    6.2223    0.9466 H   0  0  0  0  0  0  0  0  0  0  0  0
    2.7096    5.3048   -1.7349 H   0  0  0  0  0  0  0  0  0  0  0  0
    3.2345    4.7848   -0.0804 H   0  0  0  0  0  0  0  0  0  0  0  0
    1.6050    4.3450   -0.6787 H   0  0  0  0  0  0  0  0  0  0  0  0
    2.5659    8.3599    0.5729 H   0  0  0  0  0  0  0  0  0  0  0  0
    6.0524    7.9119   -0.0532 H   0  0  0  0  0  0  0  0  0  0  0  0
    6.0946    6.5641    2.0138 H   0  0  0  0  0  0  0  0  0  0  0  0
    4.6561    7.6377    2.0189 H   0  0  0  0  0  0  0  0  0  0  0  0
    4.4712    5.8715    1.6445 H   0  0  0  0  0  0  0  0  0  0  0  0
    5.3385    5.4643   -1.4454 H   0  0  0  0  0  0  0  0  0  0  0  0
    8.9175    5.0765   -0.9019 H   0  0  0  0  0  0  0  0  0  0  0  0
    9.6775    7.2497   -0.1336 H   0  0  0  0  0  0  0  0  0  0  0  0
    8.1436    7.5377    0.7438 H   0  0  0  0  0  0  0  0  0  0  0  0
    8.1594    7.4205   -1.0740 H   0  0  0  0  0  0  0  0  0  0  0  0
    8.5344    5.4138    2.1143 H   0  0  0  0  0  0  0  0  0  0  0  0
    9.9564    3.1992   -0.5730 H   0  0  0  0  0  0  0  0  0  0  0  0
   12.5260    4.6446    0.3555 H   0  0  0  0  0  0  0  0  0  0  0  0
   12.2823    3.8647   -1.2534 H   0  0  0  0  0  0  0  0  0  0  0  0
   11.2951    5.3014   -0.7868 H   0  0  0  0  0  0  0  0  0  0  0  0
   12.0986    2.2065    1.3539 H   0  0  0  0  0  0  0  0  0  0  0  0
   10.7783   -0.6328    1.1019 H   0  0  0  0  0  0  0  0  0  0  0  0
    8.2695   -0.3692    1.0125 H   0  0  0  0  0  0  0  0  0  0  0  0
    9.1054    1.0934    1.6484 H   0  0  0  0  0  0  0  0  0  0  0  0
    8.4776    1.0762   -0.0507 H   0  0  0  0  0  0  0  0  0  0  0  0
    9.6924   -0.6242   -1.7556 H   0  0  0  0  0  0  0  0  0  0  0  0
   10.5423   -4.4105   -0.4130 H   0  0  0  0  0  0  0  0  0  0  0  0
    9.4020   -2.4983    1.7158 H   0  0  0  0  0  0  0  0  0  0  0  0
    9.8279   -4.2402    1.8858 H   0  0  0  0  0  0  0  0  0  0  0  0
   11.1378   -3.0344    1.6535 H   0  0  0  0  0  0  0  0  0  0  0  0
    8.1772   -2.9970   -1.2862 H   0  0  0  0  0  0  0  0  0  0  0  0
    6.8090   -5.9913   -1.1040 H   0  0  0  0  0  0  0  0  0  0  0  0
    8.5951   -7.6964   -0.8063 H   0  0  0  0  0  0  0  0  0  0  0  0
    9.5206   -6.5499    0.2305 H   0  0  0  0  0  0  0  0  0  0  0  0
    9.2112   -6.1634   -1.5146 H   0  0  0  0  0  0  0  0  0  0  0  0
    7.4909   -7.0376    1.6478 H   0  0  0  0  0  0  0  0  0  0  0  0
    4.8953   -5.1962   -0.2306 H   0  0  0  0  0  0  0  0  0  0  0  0
    4.7236   -7.3143   -1.4619 H   0  0  0  0  0  0  0  0  0  0  0  0
    3.4227   -7.8942   -0.3632 H   0  0  0  0  0  0  0  0  0  0  0  0
    3.1499   -6.4541   -1.4380 H   0  0  0  0  0  0  0  0  0  0  0  0
    3.5306   -4.5568    1.5384 H   0  0  0  0  0  0  0  0  0  0  0  0
   -4.8291    6.0313   -0.7003 H   0  0  0  0  0  0  0  0  0  0  0  0
   -6.9630    6.2357    0.2504 H   0  0  0  0  0  0  0  0  0  0  0  0
   -6.9473    3.1719    0.6384 H   0  0  0  0  0  0  0  0  0  0  0  0
   -8.1374    4.3392    1.3237 H   0  0  0  0  0  0  0  0  0  0  0  0
   -6.4256    4.4071    1.8565 H   0  0  0  0  0  0  0  0  0  0  0  0
   -8.3955    3.1285   -1.9020 H   0  0  0  0  0  0  0  0  0  0  0  0
  -10.6455    4.1797   -2.0368 H   0  0  0  0  0  0  0  0  0  0  0  0
  -11.3560    5.9077   -0.3914 H   0  0  0  0  0  0  0  0  0  0  0  0
   -9.9751    6.4718   -1.3871 H   0  0  0  0  0  0  0  0  0  0  0  0
   -9.6929    5.9430    0.3175 H   0  0  0  0  0  0  0  0  0  0  0  0
  -10.2678    1.6294   -1.4704 H   0  0  0  0  0  0  0  0  0  0  0  0
  -11.5377    0.9826    1.1133 H   0  0  0  0  0  0  0  0  0  0  0  0
   -9.5506    0.0359    2.2583 H   0  0  0  0  0  0  0  0  0  0  0  0
   -9.3138    1.7929    1.9816 H   0  0  0  0  0  0  0  0  0  0  0  0
   -8.4655    0.6044    0.9268 H   0  0  0  0  0  0  0  0  0  0  0  0
  -12.7798   -0.9603   -0.5237 H   0  0  0  0  0  0  0  0  0  0  0  0
  -13.0634   -2.7805    0.9089 H   0  0  0  0  0  0  0  0  0  0  0  0
  -11.2977   -3.5689    2.4987 H   0  0  0  0  0  0  0  0  0  0  0  0
  -10.2093   -2.2625    1.9058 H   0  0  0  0  0  0  0  0  0  0  0  0
  -11.7630   -1.8411    2.6896 H   0  0  0  0  0  0  0  0  0  0  0  0
  -10.3315   -3.8909   -1.9449 H   0  0  0  0  0  0  0  0  0  0  0  0
   -8.8090   -3.0755    0.4226 H   0  0  0  0  0  0  0  0  0  0  0  0
   -8.6448   -6.0250    2.5739 H   0  0  0  0  0  0  0  0  0  0  0  0
   -8.5784   -4.2334    2.4956 H   0  0  0  0  0  0  0  0  0  0  0  0
   -8.0301   -4.8972   -1.9256 H   0  0  0  0  0  0  0  0  0  0  0  0
   -7.8376   -3.1010   -1.8208 H   0  0  0  0  0  0  0  0  0  0  0  0
   -5.0584   -5.4062   -2.1210 H   0  0  0  0  0  0  0  0  0  0  0  0
   -5.7489   -3.8780   -2.7537 H   0  0  0  0  0  0  0  0  0  0  0  0
  1  2  1  0
  2  3  2  0
  2  4  1  0
  4  5  1  0
  5  6  1  0
  6  7  1  0
  7  8  1  0
  8  9  1  0
  9 10  1  0
 10 11  2  0
 11 12  1  0
 12 13  2  0
 13 14  1  0
 13 15  1  0
 15 16  1  0
 16 17  1  0
 17 18  1  0
 18 19  1  0
 19 20  1  0
 20 21  2  0
 20 22  1  0
 22 23  1  0
 22 24  1  0
 24 25  1  0
 25 26  2  0
 25 27  1  0
 27 28  1  0
 27 29  1  0
 29 30  1  0
 30 31  2  0
 30 32  1  0
 32 33  1  0
 32 34  1  0
 34 35  1  0
 35 36  2  0
 35 37  1  0
 37 38  1  0
 37 39  1  0
 39 40  1  0
 40 41  2  0
 40 42  1  0
 42 43  1  0
 42 44  1  0
 44 45  1  0
 45 46  2  0
 45 47  1  0
 47 48  1  0
 47 49  1  0
 49 50  1  0
 50 51  2  0
 50 52  1  0
 52 53  1  0
 52 54  1  0
 54 55  1  0
 55 56  2  0
 55 57  1  0
 57 58  1  0
 57 59  1  0
 59 60  1  0
 60 61  2  0
 60 62  1  0
 62 63  1  0
 62 64  1  0
 64 65  1  0
 65 66  2  0
 18 67  1  0
 67 68  2  0
 67 69  1  0
 69 70  1  0
 70 71  1  0
 70 72  1  0
 72 73  2  0
 72 74  1  0
 74 75  1  0
 75 76  1  0
 75 77  1  0
 77 78  2  0
 77 79  1  0
 79 80  1  0
 80 81  1  0
 80 82  1  0
 82 83  2  0
 82 84  1  0
 84 85  1  0
 85 86  1  0
 85 87  1  0
 87 88  2  0
 87 89  1  0
 89 90  1  0
 90 91  1  0
 91 92  1  0
 91 93  2  0
 90 94  1  0
 94 95  1  0
 95 96  1  0
 65  5  1  0
 14  9  2  0
 96 11  1  0
  1 97  1  0
  1 98  1  0
  1 99  1  0
  4100  1  0
  5101  1  6
  6102  1  0
  6103  1  0
  8104  1  0
  8105  1  0
 10106  1  0
 12107  1  0
 14108  1  0
 15109  1  0
 15110  1  0
 17111  1  0
 17112  1  0
 18113  1  1
 19114  1  0
 22115  1  1
 23116  1  0
 23117  1  0
 23118  1  0
 24119  1  0
 27120  1  1
 28121  1  0
 28122  1  0
 28123  1  0
 29124  1  0
 32125  1  1
 33126  1  0
 33127  1  0
 33128  1  0
 34129  1  0
 37130  1  6
 38131  1  0
 38132  1  0
 38133  1  0
 39134  1  0
 42135  1  6
 43136  1  0
 43137  1  0
 43138  1  0
 44139  1  0
 47140  1  1
 48141  1  0
 48142  1  0
 48143  1  0
 49144  1  0
 52145  1  6
 53146  1  0
 53147  1  0
 53148  1  0
 54149  1  0
 57150  1  6
 58151  1  0
 58152  1  0
 58153  1  0
 59154  1  0
 62155  1  6
 63156  1  0
 63157  1  0
 63158  1  0
 64159  1  0
 69160  1  0
 70161  1  1
 71162  1  0
 71163  1  0
 71164  1  0
 74165  1  0
 75166  1  6
 76167  1  0
 76168  1  0
 76169  1  0
 79170  1  0
 80171  1  1
 81172  1  0
 81173  1  0
 81174  1  0
 84175  1  0
 85176  1  1
 86177  1  0
 86178  1  0
 86179  1  0
 89180  1  0
 90181  1  1
 92182  1  0
 92183  1  0
 94184  1  0
 94185  1  0
 96186  1  0
 96187  1  0
M  END
