
     RDKit          3D

237239  0  0  0  0  0  0  0  0999 V2000
   -5.6111    8.4978   -2.1778 C   0  0  0  0  0  0  0  0  0  0  0  0
   -5.8060    7.0551   -2.5367 C   0  0  0  0  0  0  0  0  0  0  0  0
   -5.6819    6.7067   -3.7464 O   0  0  0  0  0  0  0  0  0  0  0  0
   -6.0704    6.0474   -1.5532 N   0  0  0  0  0  0  0  0  0  0  0  0
   -5.4449    6.0692   -0.2118 C   0  0  2  0  0  0  0  0  0  0  0  0
   -5.2922    4.6471    0.3686 C   0  0  0  0  0  0  0  0  0  0  0  0
   -3.8522    4.5116    1.4856 S   0  0  0  0  0  0  0  0  0  0  0  0
   -2.5665    4.6185    0.1839 C   0  0  0  0  0  0  0  0  0  0  0  0
   -1.4470    3.6594    0.4463 C   0  0  0  0  0  0  0  0  0  0  0  0
   -0.5213    3.9188    1.4637 C   0  0  0  0  0  0  0  0  0  0  0  0
    0.6580    3.1652    1.5641 C   0  0  0  0  0  0  0  0  0  0  0  0
    0.8475    2.0573    0.7161 C   0  0  0  0  0  0  0  0  0  0  0  0
   -0.1240    1.7300   -0.2408 C   0  0  0  0  0  0  0  0  0  0  0  0
   -1.2394    2.5616   -0.4044 C   0  0  0  0  0  0  0  0  0  0  0  0
    0.1116    0.6072   -1.2286 C   0  0  0  0  0  0  0  0  0  0  0  0
    0.8067   -0.9039   -0.4387 S   0  0  0  0  0  0  0  0  0  0  0  0
   -0.7729   -1.7398   -0.0235 C   0  0  0  0  0  0  0  0  0  0  0  0
   -0.5932   -3.2794   -0.1228 C   0  0  2  0  0  0  0  0  0  0  0  0
   -1.8656   -3.9848    0.1180 N   0  0  0  0  0  0  0  0  0  0  0  0
   -2.9177   -4.0405   -0.8633 C   0  0  0  0  0  0  0  0  0  0  0  0
   -3.1485   -3.0216   -1.5813 O   0  0  0  0  0  0  0  0  0  0  0  0
   -3.7755   -5.2609   -1.0663 C   0  0  1  0  0  0  0  0  0  0  0  0
   -3.4886   -5.8780   -2.4362 C   0  0  0  0  0  0  0  0  0  0  0  0
   -3.5406   -6.2710   -0.0144 N   0  0  0  0  0  0  0  0  0  0  0  0
   -4.5844   -6.9603    0.7067 C   0  0  0  0  0  0  0  0  0  0  0  0
   -4.3671   -8.1292    1.1168 O   0  0  0  0  0  0  0  0  0  0  0  0
   -5.9250   -6.3331    1.0219 C   0  0  1  0  0  0  0  0  0  0  0  0
   -5.7322   -5.0014    1.7764 C   0  0  0  0  0  0  0  0  0  0  0  0
   -6.7389   -6.1826   -0.1947 N   0  0  0  0  0  0  0  0  0  0  0  0
   -7.8672   -5.2996   -0.2564 C   0  0  0  0  0  0  0  0  0  0  0  0
   -7.6878   -4.0998   -0.5962 O   0  0  0  0  0  0  0  0  0  0  0  0
   -9.2738   -5.7681    0.0627 C   0  0  1  0  0  0  0  0  0  0  0  0
   -9.3269   -7.2690    0.4073 C   0  0  0  0  0  0  0  0  0  0  0  0
   -9.8145   -4.9804    1.1704 N   0  0  0  0  0  0  0  0  0  0  0  0
  -11.1743   -5.0369    1.6251 C   0  0  0  0  0  0  0  0  0  0  0  0
  -11.4257   -4.7008    2.8152 O   0  0  0  0  0  0  0  0  0  0  0  0
  -12.3313   -5.3976    0.6946 C   0  0  1  0  0  0  0  0  0  0  0  0
  -13.4549   -6.1215    1.4355 C   0  0  0  0  0  0  0  0  0  0  0  0
  -12.8746   -4.2260   -0.0183 N   0  0  0  0  0  0  0  0  0  0  0  0
  -12.5253   -2.8645    0.2314 C   0  0  0  0  0  0  0  0  0  0  0  0
  -12.4163   -2.4547    1.4169 O   0  0  0  0  0  0  0  0  0  0  0  0
  -12.3376   -1.9102   -0.9240 C   0  0  1  0  0  0  0  0  0  0  0  0
  -13.6236   -1.7049   -1.7307 C   0  0  0  0  0  0  0  0  0  0  0  0
  -11.8004   -0.6141   -0.4728 N   0  0  0  0  0  0  0  0  0  0  0  0
  -12.5875    0.3652    0.2251 C   0  0  0  0  0  0  0  0  0  0  0  0
  -13.5893    0.0087    0.9143 O   0  0  0  0  0  0  0  0  0  0  0  0
  -12.2537    1.8279    0.1294 C   0  0  1  0  0  0  0  0  0  0  0  0
  -13.3512    2.4877   -0.7359 C   0  0  0  0  0  0  0  0  0  0  0  0
  -12.1817    2.4156    1.4715 N   0  0  0  0  0  0  0  0  0  0  0  0
  -12.3455    3.8055    1.8022 C   0  0  0  0  0  0  0  0  0  0  0  0
  -12.8849    4.1074    2.8984 O   0  0  0  0  0  0  0  0  0  0  0  0
  -11.7901    4.9073    0.9301 C   0  0  1  0  0  0  0  0  0  0  0  0
  -12.8929    5.8971    0.5295 C   0  0  0  0  0  0  0  0  0  0  0  0
  -10.7326    5.6093    1.6537 N   0  0  0  0  0  0  0  0  0  0  0  0
   -9.3601    5.2809    1.4588 C   0  0  0  0  0  0  0  0  0  0  0  0
   -8.7845    4.5507    2.3144 O   0  0  0  0  0  0  0  0  0  0  0  0
   -8.5376    5.9066    0.3536 C   0  0  1  0  0  0  0  0  0  0  0  0
   -9.3868    6.6186   -0.7040 C   0  0  0  0  0  0  0  0  0  0  0  0
   -7.6219    6.8816    0.9562 N   0  0  0  0  0  0  0  0  0  0  0  0
   -6.1990    6.9738    0.7318 C   0  0  0  0  0  0  0  0  0  0  0  0
   -5.5609    7.8917    1.2964 O   0  0  0  0  0  0  0  0  0  0  0  0
    0.4454   -3.7694    0.8648 C   0  0  0  0  0  0  0  0  0  0  0  0
    0.3666   -3.3767    2.0658 O   0  0  0  0  0  0  0  0  0  0  0  0
    1.5034   -4.7010    0.5247 N   0  0  0  0  0  0  0  0  0  0  0  0
    1.8125   -5.2049   -0.8276 C   0  0  2  0  0  0  0  0  0  0  0  0
    0.7831   -6.2129   -1.3042 C   0  0  0  0  0  0  0  0  0  0  0  0
    3.2094   -5.7926   -0.8692 C   0  0  0  0  0  0  0  0  0  0  0  0
    3.9981   -5.4518   -1.7860 O   0  0  0  0  0  0  0  0  0  0  0  0
    3.6592   -6.7128    0.1305 N   0  0  0  0  0  0  0  0  0  0  0  0
    3.3284   -8.1335    0.0554 C   0  0  2  0  0  0  0  0  0  0  0  0
    2.4522   -8.5182    1.2547 C   0  0  0  0  0  0  0  0  0  0  0  0
    4.5770   -9.0018    0.0313 C   0  0  0  0  0  0  0  0  0  0  0  0
    4.4413  -10.2452   -0.1217 O   0  0  0  0  0  0  0  0  0  0  0  0
    5.8897   -8.4727    0.2723 N   0  0  0  0  0  0  0  0  0  0  0  0
    6.5893   -7.6072   -0.6838 C   0  0  2  0  0  0  0  0  0  0  0  0
    6.4945   -8.1753   -2.1078 C   0  0  0  0  0  0  0  0  0  0  0  0
    8.0460   -7.4688   -0.2801 C   0  0  0  0  0  0  0  0  0  0  0  0
    8.7748   -8.4998   -0.2850 O   0  0  0  0  0  0  0  0  0  0  0  0
    8.6125   -6.2295    0.1939 N   0  0  0  0  0  0  0  0  0  0  0  0
    8.2137   -4.9006   -0.2818 C   0  0  2  0  0  0  0  0  0  0  0  0
    8.5285   -4.7134   -1.7750 C   0  0  0  0  0  0  0  0  0  0  0  0
    8.8442   -3.8071    0.5740 C   0  0  0  0  0  0  0  0  0  0  0  0
    8.0827   -3.1265    1.3157 O   0  0  0  0  0  0  0  0  0  0  0  0
   10.2441   -3.4611    0.5454 N   0  0  0  0  0  0  0  0  0  0  0  0
   11.3461   -4.3493    0.1794 C   0  0  2  0  0  0  0  0  0  0  0  0
   12.0324   -4.8850    1.4403 C   0  0  0  0  0  0  0  0  0  0  0  0
   12.2936   -3.6098   -0.7361 C   0  0  0  0  0  0  0  0  0  0  0  0
   11.9755   -3.4691   -1.9467 O   0  0  0  0  0  0  0  0  0  0  0  0
   13.5633   -3.1094   -0.2821 N   0  0  0  0  0  0  0  0  0  0  0  0
   13.7867   -1.7214    0.1673 C   0  0  2  0  0  0  0  0  0  0  0  0
   13.6539   -1.6244    1.6867 C   0  0  0  0  0  0  0  0  0  0  0  0
   12.9306   -0.7219   -0.5723 C   0  0  0  0  0  0  0  0  0  0  0  0
   12.8932   -0.7369   -1.8378 O   0  0  0  0  0  0  0  0  0  0  0  0
   12.2263    0.3022    0.1423 N   0  0  0  0  0  0  0  0  0  0  0  0
   12.6073    1.7259    0.0620 C   0  0  2  0  0  0  0  0  0  0  0  0
   14.1162    1.8883   -0.1867 C   0  0  0  0  0  0  0  0  0  0  0  0
   12.2566    2.4200    1.3614 C   0  0  0  0  0  0  0  0  0  0  0  0
   12.5400    1.8378    2.4454 O   0  0  0  0  0  0  0  0  0  0  0  0
   11.6750    3.7378    1.4311 N   0  0  0  0  0  0  0  0  0  0  0  0
   11.1390    4.5197    0.3052 C   0  0  2  0  0  0  0  0  0  0  0  0
   12.2551    5.0750   -0.5917 C   0  0  0  0  0  0  0  0  0  0  0  0
   10.3118    5.6717    0.8277 C   0  0  0  0  0  0  0  0  0  0  0  0
   10.8797    6.5966    1.4695 O   0  0  0  0  0  0  0  0  0  0  0  0
    8.8842    5.6966    0.6490 N   0  0  0  0  0  0  0  0  0  0  0  0
    8.1706    6.7487   -0.1010 C   0  0  2  0  0  0  0  0  0  0  0  0
    8.6594    6.8023   -1.5506 C   0  0  0  0  0  0  0  0  0  0  0  0
    8.2850    8.1114    0.5564 C   0  0  0  0  0  0  0  0  0  0  0  0
    9.4178    8.6396    0.6880 O   0  0  0  0  0  0  0  0  0  0  0  0
    7.1363    8.8490    0.9996 N   0  0  0  0  0  0  0  0  0  0  0  0
    5.7988    8.7381    0.3880 C   0  0  2  0  0  0  0  0  0  0  0  0
    5.2200   10.1319    0.1744 C   0  0  0  0  0  0  0  0  0  0  0  0
    4.8956    7.8863    1.2483 C   0  0  0  0  0  0  0  0  0  0  0  0
    5.3146    7.3800    2.3223 O   0  0  0  0  0  0  0  0  0  0  0  0
    3.5637    7.6027    0.8130 N   0  0  0  0  0  0  0  0  0  0  0  0
    3.3126    6.3941    0.0258 C   0  0  2  0  0  0  0  0  0  0  0  0
    3.0940    6.7619   -1.4236 C   0  0  0  0  0  0  0  0  0  0  0  0
    2.0572    7.6707   -1.8135 N   0  0  0  0  0  0  0  0  0  0  0  0
    3.8546    6.2839   -2.3048 O   0  0  0  0  0  0  0  0  0  0  0  0
    2.1004    5.6139    0.5683 C   0  0  0  0  0  0  0  0  0  0  0  0
    2.2360    5.3623    2.3856 S   0  0  0  0  0  0  0  0  0  0  0  0
    1.7679    3.5837    2.4944 C   0  0  0  0  0  0  0  0  0  0  0  0
   -4.5269    8.7232   -2.1552 H   0  0  0  0  0  0  0  0  0  0  0  0
   -6.1026    9.1485   -2.9249 H   0  0  0  0  0  0  0  0  0  0  0  0
   -6.0547    8.7288   -1.1930 H   0  0  0  0  0  0  0  0  0  0  0  0
   -6.4737    5.1496   -1.9038 H   0  0  0  0  0  0  0  0  0  0  0  0
   -4.4251    6.4964   -0.3462 H   0  0  0  0  0  0  0  0  0  0  0  0
   -5.1763    3.8916   -0.4477 H   0  0  0  0  0  0  0  0  0  0  0  0
   -6.1800    4.3487    0.9427 H   0  0  0  0  0  0  0  0  0  0  0  0
   -2.9872    4.4433   -0.8318 H   0  0  0  0  0  0  0  0  0  0  0  0
   -2.1606    5.6561    0.1713 H   0  0  0  0  0  0  0  0  0  0  0  0
   -0.6855    4.7556    2.1316 H   0  0  0  0  0  0  0  0  0  0  0  0
    1.7577    1.4949    0.7659 H   0  0  0  0  0  0  0  0  0  0  0  0
   -1.9579    2.3539   -1.1978 H   0  0  0  0  0  0  0  0  0  0  0  0
   -0.8077    0.3727   -1.7842 H   0  0  0  0  0  0  0  0  0  0  0  0
    0.8571    0.9586   -1.9731 H   0  0  0  0  0  0  0  0  0  0  0  0
   -1.5755   -1.4071   -0.6976 H   0  0  0  0  0  0  0  0  0  0  0  0
   -1.0695   -1.4624    1.0094 H   0  0  0  0  0  0  0  0  0  0  0  0
   -0.2782   -3.5073   -1.1570 H   0  0  0  0  0  0  0  0  0  0  0  0
   -1.9663   -4.5453    1.0064 H   0  0  0  0  0  0  0  0  0  0  0  0
   -4.8268   -4.9223   -1.0654 H   0  0  0  0  0  0  0  0  0  0  0  0
   -2.4247   -6.1984   -2.5268 H   0  0  0  0  0  0  0  0  0  0  0  0
   -3.7068   -5.1415   -3.2408 H   0  0  0  0  0  0  0  0  0  0  0  0
   -4.1454   -6.7624   -2.5943 H   0  0  0  0  0  0  0  0  0  0  0  0
   -2.5870   -6.6986    0.0258 H   0  0  0  0  0  0  0  0  0  0  0  0
   -6.4723   -7.0008    1.7142 H   0  0  0  0  0  0  0  0  0  0  0  0
   -5.2942   -4.2129    1.1277 H   0  0  0  0  0  0  0  0  0  0  0  0
   -5.0626   -5.1573    2.6471 H   0  0  0  0  0  0  0  0  0  0  0  0
   -6.7024   -4.6431    2.1659 H   0  0  0  0  0  0  0  0  0  0  0  0
   -6.7308   -6.9819   -0.8733 H   0  0  0  0  0  0  0  0  0  0  0  0
   -9.8820   -5.5893   -0.8496 H   0  0  0  0  0  0  0  0  0  0  0  0
  -10.3837   -7.5893    0.5588 H   0  0  0  0  0  0  0  0  0  0  0  0
   -8.9104   -7.8818   -0.4206 H   0  0  0  0  0  0  0  0  0  0  0  0
   -8.7744   -7.4773    1.3441 H   0  0  0  0  0  0  0  0  0  0  0  0
   -9.1462   -4.4552    1.7853 H   0  0  0  0  0  0  0  0  0  0  0  0
  -11.9649   -6.1061   -0.0722 H   0  0  0  0  0  0  0  0  0  0  0  0
  -13.7892   -5.5535    2.3313 H   0  0  0  0  0  0  0  0  0  0  0  0
  -14.3345   -6.2591    0.7713 H   0  0  0  0  0  0  0  0  0  0  0  0
  -13.1063   -7.1346    1.7540 H   0  0  0  0  0  0  0  0  0  0  0  0
  -13.4330   -4.4439   -0.8735 H   0  0  0  0  0  0  0  0  0  0  0  0
  -11.5908   -2.3802   -1.6026 H   0  0  0  0  0  0  0  0  0  0  0  0
  -13.9339   -2.6472   -2.2255 H   0  0  0  0  0  0  0  0  0  0  0  0
  -14.4596   -1.3468   -1.0865 H   0  0  0  0  0  0  0  0  0  0  0  0
  -13.4357   -0.9519   -2.5254 H   0  0  0  0  0  0  0  0  0  0  0  0
  -10.8198   -0.3698   -0.7449 H   0  0  0  0  0  0  0  0  0  0  0  0
  -11.2717    1.9604   -0.3822 H   0  0  0  0  0  0  0  0  0  0  0  0
  -13.5972    1.8506   -1.6111 H   0  0  0  0  0  0  0  0  0  0  0  0
  -14.2702    2.6425   -0.1312 H   0  0  0  0  0  0  0  0  0  0  0  0
  -13.0075    3.4554   -1.1459 H   0  0  0  0  0  0  0  0  0  0  0  0
  -12.0023    1.7716    2.2843 H   0  0  0  0  0  0  0  0  0  0  0  0
  -11.3574    4.4625    0.0110 H   0  0  0  0  0  0  0  0  0  0  0  0
  -13.3640    6.3411    1.4340 H   0  0  0  0  0  0  0  0  0  0  0  0
  -13.6726    5.3931   -0.0740 H   0  0  0  0  0  0  0  0  0  0  0  0
  -12.4516    6.7188   -0.0782 H   0  0  0  0  0  0  0  0  0  0  0  0
  -10.9951    6.0932    2.5495 H   0  0  0  0  0  0  0  0  0  0  0  0
   -8.0002    5.0914   -0.1401 H   0  0  0  0  0  0  0  0  0  0  0  0
   -8.7138    7.0920   -1.4533 H   0  0  0  0  0  0  0  0  0  0  0  0
  -10.0230    5.8953   -1.2483 H   0  0  0  0  0  0  0  0  0  0  0  0
  -10.0169    7.4126   -0.2463 H   0  0  0  0  0  0  0  0  0  0  0  0
   -8.0477    7.5909    1.5971 H   0  0  0  0  0  0  0  0  0  0  0  0
    2.1940   -4.8925    1.2848 H   0  0  0  0  0  0  0  0  0  0  0  0
    1.7874   -4.3561   -1.5345 H   0  0  0  0  0  0  0  0  0  0  0  0
   -0.1412   -5.6854   -1.6127 H   0  0  0  0  0  0  0  0  0  0  0  0
    0.5109   -6.9308   -0.4994 H   0  0  0  0  0  0  0  0  0  0  0  0
    1.1513   -6.7515   -2.2000 H   0  0  0  0  0  0  0  0  0  0  0  0
    4.1787   -6.3432    0.9628 H   0  0  0  0  0  0  0  0  0  0  0  0
    2.7651   -8.3379   -0.8793 H   0  0  0  0  0  0  0  0  0  0  0  0
    2.0538   -9.5506    1.1166 H   0  0  0  0  0  0  0  0  0  0  0  0
    3.0393   -8.4848    2.1975 H   0  0  0  0  0  0  0  0  0  0  0  0
    1.5897   -7.8202    1.3508 H   0  0  0  0  0  0  0  0  0  0  0  0
    6.4359   -8.9383    1.0339 H   0  0  0  0  0  0  0  0  0  0  0  0
    6.1054   -6.6141   -0.6902 H   0  0  0  0  0  0  0  0  0  0  0  0
    5.4619   -8.0675   -2.4914 H   0  0  0  0  0  0  0  0  0  0  0  0
    7.1737   -7.6407   -2.7969 H   0  0  0  0  0  0  0  0  0  0  0  0
    6.7655   -9.2541   -2.1126 H   0  0  0  0  0  0  0  0  0  0  0  0
    9.3910   -6.3190    0.8850 H   0  0  0  0  0  0  0  0  0  0  0  0
    7.1228   -4.7843   -0.1511 H   0  0  0  0  0  0  0  0  0  0  0  0
    9.5273   -5.1190   -2.0388 H   0  0  0  0  0  0  0  0  0  0  0  0
    8.4927   -3.6421   -2.0549 H   0  0  0  0  0  0  0  0  0  0  0  0
    7.7739   -5.2575   -2.3791 H   0  0  0  0  0  0  0  0  0  0  0  0
   10.5088   -2.5487    0.9856 H   0  0  0  0  0  0  0  0  0  0  0  0
   10.9843   -5.2291   -0.3829 H   0  0  0  0  0  0  0  0  0  0  0  0
   12.3306   -4.0542    2.1153 H   0  0  0  0  0  0  0  0  0  0  0  0
   12.9392   -5.4773    1.1800 H   0  0  0  0  0  0  0  0  0  0  0  0
   11.3339   -5.5387    2.0009 H   0  0  0  0  0  0  0  0  0  0  0  0
   14.4054   -3.6849   -0.5162 H   0  0  0  0  0  0  0  0  0  0  0  0
   14.8397   -1.4727   -0.0736 H   0  0  0  0  0  0  0  0  0  0  0  0
   14.2694   -2.4114    2.1715 H   0  0  0  0  0  0  0  0  0  0  0  0
   12.6025   -1.7449    2.0046 H   0  0  0  0  0  0  0  0  0  0  0  0
   14.0230   -0.6381    2.0417 H   0  0  0  0  0  0  0  0  0  0  0  0
   11.3287    0.0432    0.6110 H   0  0  0  0  0  0  0  0  0  0  0  0
   12.0477    2.1753   -0.7812 H   0  0  0  0  0  0  0  0  0  0  0  0
   14.3732    1.5590   -1.2135 H   0  0  0  0  0  0  0  0  0  0  0  0
   14.4298    2.9557   -0.0793 H   0  0  0  0  0  0  0  0  0  0  0  0
   14.6959    1.2884    0.5393 H   0  0  0  0  0  0  0  0  0  0  0  0
   11.5176    4.1083    2.3992 H   0  0  0  0  0  0  0  0  0  0  0  0
   10.4717    3.8691   -0.3079 H   0  0  0  0  0  0  0  0  0  0  0  0
   11.8085    5.6752   -1.4174 H   0  0  0  0  0  0  0  0  0  0  0  0
   12.9349    5.7253   -0.0039 H   0  0  0  0  0  0  0  0  0  0  0  0
   12.8460    4.2714   -1.0498 H   0  0  0  0  0  0  0  0  0  0  0  0
    8.3972    4.7793    0.7225 H   0  0  0  0  0  0  0  0  0  0  0  0
    7.1009    6.4473   -0.1293 H   0  0  0  0  0  0  0  0  0  0  0  0
    8.5858    5.7928   -2.0030 H   0  0  0  0  0  0  0  0  0  0  0  0
    8.0209    7.4952   -2.1346 H   0  0  0  0  0  0  0  0  0  0  0  0
    9.7117    7.1436   -1.6023 H   0  0  0  0  0  0  0  0  0  0  0  0
    7.2895    9.5962    1.7089 H   0  0  0  0  0  0  0  0  0  0  0  0
    5.8768    8.2649   -0.6137 H   0  0  0  0  0  0  0  0  0  0  0  0
    5.9126   10.7368   -0.4532 H   0  0  0  0  0  0  0  0  0  0  0  0
    4.2453   10.0735   -0.3608 H   0  0  0  0  0  0  0  0  0  0  0  0
    5.0673   10.6520    1.1497 H   0  0  0  0  0  0  0  0  0  0  0  0
    2.8786    8.3889    0.7701 H   0  0  0  0  0  0  0  0  0  0  0  0
    4.1887    5.7145    0.0923 H   0  0  0  0  0  0  0  0  0  0  0  0
    1.8821    7.8772   -2.8255 H   0  0  0  0  0  0  0  0  0  0  0  0
    1.4598    8.1396   -1.0915 H   0  0  0  0  0  0  0  0  0  0  0  0
    2.0620    4.6521    0.0226 H   0  0  0  0  0  0  0  0  0  0  0  0
    1.1564    6.1673    0.3754 H   0  0  0  0  0  0  0  0  0  0  0  0
    1.4581    3.3747    3.5361 H   0  0  0  0  0  0  0  0  0  0  0  0
    2.6880    2.9804    2.3247 H   0  0  0  0  0  0  0  0  0  0  0  0
  1  2  1  0
  2  3  2  0
  2  4  1  0
  4  5  1  0
  5  6  1  0
  6  7  1  0
  7  8  1  0
  8  9  1  0
  9 10  2  0
 10 11  1  0
 11 12  2  0
 12 13  1  0
 13 14  2  0
 13 15  1  0
 15 16  1  0
 16 17  1  0
 17 18  1  0
 18 19  1  0
 19 20  1  0
 20 21  2  0
 20 22  1  0
 22 23  1  0
 22 24  1  0
 24 25  1  0
 25 26  2  0
 25 27  1  0
 27 28  1  0
 27 29  1  0
 29 30  1  0
 30 31  2  0
 30 32  1  0
 32 33  1  0
 32 34  1  0
 34 35  1  0
 35 36  2  0
 35 37  1  0
 37 38  1  0
 37 39  1  0
 39 40  1  0
 40 41  2  0
 40 42  1  0
 42 43  1  0
 42 44  1  0
 44 45  1  0
 45 46  2  0
 45 47  1  0
 47 48  1  0
 47 49  1  0
 49 50  1  0
 50 51  2  0
 50 52  1  0
 52 53  1  0
 52 54  1  0
 54 55  1  0
 55 56  2  0
 55 57  1  0
 57 58  1  0
 57 59  1  0
 59 60  1  0
 60 61  2  0
 18 62  1  0
 62 63  2  0
 62 64  1  0
 64 65  1  0
 65 66  1  0
 65 67  1  0
 67 68  2  0
 67 69  1  0
 69 70  1  0
 70 71  1  0
 70 72  1  0
 72 73  2  0
 72 74  1  0
 74 75  1  0
 75 76  1  0
 75 77  1  0
 77 78  2  0
 77 79  1  0
 79 80  1  0
 80 81  1  0
 80 82  1  0
 82 83  2  0
 82 84  1  0
 84 85  1  0
 85 86  1  0
 85 87  1  0
 87 88  2  0
 87 89  1  0
 89 90  1  0
 90 91  1  0
 90 92  1  0
 92 93  2  0
 92 94  1  0
 94 95  1  0
 95 96  1  0
 95 97  1  0
 97 98  2  0
 97 99  1  0
 99100  1  0
100101  1  0
100102  1  0
102103  2  0
102104  1  0
104105  1  0
105106  1  0
105107  1  0
107108  2  0
107109  1  0
109110  1  0
110111  1  0
110112  1  0
112113  2  0
112114  1  0
114115  1  0
115116  1  0
116117  1  0
116118  2  0
115119  1  0
119120  1  0
120121  1  0
 60  5  1  0
 14  9  1  0
121 11  1  0
  1122  1  0
  1123  1  0
  1124  1  0
  4125  1  0
  5126  1  6
  6127  1  0
  6128  1  0
  8129  1  0
  8130  1  0
 10131  1  0
 12132  1  0
 14133  1  0
 15134  1  0
 15135  1  0
 17136  1  0
 17137  1  0
 18138  1  6
 19139  1  0
 22140  1  6
 23141  1  0
 23142  1  0
 23143  1  0
 24144  1  0
 27145  1  1
 28146  1  0
 28147  1  0
 28148  1  0
 29149  1  0
 32150  1  6
 33151  1  0
 33152  1  0
 33153  1  0
 34154  1  0
 37155  1  6
 38156  1  0
 38157  1  0
 38158  1  0
 39159  1  0
 42160  1  6
 43161  1  0
 43162  1  0
 43163  1  0
 44164  1  0
 47165  1  6
 48166  1  0
 48167  1  0
 48168  1  0
 49169  1  0
 52170  1  6
 53171  1  0
 53172  1  0
 53173  1  0
 54174  1  0
 57175  1  6
 58176  1  0
 58177  1  0
 58178  1  0
 59179  1  0
 64180  1  0
 65181  1  6
 66182  1  0
 66183  1  0
 66184  1  0
 69185  1  0
 70186  1  6
 71187  1  0
 71188  1  0
 71189  1  0
 74190  1  0
 75191  1  6
 76192  1  0
 76193  1  0
 76194  1  0
 79195  1  0
 80196  1  6
 81197  1  0
 81198  1  0
 81199  1  0
 84200  1  0
 85201  1  6
 86202  1  0
 86203  1  0
 86204  1  0
 89205  1  0
 90206  1  1
 91207  1  0
 91208  1  0
 91209  1  0
 94210  1  0
 95211  1  6
 96212  1  0
 96213  1  0
 96214  1  0
 99215  1  0
100216  1  6
101217  1  0
101218  1  0
101219  1  0
104220  1  0
105221  1  6
106222  1  0
106223  1  0
106224  1  0
109225  1  0
110226  1  6
111227  1  0
111228  1  0
111229  1  0
114230  1  0
115231  1  6
117232  1  0
117233  1  0
119234  1  0
119235  1  0
121236  1  0
121237  1  0
M  END
