
     RDKit          3D

187189  0  0  0  0  0  0  0  0999 V2000
   -0.3384    9.9595   -1.1865 C   0  0  0  0  0  0  0  0  0  0  0  0
   -0.8464    8.8427   -0.3303 C   0  0  0  0  0  0  0  0  0  0  0  0
   -0.6945    8.9317    0.9221 O   0  0  0  0  0  0  0  0  0  0  0  0
   -1.5549    7.7333   -0.9105 N   0  0  0  0  0  0  0  0  0  0  0  0
   -1.7470    6.4116   -0.2931 C   0  0  1  0  0  0  0  0  0  0  0  0
   -0.4602    5.5784   -0.4666 C   0  0  0  0  0  0  0  0  0  0  0  0
   -0.7700    3.7884   -0.2015 S   0  0  0  0  0  0  0  0  0  0  0  0
    0.1117    3.5859    1.3871 C   0  0  0  0  0  0  0  0  0  0  0  0
    1.4944    3.0290    1.1732 C   0  0  0  0  0  0  0  0  0  0  0  0
    1.7188    1.6441    1.2519 C   0  0  0  0  0  0  0  0  0  0  0  0
    3.0226    1.1243    1.2153 C   0  0  0  0  0  0  0  0  0  0  0  0
    4.1052    2.0033    1.0484 C   0  0  0  0  0  0  0  0  0  0  0  0
    3.9004    3.3903    0.9754 C   0  0  0  0  0  0  0  0  0  0  0  0
    2.5907    3.8979    1.0452 C   0  0  0  0  0  0  0  0  0  0  0  0
    5.0752    4.3272    0.9339 C   0  0  0  0  0  0  0  0  0  0  0  0
    5.0592    5.3092   -0.6141 S   0  0  0  0  0  0  0  0  0  0  0  0
    6.4875    4.5033   -1.4505 C   0  0  0  0  0  0  0  0  0  0  0  0
    7.8343    5.1954   -1.1441 C   0  0  1  0  0  0  0  0  0  0  0  0
    7.8412    6.6719   -1.4736 C   0  0  0  0  0  0  0  0  0  0  0  0
    8.7641    7.5544   -0.8232 N   0  0  0  0  0  0  0  0  0  0  0  0
    7.0762    7.1326   -2.3662 O   0  0  0  0  0  0  0  0  0  0  0  0
    8.1982    4.9766    0.2647 N   0  0  0  0  0  0  0  0  0  0  0  0
    8.9869    3.8737    0.7546 C   0  0  0  0  0  0  0  0  0  0  0  0
    9.1153    3.7386    2.0001 O   0  0  0  0  0  0  0  0  0  0  0  0
    9.7954    2.9831   -0.1722 C   0  0  1  0  0  0  0  0  0  0  0  0
   11.1234    3.6923   -0.4855 C   0  0  0  0  0  0  0  0  0  0  0  0
   10.0600    1.6692    0.4303 N   0  0  0  0  0  0  0  0  0  0  0  0
   10.7761    0.6439   -0.2836 C   0  0  0  0  0  0  0  0  0  0  0  0
   10.8670    0.7192   -1.5401 O   0  0  0  0  0  0  0  0  0  0  0  0
   11.5448   -0.4352    0.4561 C   0  0  1  0  0  0  0  0  0  0  0  0
   10.8437   -0.9384    1.7225 C   0  0  0  0  0  0  0  0  0  0  0  0
   11.9276   -1.5625   -0.4158 N   0  0  0  0  0  0  0  0  0  0  0  0
   11.0870   -2.1586   -1.4215 C   0  0  0  0  0  0  0  0  0  0  0  0
   11.3375   -1.9326   -2.6327 O   0  0  0  0  0  0  0  0  0  0  0  0
    9.9526   -3.0959   -1.0755 C   0  0  1  0  0  0  0  0  0  0  0  0
   10.3866   -4.0828    0.0182 C   0  0  0  0  0  0  0  0  0  0  0  0
    8.7579   -2.3335   -0.6862 N   0  0  0  0  0  0  0  0  0  0  0  0
    7.4478   -2.8683   -0.4214 C   0  0  0  0  0  0  0  0  0  0  0  0
    6.6048   -2.1159    0.1346 O   0  0  0  0  0  0  0  0  0  0  0  0
    7.0311   -4.2775   -0.7915 C   0  0  1  0  0  0  0  0  0  0  0  0
    6.6958   -5.1066    0.4554 C   0  0  0  0  0  0  0  0  0  0  0  0
    5.9092   -4.2628   -1.7466 N   0  0  0  0  0  0  0  0  0  0  0  0
    4.6727   -3.5503   -1.5686 C   0  0  0  0  0  0  0  0  0  0  0  0
    4.3835   -2.6307   -2.3831 O   0  0  0  0  0  0  0  0  0  0  0  0
    3.6599   -3.9730   -0.5264 C   0  0  1  0  0  0  0  0  0  0  0  0
    3.4511   -2.9087    0.5722 C   0  0  0  0  0  0  0  0  0  0  0  0
    2.8680   -1.2936   -0.0826 S   0  0  0  0  0  0  0  0  0  0  0  0
    3.2625   -0.3465    1.4305 C   0  0  0  0  0  0  0  0  0  0  0  0
    2.3810   -4.2916   -1.1696 N   0  0  0  0  0  0  0  0  0  0  0  0
    1.9793   -5.6427   -1.4050 C   0  0  0  0  0  0  0  0  0  0  0  0
    2.1375   -6.1404   -2.5511 O   0  0  0  0  0  0  0  0  0  0  0  0
    1.2934   -6.4546   -0.3331 C   0  0  1  0  0  0  0  0  0  0  0  0
    2.2618   -6.8232    0.7934 C   0  0  0  0  0  0  0  0  0  0  0  0
    0.1625   -5.6957    0.2162 N   0  0  0  0  0  0  0  0  0  0  0  0
   -1.2038   -6.1467    0.2650 C   0  0  0  0  0  0  0  0  0  0  0  0
   -2.0092   -5.5351    1.0208 O   0  0  0  0  0  0  0  0  0  0  0  0
   -1.7012   -7.3638   -0.4972 C   0  0  1  0  0  0  0  0  0  0  0  0
   -1.3642   -8.6277    0.3158 C   0  0  0  0  0  0  0  0  0  0  0  0
   -3.1486   -7.2284   -0.7607 N   0  0  0  0  0  0  0  0  0  0  0  0
   -4.0859   -8.3196   -0.8952 C   0  0  0  0  0  0  0  0  0  0  0  0
   -3.6692   -9.4780   -1.1352 O   0  0  0  0  0  0  0  0  0  0  0  0
   -5.5794   -8.0996   -0.7429 C   0  0  1  0  0  0  0  0  0  0  0  0
   -6.1602   -9.0703    0.2921 C   0  0  0  0  0  0  0  0  0  0  0  0
   -5.8888   -6.7307   -0.3307 N   0  0  0  0  0  0  0  0  0  0  0  0
   -6.6224   -5.8357   -1.1731 C   0  0  0  0  0  0  0  0  0  0  0  0
   -6.0532   -5.3272   -2.1785 O   0  0  0  0  0  0  0  0  0  0  0  0
   -8.0717   -5.5351   -0.9039 C   0  0  1  0  0  0  0  0  0  0  0  0
   -8.9525   -6.6282   -1.5169 C   0  0  0  0  0  0  0  0  0  0  0  0
   -8.3220   -5.4415    0.5393 N   0  0  0  0  0  0  0  0  0  0  0  0
   -8.4705   -4.1864    1.2147 C   0  0  0  0  0  0  0  0  0  0  0  0
   -7.6704   -3.9039    2.1546 O   0  0  0  0  0  0  0  0  0  0  0  0
   -9.5526   -3.1967    0.8209 C   0  0  1  0  0  0  0  0  0  0  0  0
  -10.8962   -3.9158    0.6601 C   0  0  0  0  0  0  0  0  0  0  0  0
   -9.7027   -2.1426    1.8362 N   0  0  0  0  0  0  0  0  0  0  0  0
  -10.3136   -0.8632    1.5956 C   0  0  0  0  0  0  0  0  0  0  0  0
  -10.6019   -0.1369    2.5901 O   0  0  0  0  0  0  0  0  0  0  0  0
  -10.5636   -0.3311    0.1951 C   0  0  1  0  0  0  0  0  0  0  0  0
  -11.7209    0.6774    0.1605 C   0  0  0  0  0  0  0  0  0  0  0  0
   -9.3509    0.2764   -0.3666 N   0  0  0  0  0  0  0  0  0  0  0  0
   -8.6845    1.4152    0.2125 C   0  0  0  0  0  0  0  0  0  0  0  0
   -8.5716    1.4978    1.4645 O   0  0  0  0  0  0  0  0  0  0  0  0
   -8.1606    2.5598   -0.6214 C   0  0  1  0  0  0  0  0  0  0  0  0
   -7.9144    2.1817   -2.0889 C   0  0  0  0  0  0  0  0  0  0  0  0
   -9.1338    3.6578   -0.5661 N   0  0  0  0  0  0  0  0  0  0  0  0
   -8.8741    5.0308   -0.2312 C   0  0  0  0  0  0  0  0  0  0  0  0
   -9.8657    5.7678    0.0384 O   0  0  0  0  0  0  0  0  0  0  0  0
   -7.4939    5.6713   -0.2543 C   0  0  1  0  0  0  0  0  0  0  0  0
   -7.4210    6.6350   -1.4422 C   0  0  0  0  0  0  0  0  0  0  0  0
   -7.2718    6.4001    1.0058 N   0  0  0  0  0  0  0  0  0  0  0  0
   -5.9988    6.7830    1.5637 C   0  0  0  0  0  0  0  0  0  0  0  0
   -5.9760    7.1680    2.7635 O   0  0  0  0  0  0  0  0  0  0  0  0
   -4.7261    6.8808    0.7455 C   0  0  1  0  0  0  0  0  0  0  0  0
   -4.5700    8.3439    0.2938 C   0  0  0  0  0  0  0  0  0  0  0  0
   -3.5678    6.4650    1.5593 N   0  0  0  0  0  0  0  0  0  0  0  0
   -2.1866    6.5079    1.1586 C   0  0  0  0  0  0  0  0  0  0  0  0
   -1.3109    6.5625    2.0649 O   0  0  0  0  0  0  0  0  0  0  0  0
   -0.5707    9.7867   -2.2588 H   0  0  0  0  0  0  0  0  0  0  0  0
   -0.8030   10.9177   -0.8648 H   0  0  0  0  0  0  0  0  0  0  0  0
    0.7637   10.0413   -1.0678 H   0  0  0  0  0  0  0  0  0  0  0  0
   -1.8581    7.8370   -1.9068 H   0  0  0  0  0  0  0  0  0  0  0  0
   -2.5467    5.8923   -0.8612 H   0  0  0  0  0  0  0  0  0  0  0  0
    0.3576    5.9749    0.1738 H   0  0  0  0  0  0  0  0  0  0  0  0
   -0.1136    5.6850   -1.5161 H   0  0  0  0  0  0  0  0  0  0  0  0
   -0.4808    2.8806    2.0107 H   0  0  0  0  0  0  0  0  0  0  0  0
    0.1557    4.5302    1.9651 H   0  0  0  0  0  0  0  0  0  0  0  0
    0.8815    0.9758    1.3993 H   0  0  0  0  0  0  0  0  0  0  0  0
    5.1150    1.6103    1.0267 H   0  0  0  0  0  0  0  0  0  0  0  0
    2.4344    4.9700    1.0471 H   0  0  0  0  0  0  0  0  0  0  0  0
    6.0277    3.7726    1.0643 H   0  0  0  0  0  0  0  0  0  0  0  0
    4.9968    5.0324    1.7904 H   0  0  0  0  0  0  0  0  0  0  0  0
    6.5413    3.4242   -1.1844 H   0  0  0  0  0  0  0  0  0  0  0  0
    6.3022    4.5453   -2.5429 H   0  0  0  0  0  0  0  0  0  0  0  0
    8.6044    4.7564   -1.8023 H   0  0  0  0  0  0  0  0  0  0  0  0
    9.5191    7.1912   -0.2040 H   0  0  0  0  0  0  0  0  0  0  0  0
    8.7472    8.5774   -1.0454 H   0  0  0  0  0  0  0  0  0  0  0  0
    7.7729    5.6162    0.9752 H   0  0  0  0  0  0  0  0  0  0  0  0
    9.2362    2.8115   -1.1091 H   0  0  0  0  0  0  0  0  0  0  0  0
   11.7694    3.7176    0.4172 H   0  0  0  0  0  0  0  0  0  0  0  0
   10.9442    4.7391   -0.8181 H   0  0  0  0  0  0  0  0  0  0  0  0
   11.6658    3.1663   -1.2972 H   0  0  0  0  0  0  0  0  0  0  0  0
    9.5895    1.4083    1.3303 H   0  0  0  0  0  0  0  0  0  0  0  0
   12.4846    0.0515    0.8010 H   0  0  0  0  0  0  0  0  0  0  0  0
    9.8053   -1.2560    1.5166 H   0  0  0  0  0  0  0  0  0  0  0  0
   11.4123   -1.7891    2.1527 H   0  0  0  0  0  0  0  0  0  0  0  0
   10.8266   -0.1384    2.4927 H   0  0  0  0  0  0  0  0  0  0  0  0
   12.9555   -1.7112   -0.5419 H   0  0  0  0  0  0  0  0  0  0  0  0
    9.7203   -3.6810   -1.9926 H   0  0  0  0  0  0  0  0  0  0  0  0
    9.6880   -4.9376    0.0778 H   0  0  0  0  0  0  0  0  0  0  0  0
   10.4299   -3.5999    1.0106 H   0  0  0  0  0  0  0  0  0  0  0  0
   11.3889   -4.5010   -0.2169 H   0  0  0  0  0  0  0  0  0  0  0  0
    8.8423   -1.2997   -0.5769 H   0  0  0  0  0  0  0  0  0  0  0  0
    7.8699   -4.7993   -1.2943 H   0  0  0  0  0  0  0  0  0  0  0  0
    7.6153   -5.3260    1.0326 H   0  0  0  0  0  0  0  0  0  0  0  0
    6.0009   -4.5633    1.1254 H   0  0  0  0  0  0  0  0  0  0  0  0
    6.2370   -6.0747    0.1592 H   0  0  0  0  0  0  0  0  0  0  0  0
    6.1295   -4.5709   -2.7246 H   0  0  0  0  0  0  0  0  0  0  0  0
    4.0456   -4.8858   -0.0364 H   0  0  0  0  0  0  0  0  0  0  0  0
    4.3987   -2.7741    1.1324 H   0  0  0  0  0  0  0  0  0  0  0  0
    2.6931   -3.2834    1.2945 H   0  0  0  0  0  0  0  0  0  0  0  0
    4.3274   -0.5210    1.7084 H   0  0  0  0  0  0  0  0  0  0  0  0
    2.6245   -0.7074    2.2672 H   0  0  0  0  0  0  0  0  0  0  0  0
    1.8855   -3.5441   -1.7002 H   0  0  0  0  0  0  0  0  0  0  0  0
    0.9558   -7.4069   -0.7895 H   0  0  0  0  0  0  0  0  0  0  0  0
    3.1883   -7.2847    0.3849 H   0  0  0  0  0  0  0  0  0  0  0  0
    2.5315   -5.9284    1.3945 H   0  0  0  0  0  0  0  0  0  0  0  0
    1.7808   -7.5588    1.4771 H   0  0  0  0  0  0  0  0  0  0  0  0
    0.3824   -4.7892    0.6928 H   0  0  0  0  0  0  0  0  0  0  0  0
   -1.1840   -7.4035   -1.4781 H   0  0  0  0  0  0  0  0  0  0  0  0
   -0.3500   -8.5705    0.7581 H   0  0  0  0  0  0  0  0  0  0  0  0
   -2.0920   -8.7669    1.1407 H   0  0  0  0  0  0  0  0  0  0  0  0
   -1.3642   -9.5173   -0.3450 H   0  0  0  0  0  0  0  0  0  0  0  0
   -3.4952   -6.2713   -0.9971 H   0  0  0  0  0  0  0  0  0  0  0  0
   -6.0629   -8.3208   -1.7198 H   0  0  0  0  0  0  0  0  0  0  0  0
   -7.2455   -8.8899    0.4282 H   0  0  0  0  0  0  0  0  0  0  0  0
   -5.6556   -8.9378    1.2751 H   0  0  0  0  0  0  0  0  0  0  0  0
   -6.0244  -10.1234   -0.0325 H   0  0  0  0  0  0  0  0  0  0  0  0
   -5.5951   -6.4010    0.6211 H   0  0  0  0  0  0  0  0  0  0  0  0
   -8.3351   -4.5711   -1.3951 H   0  0  0  0  0  0  0  0  0  0  0  0
  -10.0247   -6.4051   -1.3541 H   0  0  0  0  0  0  0  0  0  0  0  0
   -8.7276   -7.6147   -1.0640 H   0  0  0  0  0  0  0  0  0  0  0  0
   -8.7789   -6.6941   -2.6119 H   0  0  0  0  0  0  0  0  0  0  0  0
   -8.1163   -6.2807    1.1231 H   0  0  0  0  0  0  0  0  0  0  0  0
   -9.2503   -2.7397   -0.1454 H   0  0  0  0  0  0  0  0  0  0  0  0
  -11.7171   -3.1892    0.4686 H   0  0  0  0  0  0  0  0  0  0  0  0
  -11.1469   -4.4913    1.5792 H   0  0  0  0  0  0  0  0  0  0  0  0
  -10.8632   -4.6122   -0.1973 H   0  0  0  0  0  0  0  0  0  0  0  0
   -9.5263   -2.3851    2.8367 H   0  0  0  0  0  0  0  0  0  0  0  0
  -10.8742   -1.1715   -0.4619 H   0  0  0  0  0  0  0  0  0  0  0  0
  -11.8937    1.0174   -0.8860 H   0  0  0  0  0  0  0  0  0  0  0  0
  -12.6524    0.1985    0.5329 H   0  0  0  0  0  0  0  0  0  0  0  0
  -11.4920    1.5653    0.7864 H   0  0  0  0  0  0  0  0  0  0  0  0
   -9.0129   -0.0978   -1.2875 H   0  0  0  0  0  0  0  0  0  0  0  0
   -7.1904    2.8594   -0.1823 H   0  0  0  0  0  0  0  0  0  0  0  0
   -7.4571    3.0431   -2.6233 H   0  0  0  0  0  0  0  0  0  0  0  0
   -7.2138    1.3224   -2.1552 H   0  0  0  0  0  0  0  0  0  0  0  0
   -8.8695    1.9218   -2.5950 H   0  0  0  0  0  0  0  0  0  0  0  0
  -10.1320    3.4072   -0.7608 H   0  0  0  0  0  0  0  0  0  0  0  0
   -6.6996    4.9132   -0.3742 H   0  0  0  0  0  0  0  0  0  0  0  0
   -6.4215    7.0950   -1.5330 H   0  0  0  0  0  0  0  0  0  0  0  0
   -7.6300    6.0831   -2.3832 H   0  0  0  0  0  0  0  0  0  0  0  0
   -8.1717    7.4456   -1.3376 H   0  0  0  0  0  0  0  0  0  0  0  0
   -8.1007    6.6214    1.6049 H   0  0  0  0  0  0  0  0  0  0  0  0
   -4.7896    6.2237   -0.1468 H   0  0  0  0  0  0  0  0  0  0  0  0
   -5.5514    8.7914    0.0210 H   0  0  0  0  0  0  0  0  0  0  0  0
   -4.1252    8.9613    1.1076 H   0  0  0  0  0  0  0  0  0  0  0  0
   -3.9326    8.4159   -0.6074 H   0  0  0  0  0  0  0  0  0  0  0  0
   -3.7350    6.1622    2.5460 H   0  0  0  0  0  0  0  0  0  0  0  0
  1  2  1  0
  2  3  2  0
  2  4  1  0
  4  5  1  0
  5  6  1  0
  6  7  1  0
  7  8  1  0
  8  9  1  0
  9 10  1  0
 10 11  2  0
 11 12  1  0
 12 13  2  0
 13 14  1  0
 13 15  1  0
 15 16  1  0
 16 17  1  0
 17 18  1  0
 18 19  1  0
 19 20  1  0
 19 21  2  0
 18 22  1  0
 22 23  1  0
 23 24  2  0
 23 25  1  0
 25 26  1  0
 25 27  1  0
 27 28  1  0
 28 29  2  0
 28 30  1  0
 30 31  1  0
 30 32  1  0
 32 33  1  0
 33 34  2  0
 33 35  1  0
 35 36  1  0
 35 37  1  0
 37 38  1  0
 38 39  2  0
 38 40  1  0
 40 41  1  0
 40 42  1  0
 42 43  1  0
 43 44  2  0
 43 45  1  0
 45 46  1  0
 46 47  1  0
 47 48  1  0
 45 49  1  0
 49 50  1  0
 50 51  2  0
 50 52  1  0
 52 53  1  0
 52 54  1  0
 54 55  1  0
 55 56  2  0
 55 57  1  0
 57 58  1  0
 57 59  1  0
 59 60  1  0
 60 61  2  0
 60 62  1  0
 62 63  1  0
 62 64  1  0
 64 65  1  0
 65 66  2  0
 65 67  1  0
 67 68  1  0
 67 69  1  0
 69 70  1  0
 70 71  2  0
 70 72  1  0
 72 73  1  0
 72 74  1  0
 74 75  1  0
 75 76  2  0
 75 77  1  0
 77 78  1  0
 77 79  1  0
 79 80  1  0
 80 81  2  0
 80 82  1  0
 82 83  1  0
 82 84  1  0
 84 85  1  0
 85 86  2  0
 85 87  1  0
 87 88  1  0
 87 89  1  0
 89 90  1  0
 90 91  2  0
 90 92  1  0
 92 93  1  0
 92 94  1  0
 94 95  1  0
 95 96  2  0
 95  5  1  0
 14  9  2  0
 48 11  1  0
  1 97  1  0
  1 98  1  0
  1 99  1  0
  4100  1  0
  5101  1  6
  6102  1  0
  6103  1  0
  8104  1  0
  8105  1  0
 10106  1  0
 12107  1  0
 14108  1  0
 15109  1  0
 15110  1  0
 17111  1  0
 17112  1  0
 18113  1  6
 20114  1  0
 20115  1  0
 22116  1  0
 25117  1  6
 26118  1  0
 26119  1  0
 26120  1  0
 27121  1  0
 30122  1  1
 31123  1  0
 31124  1  0
 31125  1  0
 32126  1  0
 35127  1  6
 36128  1  0
 36129  1  0
 36130  1  0
 37131  1  0
 40132  1  6
 41133  1  0
 41134  1  0
 41135  1  0
 42136  1  0
 45137  1  1
 46138  1  0
 46139  1  0
 48140  1  0
 48141  1  0
 49142  1  0
 52143  1  6
 53144  1  0
 53145  1  0
 53146  1  0
 54147  1  0
 57148  1  6
 58149  1  0
 58150  1  0
 58151  1  0
 59152  1  0
 62153  1  6
 63154  1  0
 63155  1  0
 63156  1  0
 64157  1  0
 67158  1  6
 68159  1  0
 68160  1  0
 68161  1  0
 69162  1  0
 72163  1  6
 73164  1  0
 73165  1  0
 73166  1  0
 74167  1  0
 77168  1  6
 78169  1  0
 78170  1  0
 78171  1  0
 79172  1  0
 82173  1  1
 83174  1  0
 83175  1  0
 83176  1  0
 84177  1  0
 87178  1  6
 88179  1  0
 88180  1  0
 88181  1  0
 89182  1  0
 92183  1  6
 93184  1  0
 93185  1  0
 93186  1  0
 94187  1  0
M  END
