
     RDKit          3D

237239  0  0  0  0  0  0  0  0999 V2000
    6.4093   -8.6693    2.0008 C   0  0  0  0  0  0  0  0  0  0  0  0
    5.9141   -7.4048    2.6233 C   0  0  0  0  0  0  0  0  0  0  0  0
    6.2362   -7.1374    3.8065 O   0  0  0  0  0  0  0  0  0  0  0  0
    5.0152   -6.5195    1.9430 N   0  0  0  0  0  0  0  0  0  0  0  0
    4.6574   -6.6563    0.5203 C   0  0  1  0  0  0  0  0  0  0  0  0
    3.2669   -6.0462    0.2652 C   0  0  0  0  0  0  0  0  0  0  0  0
    3.2406   -4.2230    0.5076 S   0  0  0  0  0  0  0  0  0  0  0  0
    3.1969   -3.7064   -1.2480 C   0  0  0  0  0  0  0  0  0  0  0  0
    1.9363   -2.9321   -1.5233 C   0  0  0  0  0  0  0  0  0  0  0  0
    0.6806   -3.5528   -1.4014 C   0  0  0  0  0  0  0  0  0  0  0  0
   -0.4954   -2.8422   -1.6996 C   0  0  0  0  0  0  0  0  0  0  0  0
   -0.4022   -1.5118   -2.1412 C   0  0  0  0  0  0  0  0  0  0  0  0
    0.8472   -0.8664   -2.2243 C   0  0  0  0  0  0  0  0  0  0  0  0
    2.0093   -1.5986   -1.9437 C   0  0  0  0  0  0  0  0  0  0  0  0
    0.9825    0.5561   -2.7220 C   0  0  0  0  0  0  0  0  0  0  0  0
   -0.4676    1.6141   -2.3529 S   0  0  0  0  0  0  0  0  0  0  0  0
   -0.2571    1.7119   -0.5324 C   0  0  0  0  0  0  0  0  0  0  0  0
    0.8805    2.6456   -0.0708 C   0  0  2  0  0  0  0  0  0  0  0  0
    0.7664    2.9092    1.3673 N   0  0  0  0  0  0  0  0  0  0  0  0
    1.8448    3.3483    2.2117 C   0  0  0  0  0  0  0  0  0  0  0  0
    1.7066    3.2408    3.4533 O   0  0  0  0  0  0  0  0  0  0  0  0
    3.1549    3.8593    1.6518 C   0  0  1  0  0  0  0  0  0  0  0  0
    3.7921    4.8961    2.5701 C   0  0  0  0  0  0  0  0  0  0  0  0
    4.0732    2.7338    1.4510 N   0  0  0  0  0  0  0  0  0  0  0  0
    4.6997    2.4446    0.1917 C   0  0  0  0  0  0  0  0  0  0  0  0
    4.4644    1.3389   -0.3555 O   0  0  0  0  0  0  0  0  0  0  0  0
    5.6966    3.3862   -0.4547 C   0  0  1  0  0  0  0  0  0  0  0  0
    4.9971    4.5152   -1.2098 C   0  0  0  0  0  0  0  0  0  0  0  0
    6.6184    3.9291    0.5531 N   0  0  0  0  0  0  0  0  0  0  0  0
    7.8024    4.6938    0.2587 C   0  0  0  0  0  0  0  0  0  0  0  0
    8.3720    5.3020    1.2033 O   0  0  0  0  0  0  0  0  0  0  0  0
    8.4486    4.7252   -1.1023 C   0  0  1  0  0  0  0  0  0  0  0  0
    8.6186    6.1926   -1.5472 C   0  0  0  0  0  0  0  0  0  0  0  0
    9.7159    3.9887   -1.0387 N   0  0  0  0  0  0  0  0  0  0  0  0
   11.0020    4.5095   -1.4209 C   0  0  0  0  0  0  0  0  0  0  0  0
   11.1445    5.0359   -2.5629 O   0  0  0  0  0  0  0  0  0  0  0  0
   12.2000    4.3120   -0.5252 C   0  0  1  0  0  0  0  0  0  0  0  0
   13.0678    5.5688   -0.5148 C   0  0  0  0  0  0  0  0  0  0  0  0
   11.7577    4.0061    0.8370 N   0  0  0  0  0  0  0  0  0  0  0  0
   11.9343    2.7447    1.5150 C   0  0  0  0  0  0  0  0  0  0  0  0
   11.2335    2.5281    2.5417 O   0  0  0  0  0  0  0  0  0  0  0  0
   12.9760    1.7233    1.0898 C   0  0  1  0  0  0  0  0  0  0  0  0
   14.3717    2.3231    1.2800 C   0  0  0  0  0  0  0  0  0  0  0  0
   12.8659    0.4858    1.8797 N   0  0  0  0  0  0  0  0  0  0  0  0
   13.2650   -0.8366    1.4534 C   0  0  0  0  0  0  0  0  0  0  0  0
   13.1811   -1.7825    2.2802 O   0  0  0  0  0  0  0  0  0  0  0  0
   13.8045   -1.1570    0.0675 C   0  0  1  0  0  0  0  0  0  0  0  0
   15.3239   -1.3401    0.1301 C   0  0  0  0  0  0  0  0  0  0  0  0
   13.1981   -2.4043   -0.4231 N   0  0  0  0  0  0  0  0  0  0  0  0
   11.7694   -2.5522   -0.5777 C   0  0  0  0  0  0  0  0  0  0  0  0
   11.0564   -1.5259   -0.7802 O   0  0  0  0  0  0  0  0  0  0  0  0
   11.0876   -3.8990   -0.4532 C   0  0  1  0  0  0  0  0  0  0  0  0
   12.0748   -5.0593   -0.2437 C   0  0  0  0  0  0  0  0  0  0  0  0
   10.1448   -3.8667    0.6717 N   0  0  0  0  0  0  0  0  0  0  0  0
    9.0764   -4.8105    0.8110 C   0  0  0  0  0  0  0  0  0  0  0  0
    8.8911   -5.3464    1.9371 O   0  0  0  0  0  0  0  0  0  0  0  0
    8.1622   -5.1770   -0.3325 C   0  0  1  0  0  0  0  0  0  0  0  0
    8.6262   -6.5106   -0.9483 C   0  0  0  0  0  0  0  0  0  0  0  0
    6.7739   -5.2411    0.1705 N   0  0  0  0  0  0  0  0  0  0  0  0
    5.7156   -6.0470   -0.3831 C   0  0  0  0  0  0  0  0  0  0  0  0
    5.6640   -6.2585   -1.6237 O   0  0  0  0  0  0  0  0  0  0  0  0
    0.9286    3.9363   -0.8540 C   0  0  0  0  0  0  0  0  0  0  0  0
    1.5921    3.9672   -1.9215 O   0  0  0  0  0  0  0  0  0  0  0  0
    0.3266    5.1444   -0.3747 N   0  0  0  0  0  0  0  0  0  0  0  0
   -1.1068    5.2051   -0.0703 C   0  0  2  0  0  0  0  0  0  0  0  0
   -1.8822    5.3738   -1.3841 C   0  0  0  0  0  0  0  0  0  0  0  0
   -1.3548    6.3149    0.9153 C   0  0  0  0  0  0  0  0  0  0  0  0
   -0.7081    6.3437    2.0034 O   0  0  0  0  0  0  0  0  0  0  0  0
   -2.3471    7.3187    0.6605 N   0  0  0  0  0  0  0  0  0  0  0  0
   -3.7346    7.2504    1.1609 C   0  0  2  0  0  0  0  0  0  0  0  0
   -4.0925    5.8710    1.7463 C   0  0  0  0  0  0  0  0  0  0  0  0
   -4.7131    7.6011    0.0631 C   0  0  0  0  0  0  0  0  0  0  0  0
   -4.3209    7.7084   -1.1257 O   0  0  0  0  0  0  0  0  0  0  0  0
   -6.0991    7.8020    0.3873 N   0  0  0  0  0  0  0  0  0  0  0  0
   -7.1726    7.1603   -0.3863 C   0  0  2  0  0  0  0  0  0  0  0  0
   -7.3227    7.8223   -1.7636 C   0  0  0  0  0  0  0  0  0  0  0  0
   -8.4700    7.2523    0.3869 C   0  0  0  0  0  0  0  0  0  0  0  0
   -9.0132    8.3863    0.5145 O   0  0  0  0  0  0  0  0  0  0  0  0
   -9.0383    6.1304    1.0910 N   0  0  0  0  0  0  0  0  0  0  0  0
   -8.7900    4.7207    0.7863 C   0  0  2  0  0  0  0  0  0  0  0  0
   -9.1573    4.3643   -0.6643 C   0  0  0  0  0  0  0  0  0  0  0  0
   -9.4584    3.8316    1.8278 C   0  0  0  0  0  0  0  0  0  0  0  0
   -8.7644    3.4983    2.8253 O   0  0  0  0  0  0  0  0  0  0  0  0
  -10.8128    3.3449    1.7379 N   0  0  0  0  0  0  0  0  0  0  0  0
  -11.9309    3.9021    0.9653 C   0  0  2  0  0  0  0  0  0  0  0  0
  -12.3021    5.3145    1.4370 C   0  0  0  0  0  0  0  0  0  0  0  0
  -13.1503    3.0110    1.0871 C   0  0  0  0  0  0  0  0  0  0  0  0
  -13.7112    2.8715    2.2057 O   0  0  0  0  0  0  0  0  0  0  0  0
  -13.6639    2.3041   -0.0445 N   0  0  0  0  0  0  0  0  0  0  0  0
  -12.8027    1.5080   -0.9236 C   0  0  2  0  0  0  0  0  0  0  0  0
  -12.8055    2.0904   -2.3379 C   0  0  0  0  0  0  0  0  0  0  0  0
  -13.2774    0.0728   -0.9331 C   0  0  0  0  0  0  0  0  0  0  0  0
  -14.3754   -0.1911   -1.4941 O   0  0  0  0  0  0  0  0  0  0  0  0
  -12.6044   -0.9778   -0.2171 N   0  0  0  0  0  0  0  0  0  0  0  0
  -11.2362   -0.9110    0.3095 C   0  0  2  0  0  0  0  0  0  0  0  0
  -10.2016   -0.8065   -0.8260 C   0  0  0  0  0  0  0  0  0  0  0  0
  -10.9614   -2.0980    1.2135 C   0  0  0  0  0  0  0  0  0  0  0  0
  -10.5549   -1.8709    2.3849 O   0  0  0  0  0  0  0  0  0  0  0  0
  -11.1709   -3.4663    0.8223 N   0  0  0  0  0  0  0  0  0  0  0  0
  -11.1688   -3.9734   -0.5560 C   0  0  2  0  0  0  0  0  0  0  0  0
  -11.9205   -5.3037   -0.6223 C   0  0  0  0  0  0  0  0  0  0  0  0
   -9.7566   -4.1572   -1.0669 C   0  0  0  0  0  0  0  0  0  0  0  0
   -9.4424   -3.6766   -2.1851 O   0  0  0  0  0  0  0  0  0  0  0  0
   -8.8056   -4.9769   -0.3774 N   0  0  0  0  0  0  0  0  0  0  0  0
   -8.0855   -4.4977    0.8105 C   0  0  2  0  0  0  0  0  0  0  0  0
   -6.8293   -3.7210    0.4026 C   0  0  0  0  0  0  0  0  0  0  0  0
   -7.8284   -5.6423    1.7579 C   0  0  0  0  0  0  0  0  0  0  0  0
   -8.7377   -5.9568    2.5716 O   0  0  0  0  0  0  0  0  0  0  0  0
   -6.5743   -6.3438    1.8249 N   0  0  0  0  0  0  0  0  0  0  0  0
   -5.9313   -6.9585    0.6578 C   0  0  2  0  0  0  0  0  0  0  0  0
   -6.3141   -8.4383    0.5844 C   0  0  0  0  0  0  0  0  0  0  0  0
   -4.4302   -6.8137    0.7810 C   0  0  0  0  0  0  0  0  0  0  0  0
   -3.8814   -7.1283    1.8671 O   0  0  0  0  0  0  0  0  0  0  0  0
   -3.6082   -6.3286   -0.2988 N   0  0  0  0  0  0  0  0  0  0  0  0
   -3.8882   -6.5493   -1.7248 C   0  0  2  0  0  0  0  0  0  0  0  0
   -2.9774   -7.6173   -2.2932 C   0  0  0  0  0  0  0  0  0  0  0  0
   -3.1965   -8.1136   -3.6192 N   0  0  0  0  0  0  0  0  0  0  0  0
   -2.0108   -8.0617   -1.6204 O   0  0  0  0  0  0  0  0  0  0  0  0
   -3.7913   -5.2224   -2.5135 C   0  0  0  0  0  0  0  0  0  0  0  0
   -2.0678   -4.7223   -2.9195 S   0  0  0  0  0  0  0  0  0  0  0  0
   -1.8419   -3.5120   -1.5644 C   0  0  0  0  0  0  0  0  0  0  0  0
    6.9159   -8.4500    1.0366 H   0  0  0  0  0  0  0  0  0  0  0  0
    7.1508   -9.1617    2.6642 H   0  0  0  0  0  0  0  0  0  0  0  0
    5.5642   -9.3783    1.8362 H   0  0  0  0  0  0  0  0  0  0  0  0
    4.7407   -5.6526    2.4585 H   0  0  0  0  0  0  0  0  0  0  0  0
    4.5868   -7.7434    0.2691 H   0  0  0  0  0  0  0  0  0  0  0  0
    2.8993   -6.3377   -0.7393 H   0  0  0  0  0  0  0  0  0  0  0  0
    2.5604   -6.4919    0.9943 H   0  0  0  0  0  0  0  0  0  0  0  0
    3.2713   -4.5585   -1.9440 H   0  0  0  0  0  0  0  0  0  0  0  0
    4.0953   -3.0821   -1.4335 H   0  0  0  0  0  0  0  0  0  0  0  0
    0.6191   -4.5795   -1.0660 H   0  0  0  0  0  0  0  0  0  0  0  0
   -1.3104   -0.9859   -2.4150 H   0  0  0  0  0  0  0  0  0  0  0  0
    2.9788   -1.1250   -2.0479 H   0  0  0  0  0  0  0  0  0  0  0  0
    1.8965    1.0175   -2.3140 H   0  0  0  0  0  0  0  0  0  0  0  0
    1.1117    0.5273   -3.8322 H   0  0  0  0  0  0  0  0  0  0  0  0
   -0.0868    0.6997   -0.1191 H   0  0  0  0  0  0  0  0  0  0  0  0
   -1.2253    2.0616   -0.1244 H   0  0  0  0  0  0  0  0  0  0  0  0
    1.8248    2.0861   -0.2455 H   0  0  0  0  0  0  0  0  0  0  0  0
   -0.1267    2.6764    1.8531 H   0  0  0  0  0  0  0  0  0  0  0  0
    2.9529    4.3705    0.6888 H   0  0  0  0  0  0  0  0  0  0  0  0
    4.1626    4.4293    3.5090 H   0  0  0  0  0  0  0  0  0  0  0  0
    3.0602    5.6941    2.8307 H   0  0  0  0  0  0  0  0  0  0  0  0
    4.6437    5.3860    2.0713 H   0  0  0  0  0  0  0  0  0  0  0  0
    4.1532    2.0166    2.2136 H   0  0  0  0  0  0  0  0  0  0  0  0
    6.2805    2.7817   -1.1796 H   0  0  0  0  0  0  0  0  0  0  0  0
    4.6144    5.2876   -0.5105 H   0  0  0  0  0  0  0  0  0  0  0  0
    4.1642    4.1243   -1.8224 H   0  0  0  0  0  0  0  0  0  0  0  0
    5.6865    5.0257   -1.9048 H   0  0  0  0  0  0  0  0  0  0  0  0
    6.4011    3.7908    1.5582 H   0  0  0  0  0  0  0  0  0  0  0  0
    7.8116    4.2314   -1.8577 H   0  0  0  0  0  0  0  0  0  0  0  0
    7.6513    6.7342   -1.4649 H   0  0  0  0  0  0  0  0  0  0  0  0
    9.3755    6.7112   -0.9178 H   0  0  0  0  0  0  0  0  0  0  0  0
    8.9193    6.2390   -2.6142 H   0  0  0  0  0  0  0  0  0  0  0  0
    9.6898    3.0520   -0.5743 H   0  0  0  0  0  0  0  0  0  0  0  0
   12.7998    3.4832   -0.9508 H   0  0  0  0  0  0  0  0  0  0  0  0
   13.9390    5.4328    0.1535 H   0  0  0  0  0  0  0  0  0  0  0  0
   12.4836    6.4415   -0.1484 H   0  0  0  0  0  0  0  0  0  0  0  0
   13.4547    5.7924   -1.5319 H   0  0  0  0  0  0  0  0  0  0  0  0
   11.1852    4.7344    1.3255 H   0  0  0  0  0  0  0  0  0  0  0  0
   12.7816    1.5033    0.0216 H   0  0  0  0  0  0  0  0  0  0  0  0
   15.1445    1.5871    1.0119 H   0  0  0  0  0  0  0  0  0  0  0  0
   14.5148    2.6336    2.3352 H   0  0  0  0  0  0  0  0  0  0  0  0
   14.5179    3.1937    0.6173 H   0  0  0  0  0  0  0  0  0  0  0  0
   12.6345    0.5735    2.8999 H   0  0  0  0  0  0  0  0  0  0  0  0
   13.5924   -0.3539   -0.6597 H   0  0  0  0  0  0  0  0  0  0  0  0
   15.8308   -0.4267    0.4969 H   0  0  0  0  0  0  0  0  0  0  0  0
   15.7372   -1.5674   -0.8775 H   0  0  0  0  0  0  0  0  0  0  0  0
   15.6043   -2.1741    0.8172 H   0  0  0  0  0  0  0  0  0  0  0  0
   13.8118   -3.2211   -0.6370 H   0  0  0  0  0  0  0  0  0  0  0  0
   10.5346   -4.0740   -1.4075 H   0  0  0  0  0  0  0  0  0  0  0  0
   12.7114   -5.1977   -1.1479 H   0  0  0  0  0  0  0  0  0  0  0  0
   11.5302   -6.0074   -0.0694 H   0  0  0  0  0  0  0  0  0  0  0  0
   12.7095   -4.8720    0.6467 H   0  0  0  0  0  0  0  0  0  0  0  0
   10.4797   -3.3952    1.5461 H   0  0  0  0  0  0  0  0  0  0  0  0
    8.2121   -4.3842   -1.1047 H   0  0  0  0  0  0  0  0  0  0  0  0
    8.5474   -7.3237   -0.2017 H   0  0  0  0  0  0  0  0  0  0  0  0
    8.0371   -6.7601   -1.8402 H   0  0  0  0  0  0  0  0  0  0  0  0
    9.6742   -6.4316   -1.2845 H   0  0  0  0  0  0  0  0  0  0  0  0
    6.5215   -4.6301    0.9843 H   0  0  0  0  0  0  0  0  0  0  0  0
    0.8021    6.0415   -0.6328 H   0  0  0  0  0  0  0  0  0  0  0  0
   -1.4343    4.2582    0.4164 H   0  0  0  0  0  0  0  0  0  0  0  0
   -1.6086    6.3395   -1.8722 H   0  0  0  0  0  0  0  0  0  0  0  0
   -2.9742    5.3464   -1.1984 H   0  0  0  0  0  0  0  0  0  0  0  0
   -1.6356    4.5335   -2.0726 H   0  0  0  0  0  0  0  0  0  0  0  0
   -2.0094    8.2324    0.2682 H   0  0  0  0  0  0  0  0  0  0  0  0
   -3.8481    8.0085    1.9762 H   0  0  0  0  0  0  0  0  0  0  0  0
   -3.4418    5.6289    2.6112 H   0  0  0  0  0  0  0  0  0  0  0  0
   -5.1480    5.8719    2.1072 H   0  0  0  0  0  0  0  0  0  0  0  0
   -3.9970    5.0775    0.9816 H   0  0  0  0  0  0  0  0  0  0  0  0
   -6.3033    8.0912    1.3690 H   0  0  0  0  0  0  0  0  0  0  0  0
   -6.8949    6.1005   -0.5596 H   0  0  0  0  0  0  0  0  0  0  0  0
   -8.2457    7.4650   -2.2704 H   0  0  0  0  0  0  0  0  0  0  0  0
   -7.3659    8.9296   -1.6740 H   0  0  0  0  0  0  0  0  0  0  0  0
   -6.4695    7.5545   -2.4292 H   0  0  0  0  0  0  0  0  0  0  0  0
   -9.6297    6.3739    1.9161 H   0  0  0  0  0  0  0  0  0  0  0  0
   -7.6965    4.5469    0.8781 H   0  0  0  0  0  0  0  0  0  0  0  0
   -8.2839    4.5057   -1.3432 H   0  0  0  0  0  0  0  0  0  0  0  0
   -9.4486    3.2983   -0.7482 H   0  0  0  0  0  0  0  0  0  0  0  0
   -9.9798    5.0124   -1.0332 H   0  0  0  0  0  0  0  0  0  0  0  0
  -10.9998    2.4982    2.3341 H   0  0  0  0  0  0  0  0  0  0  0  0
  -11.6666    3.9409   -0.1058 H   0  0  0  0  0  0  0  0  0  0  0  0
  -12.3120    5.3637    2.5454 H   0  0  0  0  0  0  0  0  0  0  0  0
  -11.5951    6.0517    1.0179 H   0  0  0  0  0  0  0  0  0  0  0  0
  -13.3032    5.5935    1.0365 H   0  0  0  0  0  0  0  0  0  0  0  0
  -14.6978    2.2034   -0.1439 H   0  0  0  0  0  0  0  0  0  0  0  0
  -11.7603    1.5670   -0.5536 H   0  0  0  0  0  0  0  0  0  0  0  0
  -13.8001    1.9896   -2.8146 H   0  0  0  0  0  0  0  0  0  0  0  0
  -12.0446    1.5674   -2.9576 H   0  0  0  0  0  0  0  0  0  0  0  0
  -12.5420    3.1690   -2.3040 H   0  0  0  0  0  0  0  0  0  0  0  0
  -13.1605   -1.8437   -0.0485 H   0  0  0  0  0  0  0  0  0  0  0  0
  -11.1436    0.0087    0.9363 H   0  0  0  0  0  0  0  0  0  0  0  0
  -10.5231   -1.3865   -1.7184 H   0  0  0  0  0  0  0  0  0  0  0  0
  -10.0767    0.2528   -1.1439 H   0  0  0  0  0  0  0  0  0  0  0  0
   -9.2046   -1.1735   -0.4844 H   0  0  0  0  0  0  0  0  0  0  0  0
  -11.1697   -4.1719    1.5967 H   0  0  0  0  0  0  0  0  0  0  0  0
  -11.7151   -3.2764   -1.2172 H   0  0  0  0  0  0  0  0  0  0  0  0
  -11.9621   -5.6777   -1.6667 H   0  0  0  0  0  0  0  0  0  0  0  0
  -11.4252   -6.0825    0.0099 H   0  0  0  0  0  0  0  0  0  0  0  0
  -12.9639   -5.1649   -0.2607 H   0  0  0  0  0  0  0  0  0  0  0  0
   -8.3549   -5.7354   -0.9387 H   0  0  0  0  0  0  0  0  0  0  0  0
   -8.7102   -3.7643    1.3607 H   0  0  0  0  0  0  0  0  0  0  0  0
   -6.1985   -3.5035    1.2936 H   0  0  0  0  0  0  0  0  0  0  0  0
   -6.2194   -4.2682   -0.3466 H   0  0  0  0  0  0  0  0  0  0  0  0
   -7.1266   -2.7520   -0.0499 H   0  0  0  0  0  0  0  0  0  0  0  0
   -6.2919   -6.6935    2.7718 H   0  0  0  0  0  0  0  0  0  0  0  0
   -6.2993   -6.4623   -0.2583 H   0  0  0  0  0  0  0  0  0  0  0  0
   -5.8434   -8.8974   -0.3150 H   0  0  0  0  0  0  0  0  0  0  0  0
   -5.9618   -8.9719    1.4880 H   0  0  0  0  0  0  0  0  0  0  0  0
   -7.4236   -8.5383    0.4983 H   0  0  0  0  0  0  0  0  0  0  0  0
   -2.6315   -6.0506   -0.0484 H   0  0  0  0  0  0  0  0  0  0  0  0
   -4.9210   -6.9210   -1.8568 H   0  0  0  0  0  0  0  0  0  0  0  0
   -4.0267   -7.8157   -4.1798 H   0  0  0  0  0  0  0  0  0  0  0  0
   -2.5722   -8.8578   -3.9990 H   0  0  0  0  0  0  0  0  0  0  0  0
   -4.3352   -5.3375   -3.4863 H   0  0  0  0  0  0  0  0  0  0  0  0
   -4.3168   -4.4158   -1.9504 H   0  0  0  0  0  0  0  0  0  0  0  0
   -2.6626   -2.7620   -1.5925 H   0  0  0  0  0  0  0  0  0  0  0  0
   -1.8909   -4.0234   -0.5825 H   0  0  0  0  0  0  0  0  0  0  0  0
  1  2  1  0
  2  3  2  0
  2  4  1  0
  4  5  1  0
  5  6  1  0
  6  7  1  0
  7  8  1  0
  8  9  1  0
  9 10  2  0
 10 11  1  0
 11 12  2  0
 12 13  1  0
 13 14  2  0
 13 15  1  0
 15 16  1  0
 16 17  1  0
 17 18  1  0
 18 19  1  0
 19 20  1  0
 20 21  2  0
 20 22  1  0
 22 23  1  0
 22 24  1  0
 24 25  1  0
 25 26  2  0
 25 27  1  0
 27 28  1  0
 27 29  1  0
 29 30  1  0
 30 31  2  0
 30 32  1  0
 32 33  1  0
 32 34  1  0
 34 35  1  0
 35 36  2  0
 35 37  1  0
 37 38  1  0
 37 39  1  0
 39 40  1  0
 40 41  2  0
 40 42  1  0
 42 43  1  0
 42 44  1  0
 44 45  1  0
 45 46  2  0
 45 47  1  0
 47 48  1  0
 47 49  1  0
 49 50  1  0
 50 51  2  0
 50 52  1  0
 52 53  1  0
 52 54  1  0
 54 55  1  0
 55 56  2  0
 55 57  1  0
 57 58  1  0
 57 59  1  0
 59 60  1  0
 60 61  2  0
 18 62  1  0
 62 63  2  0
 62 64  1  0
 64 65  1  0
 65 66  1  0
 65 67  1  0
 67 68  2  0
 67 69  1  0
 69 70  1  0
 70 71  1  0
 70 72  1  0
 72 73  2  0
 72 74  1  0
 74 75  1  0
 75 76  1  0
 75 77  1  0
 77 78  2  0
 77 79  1  0
 79 80  1  0
 80 81  1  0
 80 82  1  0
 82 83  2  0
 82 84  1  0
 84 85  1  0
 85 86  1  0
 85 87  1  0
 87 88  2  0
 87 89  1  0
 89 90  1  0
 90 91  1  0
 90 92  1  0
 92 93  2  0
 92 94  1  0
 94 95  1  0
 95 96  1  0
 95 97  1  0
 97 98  2  0
 97 99  1  0
 99100  1  0
100101  1  0
100102  1  0
102103  2  0
102104  1  0
104105  1  0
105106  1  0
105107  1  0
107108  2  0
107109  1  0
109110  1  0
110111  1  0
110112  1  0
112113  2  0
112114  1  0
114115  1  0
115116  1  0
116117  1  0
116118  2  0
115119  1  0
119120  1  0
120121  1  0
 60  5  1  0
 14  9  1  0
121 11  1  0
  1122  1  0
  1123  1  0
  1124  1  0
  4125  1  0
  5126  1  6
  6127  1  0
  6128  1  0
  8129  1  0
  8130  1  0
 10131  1  0
 12132  1  0
 14133  1  0
 15134  1  0
 15135  1  0
 17136  1  0
 17137  1  0
 18138  1  1
 19139  1  0
 22140  1  6
 23141  1  0
 23142  1  0
 23143  1  0
 24144  1  0
 27145  1  6
 28146  1  0
 28147  1  0
 28148  1  0
 29149  1  0
 32150  1  6
 33151  1  0
 33152  1  0
 33153  1  0
 34154  1  0
 37155  1  6
 38156  1  0
 38157  1  0
 38158  1  0
 39159  1  0
 42160  1  6
 43161  1  0
 43162  1  0
 43163  1  0
 44164  1  0
 47165  1  6
 48166  1  0
 48167  1  0
 48168  1  0
 49169  1  0
 52170  1  6
 53171  1  0
 53172  1  0
 53173  1  0
 54174  1  0
 57175  1  6
 58176  1  0
 58177  1  0
 58178  1  0
 59179  1  0
 64180  1  0
 65181  1  1
 66182  1  0
 66183  1  0
 66184  1  0
 69185  1  0
 70186  1  1
 71187  1  0
 71188  1  0
 71189  1  0
 74190  1  0
 75191  1  6
 76192  1  0
 76193  1  0
 76194  1  0
 79195  1  0
 80196  1  6
 81197  1  0
 81198  1  0
 81199  1  0
 84200  1  0
 85201  1  6
 86202  1  0
 86203  1  0
 86204  1  0
 89205  1  0
 90206  1  1
 91207  1  0
 91208  1  0
 91209  1  0
 94210  1  0
 95211  1  1
 96212  1  0
 96213  1  0
 96214  1  0
 99215  1  0
100216  1  6
101217  1  0
101218  1  0
101219  1  0
104220  1  0
105221  1  1
106222  1  0
106223  1  0
106224  1  0
109225  1  0
110226  1  6
111227  1  0
111228  1  0
111229  1  0
114230  1  0
115231  1  1
117232  1  0
117233  1  0
119234  1  0
119235  1  0
121236  1  0
121237  1  0
M  END
