
     RDKit          3D

177179  0  0  0  0  0  0  0  0999 V2000
   -0.9629    9.5288    1.4725 C   0  0  0  0  0  0  0  0  0  0  0  0
   -0.9609    9.4749   -0.0235 C   0  0  0  0  0  0  0  0  0  0  0  0
   -1.4224   10.4556   -0.6687 O   0  0  0  0  0  0  0  0  0  0  0  0
   -0.4376    8.3484   -0.7424 N   0  0  0  0  0  0  0  0  0  0  0  0
   -0.0431    7.0845   -0.1135 C   0  0  1  0  0  0  0  0  0  0  0  0
   -1.2491    6.1264    0.0512 C   0  0  0  0  0  0  0  0  0  0  0  0
   -2.4227    6.2072   -1.3563 S   0  0  0  0  0  0  0  0  0  0  0  0
   -2.3881    4.4408   -1.8443 C   0  0  0  0  0  0  0  0  0  0  0  0
   -2.8586    3.5113   -0.7533 C   0  0  0  0  0  0  0  0  0  0  0  0
   -2.0807    2.3983   -0.3945 C   0  0  0  0  0  0  0  0  0  0  0  0
   -2.5293    1.4919    0.5792 C   0  0  0  0  0  0  0  0  0  0  0  0
   -3.7819    1.6906    1.1813 C   0  0  0  0  0  0  0  0  0  0  0  0
   -4.5670    2.8078    0.8546 C   0  0  0  0  0  0  0  0  0  0  0  0
   -4.1056    3.6993   -0.1359 C   0  0  0  0  0  0  0  0  0  0  0  0
   -5.9036    2.9604    1.5565 C   0  0  0  0  0  0  0  0  0  0  0  0
   -6.7424    4.5737    1.2962 S   0  0  0  0  0  0  0  0  0  0  0  0
   -7.5849    4.1148   -0.2700 C   0  0  0  0  0  0  0  0  0  0  0  0
   -8.9232    3.4053   -0.0040 C   0  0  1  0  0  0  0  0  0  0  0  0
   -9.8829    4.2825    0.7587 C   0  0  0  0  0  0  0  0  0  0  0  0
  -10.3709    5.5044    0.1994 N   0  0  0  0  0  0  0  0  0  0  0  0
  -10.2525    3.9381    1.9147 O   0  0  0  0  0  0  0  0  0  0  0  0
   -9.5299    3.0060   -1.2740 N   0  0  0  0  0  0  0  0  0  0  0  0
  -10.4588    1.9174   -1.3644 C   0  0  0  0  0  0  0  0  0  0  0  0
  -11.5525    2.0976   -1.9676 O   0  0  0  0  0  0  0  0  0  0  0  0
  -10.1527    0.5622   -0.7562 C   0  0  1  0  0  0  0  0  0  0  0  0
  -10.9291    0.4133    0.5587 C   0  0  0  0  0  0  0  0  0  0  0  0
  -10.5144   -0.5094   -1.6988 N   0  0  0  0  0  0  0  0  0  0  0  0
  -10.1073   -1.8891   -1.6200 C   0  0  0  0  0  0  0  0  0  0  0  0
  -10.4930   -2.6750   -2.5272 O   0  0  0  0  0  0  0  0  0  0  0  0
   -9.3040   -2.4648   -0.4703 C   0  0  1  0  0  0  0  0  0  0  0  0
  -10.2523   -3.2817    0.4236 C   0  0  0  0  0  0  0  0  0  0  0  0
   -8.2261   -3.3211   -0.9818 N   0  0  0  0  0  0  0  0  0  0  0  0
   -7.2609   -3.9538   -0.1237 C   0  0  0  0  0  0  0  0  0  0  0  0
   -7.2080   -3.6543    1.0972 O   0  0  0  0  0  0  0  0  0  0  0  0
   -6.2618   -4.9458   -0.6711 C   0  0  1  0  0  0  0  0  0  0  0  0
   -6.9661   -6.0350   -1.4950 C   0  0  0  0  0  0  0  0  0  0  0  0
   -5.2451   -4.2651   -1.4766 N   0  0  0  0  0  0  0  0  0  0  0  0
   -4.4538   -3.1767   -0.9762 C   0  0  0  0  0  0  0  0  0  0  0  0
   -4.6181   -2.0351   -1.4907 O   0  0  0  0  0  0  0  0  0  0  0  0
   -3.3049   -3.3896    0.0024 C   0  0  1  0  0  0  0  0  0  0  0  0
   -2.9310   -2.0901    0.7467 C   0  0  0  0  0  0  0  0  0  0  0  0
   -1.8561   -1.0194   -0.2751 S   0  0  0  0  0  0  0  0  0  0  0  0
   -1.6757    0.3163    0.9610 C   0  0  0  0  0  0  0  0  0  0  0  0
   -3.6417   -4.4124    0.9936 N   0  0  0  0  0  0  0  0  0  0  0  0
   -2.8073   -5.5392    1.3123 C   0  0  0  0  0  0  0  0  0  0  0  0
   -3.3604   -6.6242    1.6322 O   0  0  0  0  0  0  0  0  0  0  0  0
   -1.3046   -5.4060    1.4522 C   0  0  1  0  0  0  0  0  0  0  0  0
   -0.9654   -4.9644    2.8767 C   0  0  0  0  0  0  0  0  0  0  0  0
   -0.6343   -6.6857    1.1783 N   0  0  0  0  0  0  0  0  0  0  0  0
    0.6038   -6.8649    0.4581 C   0  0  0  0  0  0  0  0  0  0  0  0
    1.1057   -8.0234    0.4305 O   0  0  0  0  0  0  0  0  0  0  0  0
    1.2954   -5.7424   -0.2954 C   0  0  1  0  0  0  0  0  0  0  0  0
    1.9477   -4.6889    0.6195 C   0  0  0  0  0  0  0  0  0  0  0  0
    2.2484   -6.2597   -1.2933 N   0  0  0  0  0  0  0  0  0  0  0  0
    3.5695   -6.8112   -1.0762 C   0  0  0  0  0  0  0  0  0  0  0  0
    4.3084   -6.9963   -2.0839 O   0  0  0  0  0  0  0  0  0  0  0  0
    4.1032   -7.2252    0.2865 C   0  0  1  0  0  0  0  0  0  0  0  0
    4.4078   -8.7275    0.2735 C   0  0  0  0  0  0  0  0  0  0  0  0
    5.3198   -6.4921    0.6805 N   0  0  0  0  0  0  0  0  0  0  0  0
    5.9644   -5.4613   -0.0909 C   0  0  0  0  0  0  0  0  0  0  0  0
    5.2698   -4.5631   -0.6365 O   0  0  0  0  0  0  0  0  0  0  0  0
    7.4707   -5.3956   -0.2302 C   0  0  1  0  0  0  0  0  0  0  0  0
    8.1591   -6.7032    0.1787 C   0  0  0  0  0  0  0  0  0  0  0  0
    7.8052   -5.1059   -1.6286 N   0  0  0  0  0  0  0  0  0  0  0  0
    8.4368   -3.9107   -2.1285 C   0  0  0  0  0  0  0  0  0  0  0  0
    8.4115   -3.7020   -3.3728 O   0  0  0  0  0  0  0  0  0  0  0  0
    9.2142   -2.9527   -1.2406 C   0  0  1  0  0  0  0  0  0  0  0  0
   10.5476   -3.5833   -0.8332 C   0  0  0  0  0  0  0  0  0  0  0  0
    9.4831   -1.6963   -1.9550 N   0  0  0  0  0  0  0  0  0  0  0  0
    9.3638   -0.3756   -1.3897 C   0  0  0  0  0  0  0  0  0  0  0  0
   10.0582    0.5479   -1.8887 O   0  0  0  0  0  0  0  0  0  0  0  0
    8.4695   -0.0714   -0.2071 C   0  0  1  0  0  0  0  0  0  0  0  0
    9.2488   -0.1785    1.1049 C   0  0  0  0  0  0  0  0  0  0  0  0
    7.8234    1.2434   -0.3303 N   0  0  0  0  0  0  0  0  0  0  0  0
    8.5150    2.5008   -0.2880 C   0  0  0  0  0  0  0  0  0  0  0  0
    8.9617    2.9988   -1.3561 O   0  0  0  0  0  0  0  0  0  0  0  0
    8.6077    3.2618    1.0070 C   0  0  1  0  0  0  0  0  0  0  0  0
    9.6840    4.3603    0.9949 C   0  0  0  0  0  0  0  0  0  0  0  0
    7.2924    3.7841    1.4059 N   0  0  0  0  0  0  0  0  0  0  0  0
    6.7239    5.0104    0.9179 C   0  0  0  0  0  0  0  0  0  0  0  0
    6.4128    5.8983    1.7595 O   0  0  0  0  0  0  0  0  0  0  0  0
    6.4942    5.2479   -0.5589 C   0  0  1  0  0  0  0  0  0  0  0  0
    5.6293    4.1575   -1.2098 C   0  0  0  0  0  0  0  0  0  0  0  0
    5.9739    6.6012   -0.8337 N   0  0  0  0  0  0  0  0  0  0  0  0
    4.7807    7.2190   -0.3054 C   0  0  0  0  0  0  0  0  0  0  0  0
    4.7959    8.4609   -0.1028 O   0  0  0  0  0  0  0  0  0  0  0  0
    3.4850    6.4687   -0.0517 C   0  0  1  0  0  0  0  0  0  0  0  0
    3.1433    6.4781    1.4467 C   0  0  0  0  0  0  0  0  0  0  0  0
    2.3903    7.0841   -0.8105 N   0  0  0  0  0  0  0  0  0  0  0  0
    1.1017    6.4705   -0.8779 C   0  0  0  0  0  0  0  0  0  0  0  0
    0.9507    5.4110   -1.5479 O   0  0  0  0  0  0  0  0  0  0  0  0
    0.0749    9.4312    1.8564 H   0  0  0  0  0  0  0  0  0  0  0  0
   -1.5971    8.7171    1.8882 H   0  0  0  0  0  0  0  0  0  0  0  0
   -1.3659   10.5060    1.8202 H   0  0  0  0  0  0  0  0  0  0  0  0
   -0.4478    8.3984   -1.7862 H   0  0  0  0  0  0  0  0  0  0  0  0
    0.3484    7.2809    0.9018 H   0  0  0  0  0  0  0  0  0  0  0  0
   -0.8916    5.0942    0.2432 H   0  0  0  0  0  0  0  0  0  0  0  0
   -1.8196    6.4340    0.9547 H   0  0  0  0  0  0  0  0  0  0  0  0
   -3.0690    4.3176   -2.7135 H   0  0  0  0  0  0  0  0  0  0  0  0
   -1.3651    4.1813   -2.1861 H   0  0  0  0  0  0  0  0  0  0  0  0
   -1.1254    2.2309   -0.8814 H   0  0  0  0  0  0  0  0  0  0  0  0
   -4.1381    0.9811    1.9186 H   0  0  0  0  0  0  0  0  0  0  0  0
   -4.7025    4.5462   -0.4426 H   0  0  0  0  0  0  0  0  0  0  0  0
   -6.5624    2.1135    1.2704 H   0  0  0  0  0  0  0  0  0  0  0  0
   -5.7333    2.8669    2.6495 H   0  0  0  0  0  0  0  0  0  0  0  0
   -6.9252    3.4528   -0.8753 H   0  0  0  0  0  0  0  0  0  0  0  0
   -7.7544    5.0410   -0.8558 H   0  0  0  0  0  0  0  0  0  0  0  0
   -8.7134    2.5023    0.6063 H   0  0  0  0  0  0  0  0  0  0  0  0
  -11.0666    6.0773    0.7258 H   0  0  0  0  0  0  0  0  0  0  0  0
  -10.0306    5.8442   -0.7268 H   0  0  0  0  0  0  0  0  0  0  0  0
   -9.5836    3.7292   -2.0282 H   0  0  0  0  0  0  0  0  0  0  0  0
   -9.0624    0.5138   -0.5543 H   0  0  0  0  0  0  0  0  0  0  0  0
  -10.5182   -0.4192    1.1648 H   0  0  0  0  0  0  0  0  0  0  0  0
  -12.0055    0.2101    0.3529 H   0  0  0  0  0  0  0  0  0  0  0  0
  -10.8487    1.3351    1.1754 H   0  0  0  0  0  0  0  0  0  0  0  0
  -11.1192   -0.2719   -2.5168 H   0  0  0  0  0  0  0  0  0  0  0  0
   -8.8436   -1.6555    0.1259 H   0  0  0  0  0  0  0  0  0  0  0  0
  -10.6077   -4.1887   -0.1077 H   0  0  0  0  0  0  0  0  0  0  0  0
   -9.7396   -3.5957    1.3572 H   0  0  0  0  0  0  0  0  0  0  0  0
  -11.1351   -2.6761    0.7153 H   0  0  0  0  0  0  0  0  0  0  0  0
   -8.1001   -3.4287   -2.0142 H   0  0  0  0  0  0  0  0  0  0  0  0
   -5.7807   -5.4848    0.1658 H   0  0  0  0  0  0  0  0  0  0  0  0
   -7.7167   -6.5639   -0.8672 H   0  0  0  0  0  0  0  0  0  0  0  0
   -7.4777   -5.6141   -2.3863 H   0  0  0  0  0  0  0  0  0  0  0  0
   -6.2211   -6.7838   -1.8459 H   0  0  0  0  0  0  0  0  0  0  0  0
   -5.3068   -4.3406   -2.5190 H   0  0  0  0  0  0  0  0  0  0  0  0
   -2.4394   -3.7328   -0.6053 H   0  0  0  0  0  0  0  0  0  0  0  0
   -2.3674   -2.3444    1.6661 H   0  0  0  0  0  0  0  0  0  0  0  0
   -3.8454   -1.5393    1.0506 H   0  0  0  0  0  0  0  0  0  0  0  0
   -0.6047    0.6214    0.9848 H   0  0  0  0  0  0  0  0  0  0  0  0
   -1.9159   -0.0358    1.9881 H   0  0  0  0  0  0  0  0  0  0  0  0
   -4.5114   -4.2862    1.5624 H   0  0  0  0  0  0  0  0  0  0  0  0
   -0.9426   -4.6259    0.7556 H   0  0  0  0  0  0  0  0  0  0  0  0
    0.1349   -4.9579    3.0263 H   0  0  0  0  0  0  0  0  0  0  0  0
   -1.4117   -5.6621    3.6223 H   0  0  0  0  0  0  0  0  0  0  0  0
   -1.3518   -3.9426    3.0732 H   0  0  0  0  0  0  0  0  0  0  0  0
   -0.9806   -7.5239    1.7009 H   0  0  0  0  0  0  0  0  0  0  0  0
    0.5006   -5.2143   -0.8717 H   0  0  0  0  0  0  0  0  0  0  0  0
    2.6956   -4.1014    0.0496 H   0  0  0  0  0  0  0  0  0  0  0  0
    1.1922   -3.9712    0.9923 H   0  0  0  0  0  0  0  0  0  0  0  0
    2.4336   -5.1449    1.5045 H   0  0  0  0  0  0  0  0  0  0  0  0
    1.9598   -6.1669   -2.2939 H   0  0  0  0  0  0  0  0  0  0  0  0
    3.3433   -7.0691    1.0681 H   0  0  0  0  0  0  0  0  0  0  0  0
    4.6242   -9.0802    1.3032 H   0  0  0  0  0  0  0  0  0  0  0  0
    5.2956   -8.9391   -0.3607 H   0  0  0  0  0  0  0  0  0  0  0  0
    3.5371   -9.2999   -0.1139 H   0  0  0  0  0  0  0  0  0  0  0  0
    5.7812   -6.7911    1.5700 H   0  0  0  0  0  0  0  0  0  0  0  0
    7.8356   -4.6038    0.4441 H   0  0  0  0  0  0  0  0  0  0  0  0
    9.2374   -6.6652   -0.0747 H   0  0  0  0  0  0  0  0  0  0  0  0
    8.0791   -6.8597    1.2711 H   0  0  0  0  0  0  0  0  0  0  0  0
    7.7076   -7.5664   -0.3542 H   0  0  0  0  0  0  0  0  0  0  0  0
    7.4752   -5.7946   -2.3447 H   0  0  0  0  0  0  0  0  0  0  0  0
    8.6304   -2.7558   -0.3254 H   0  0  0  0  0  0  0  0  0  0  0  0
   11.1634   -3.8114   -1.7321 H   0  0  0  0  0  0  0  0  0  0  0  0
   11.1082   -2.8804   -0.1818 H   0  0  0  0  0  0  0  0  0  0  0  0
   10.3810   -4.5209   -0.2627 H   0  0  0  0  0  0  0  0  0  0  0  0
    9.9981   -1.7655   -2.8646 H   0  0  0  0  0  0  0  0  0  0  0  0
    7.6487   -0.8220   -0.1770 H   0  0  0  0  0  0  0  0  0  0  0  0
    9.6276   -1.2137    1.2455 H   0  0  0  0  0  0  0  0  0  0  0  0
    8.5859    0.0651    1.9617 H   0  0  0  0  0  0  0  0  0  0  0  0
   10.1200    0.5142    1.1044 H   0  0  0  0  0  0  0  0  0  0  0  0
    6.7815    1.2702   -0.4528 H   0  0  0  0  0  0  0  0  0  0  0  0
    8.9315    2.5355    1.7838 H   0  0  0  0  0  0  0  0  0  0  0  0
    9.4229    5.1891    0.3061 H   0  0  0  0  0  0  0  0  0  0  0  0
   10.6614    3.9330    0.6814 H   0  0  0  0  0  0  0  0  0  0  0  0
    9.8054    4.7779    2.0151 H   0  0  0  0  0  0  0  0  0  0  0  0
    6.8920    3.4070    2.2964 H   0  0  0  0  0  0  0  0  0  0  0  0
    7.4901    5.1833   -1.0450 H   0  0  0  0  0  0  0  0  0  0  0  0
    5.0478    4.5725   -2.0615 H   0  0  0  0  0  0  0  0  0  0  0  0
    4.9384    3.6837   -0.4800 H   0  0  0  0  0  0  0  0  0  0  0  0
    6.2682    3.3527   -1.6251 H   0  0  0  0  0  0  0  0  0  0  0  0
    6.6445    7.2506   -1.3023 H   0  0  0  0  0  0  0  0  0  0  0  0
    3.5716    5.4206   -0.3764 H   0  0  0  0  0  0  0  0  0  0  0  0
    2.9800    7.5156    1.8025 H   0  0  0  0  0  0  0  0  0  0  0  0
    3.9589    6.0181    2.0348 H   0  0  0  0  0  0  0  0  0  0  0  0
    2.2262    5.8851    1.6316 H   0  0  0  0  0  0  0  0  0  0  0  0
    2.5136    8.0168   -1.2703 H   0  0  0  0  0  0  0  0  0  0  0  0
  1  2  1  0
  2  3  2  0
  2  4  1  0
  4  5  1  0
  5  6  1  0
  6  7  1  0
  7  8  1  0
  8  9  1  0
  9 10  1  0
 10 11  2  0
 11 12  1  0
 12 13  2  0
 13 14  1  0
 13 15  1  0
 15 16  1  0
 16 17  1  0
 17 18  1  0
 18 19  1  0
 19 20  1  0
 19 21  2  0
 18 22  1  0
 22 23  1  0
 23 24  2  0
 23 25  1  0
 25 26  1  0
 25 27  1  0
 27 28  1  0
 28 29  2  0
 28 30  1  0
 30 31  1  0
 30 32  1  0
 32 33  1  0
 33 34  2  0
 33 35  1  0
 35 36  1  0
 35 37  1  0
 37 38  1  0
 38 39  2  0
 38 40  1  0
 40 41  1  0
 41 42  1  0
 42 43  1  0
 40 44  1  0
 44 45  1  0
 45 46  2  0
 45 47  1  0
 47 48  1  0
 47 49  1  0
 49 50  1  0
 50 51  2  0
 50 52  1  0
 52 53  1  0
 52 54  1  0
 54 55  1  0
 55 56  2  0
 55 57  1  0
 57 58  1  0
 57 59  1  0
 59 60  1  0
 60 61  2  0
 60 62  1  0
 62 63  1  0
 62 64  1  0
 64 65  1  0
 65 66  2  0
 65 67  1  0
 67 68  1  0
 67 69  1  0
 69 70  1  0
 70 71  2  0
 70 72  1  0
 72 73  1  0
 72 74  1  0
 74 75  1  0
 75 76  2  0
 75 77  1  0
 77 78  1  0
 77 79  1  0
 79 80  1  0
 80 81  2  0
 80 82  1  0
 82 83  1  0
 82 84  1  0
 84 85  1  0
 85 86  2  0
 85 87  1  0
 87 88  1  0
 87 89  1  0
 89 90  1  0
 90 91  2  0
 90  5  1  0
 14  9  2  0
 43 11  1  0
  1 92  1  0
  1 93  1  0
  1 94  1  0
  4 95  1  0
  5 96  1  1
  6 97  1  0
  6 98  1  0
  8 99  1  0
  8100  1  0
 10101  1  0
 12102  1  0
 14103  1  0
 15104  1  0
 15105  1  0
 17106  1  0
 17107  1  0
 18108  1  1
 20109  1  0
 20110  1  0
 22111  1  0
 25112  1  1
 26113  1  0
 26114  1  0
 26115  1  0
 27116  1  0
 30117  1  1
 31118  1  0
 31119  1  0
 31120  1  0
 32121  1  0
 35122  1  1
 36123  1  0
 36124  1  0
 36125  1  0
 37126  1  0
 40127  1  6
 41128  1  0
 41129  1  0
 43130  1  0
 43131  1  0
 44132  1  0
 47133  1  6
 48134  1  0
 48135  1  0
 48136  1  0
 49137  1  0
 52138  1  6
 53139  1  0
 53140  1  0
 53141  1  0
 54142  1  0
 57143  1  1
 58144  1  0
 58145  1  0
 58146  1  0
 59147  1  0
 62148  1  1
 63149  1  0
 63150  1  0
 63151  1  0
 64152  1  0
 67153  1  1
 68154  1  0
 68155  1  0
 68156  1  0
 69157  1  0
 72158  1  1
 73159  1  0
 73160  1  0
 73161  1  0
 74162  1  0
 77163  1  1
 78164  1  0
 78165  1  0
 78166  1  0
 79167  1  0
 82168  1  6
 83169  1  0
 83170  1  0
 83171  1  0
 84172  1  0
 87173  1  6
 88174  1  0
 88175  1  0
 88176  1  0
 89177  1  0
M  END
