
     RDKit          3D

187189  0  0  0  0  0  0  0  0999 V2000
   -0.0216    9.8275    0.5537 C   0  0  0  0  0  0  0  0  0  0  0  0
    0.0084    8.4800   -0.0893 C   0  0  0  0  0  0  0  0  0  0  0  0
   -0.3806    8.3453   -1.2790 O   0  0  0  0  0  0  0  0  0  0  0  0
    0.5138    7.3590    0.6474 N   0  0  0  0  0  0  0  0  0  0  0  0
    0.7525    6.0488    0.0406 C   0  0  2  0  0  0  0  0  0  0  0  0
    0.4495    4.9485    1.0630 C   0  0  0  0  0  0  0  0  0  0  0  0
    0.6298    3.2873    0.3218 S   0  0  0  0  0  0  0  0  0  0  0  0
   -0.3098    2.4037    1.6175 C   0  0  0  0  0  0  0  0  0  0  0  0
   -1.7471    2.2620    1.1951 C   0  0  0  0  0  0  0  0  0  0  0  0
   -2.1029    1.2753    0.2655 C   0  0  0  0  0  0  0  0  0  0  0  0
   -3.4394    1.1115   -0.1230 C   0  0  0  0  0  0  0  0  0  0  0  0
   -4.4224    1.9661    0.3997 C   0  0  0  0  0  0  0  0  0  0  0  0
   -4.0810    2.9548    1.3370 C   0  0  0  0  0  0  0  0  0  0  0  0
   -2.7397    3.1004    1.7300 C   0  0  0  0  0  0  0  0  0  0  0  0
   -5.1465    3.8339    1.9293 C   0  0  0  0  0  0  0  0  0  0  0  0
   -5.9153    4.8736    0.6316 S   0  0  0  0  0  0  0  0  0  0  0  0
   -7.5841    4.1554    0.7934 C   0  0  0  0  0  0  0  0  0  0  0  0
   -8.5584    4.7352   -0.2434 C   0  0  1  0  0  0  0  0  0  0  0  0
   -8.2034    4.3313   -1.6540 C   0  0  0  0  0  0  0  0  0  0  0  0
   -8.1340    5.3121   -2.6929 N   0  0  0  0  0  0  0  0  0  0  0  0
   -7.9463    3.1296   -1.9278 O   0  0  0  0  0  0  0  0  0  0  0  0
   -9.9304    4.3366    0.0879 N   0  0  0  0  0  0  0  0  0  0  0  0
  -10.3867    2.9819    0.0015 C   0  0  0  0  0  0  0  0  0  0  0  0
  -10.7281    2.5160   -1.1234 O   0  0  0  0  0  0  0  0  0  0  0  0
  -10.5434    2.1514    1.2560 C   0  0  1  0  0  0  0  0  0  0  0  0
  -11.8008    2.5806    2.0152 C   0  0  0  0  0  0  0  0  0  0  0  0
  -10.5927    0.7270    0.9214 N   0  0  0  0  0  0  0  0  0  0  0  0
   -9.4242    0.0354    0.4475 C   0  0  0  0  0  0  0  0  0  0  0  0
   -8.3074    0.6201    0.4674 O   0  0  0  0  0  0  0  0  0  0  0  0
   -9.4743   -1.3650   -0.1260 C   0  0  1  0  0  0  0  0  0  0  0  0
  -10.8694   -1.9990   -0.0860 C   0  0  0  0  0  0  0  0  0  0  0  0
   -8.9968   -1.3301   -1.5183 N   0  0  0  0  0  0  0  0  0  0  0  0
   -8.5919   -2.4783   -2.2903 C   0  0  0  0  0  0  0  0  0  0  0  0
   -8.5714   -2.3681   -3.5481 O   0  0  0  0  0  0  0  0  0  0  0  0
   -8.1074   -3.7745   -1.6781 C   0  0  1  0  0  0  0  0  0  0  0  0
   -8.8355   -4.9624   -2.3167 C   0  0  0  0  0  0  0  0  0  0  0  0
   -6.6577   -3.8983   -1.8817 N   0  0  0  0  0  0  0  0  0  0  0  0
   -5.7888   -4.8001   -1.1730 C   0  0  0  0  0  0  0  0  0  0  0  0
   -4.6650   -5.0622   -1.6851 O   0  0  0  0  0  0  0  0  0  0  0  0
   -6.1847   -5.4505    0.1361 C   0  0  1  0  0  0  0  0  0  0  0  0
   -5.1409   -6.4478    0.6699 C   0  0  0  0  0  0  0  0  0  0  0  0
   -6.5485   -4.4579    1.1552 N   0  0  0  0  0  0  0  0  0  0  0  0
   -5.7214   -3.4263    1.7271 C   0  0  0  0  0  0  0  0  0  0  0  0
   -6.2222   -2.7018    2.6345 O   0  0  0  0  0  0  0  0  0  0  0  0
   -4.2795   -3.1833    1.3339 C   0  0  1  0  0  0  0  0  0  0  0  0
   -4.0361   -1.6887    1.0579 C   0  0  0  0  0  0  0  0  0  0  0  0
   -5.0554   -1.1239   -0.3602 S   0  0  0  0  0  0  0  0  0  0  0  0
   -3.8192    0.0154   -1.0821 C   0  0  0  0  0  0  0  0  0  0  0  0
   -3.4032   -3.6360    2.4191 N   0  0  0  0  0  0  0  0  0  0  0  0
   -2.2505   -4.4674    2.2073 C   0  0  0  0  0  0  0  0  0  0  0  0
   -2.0368   -5.4271    2.9996 O   0  0  0  0  0  0  0  0  0  0  0  0
   -1.2396   -4.1384    1.1386 C   0  0  1  0  0  0  0  0  0  0  0  0
    0.0210   -3.5121    1.7516 C   0  0  0  0  0  0  0  0  0  0  0  0
   -0.9293   -5.3126    0.3068 N   0  0  0  0  0  0  0  0  0  0  0  0
    0.0443   -6.3170    0.6485 C   0  0  0  0  0  0  0  0  0  0  0  0
    0.1414   -6.7203    1.8419 O   0  0  0  0  0  0  0  0  0  0  0  0
    0.8856   -6.9735   -0.4271 C   0  0  1  0  0  0  0  0  0  0  0  0
    1.1833   -6.0280   -1.6034 C   0  0  0  0  0  0  0  0  0  0  0  0
    2.1545   -7.4930    0.1117 N   0  0  0  0  0  0  0  0  0  0  0  0
    3.1617   -6.6298    0.6846 C   0  0  0  0  0  0  0  0  0  0  0  0
    2.8072   -5.6473    1.3869 O   0  0  0  0  0  0  0  0  0  0  0  0
    4.6286   -6.7751    0.3457 C   0  0  1  0  0  0  0  0  0  0  0  0
    5.0342   -8.1870   -0.0922 C   0  0  0  0  0  0  0  0  0  0  0  0
    4.9507   -5.8214   -0.7207 N   0  0  0  0  0  0  0  0  0  0  0  0
    6.0299   -4.8834   -0.6591 C   0  0  0  0  0  0  0  0  0  0  0  0
    5.8629   -3.7297   -1.1498 O   0  0  0  0  0  0  0  0  0  0  0  0
    7.3983   -5.2719   -0.1403 C   0  0  1  0  0  0  0  0  0  0  0  0
    8.1829   -5.9359   -1.2839 C   0  0  0  0  0  0  0  0  0  0  0  0
    8.0895   -4.0835    0.3832 N   0  0  0  0  0  0  0  0  0  0  0  0
    9.4965   -3.8582    0.2434 C   0  0  0  0  0  0  0  0  0  0  0  0
   10.3138   -4.6976    0.7122 O   0  0  0  0  0  0  0  0  0  0  0  0
   10.0112   -2.6027   -0.4163 C   0  0  1  0  0  0  0  0  0  0  0  0
   11.0444   -2.9447   -1.4950 C   0  0  0  0  0  0  0  0  0  0  0  0
    8.9092   -1.8526   -1.0347 N   0  0  0  0  0  0  0  0  0  0  0  0
    8.8879   -0.4194   -1.1707 C   0  0  0  0  0  0  0  0  0  0  0  0
    8.6071    0.0770   -2.2967 O   0  0  0  0  0  0  0  0  0  0  0  0
    9.1537    0.5249   -0.0235 C   0  0  1  0  0  0  0  0  0  0  0  0
    8.6122    0.0115    1.3178 C   0  0  0  0  0  0  0  0  0  0  0  0
   10.5880    0.8151    0.0770 N   0  0  0  0  0  0  0  0  0  0  0  0
   11.1502    2.1344   -0.0383 C   0  0  0  0  0  0  0  0  0  0  0  0
   12.3432    2.2513   -0.4343 O   0  0  0  0  0  0  0  0  0  0  0  0
   10.3377    3.3713    0.2886 C   0  0  1  0  0  0  0  0  0  0  0  0
   11.2364    4.4939    0.8216 C   0  0  0  0  0  0  0  0  0  0  0  0
    9.6126    3.8224   -0.9061 N   0  0  0  0  0  0  0  0  0  0  0  0
    8.4400    4.6581   -0.9142 C   0  0  0  0  0  0  0  0  0  0  0  0
    7.9500    4.9814   -2.0309 O   0  0  0  0  0  0  0  0  0  0  0  0
    7.7807    5.1846    0.3428 C   0  0  1  0  0  0  0  0  0  0  0  0
    7.9695    6.7020    0.4532 C   0  0  0  0  0  0  0  0  0  0  0  0
    6.3631    4.8034    0.3844 N   0  0  0  0  0  0  0  0  0  0  0  0
    5.3634    5.3718   -0.4729 C   0  0  0  0  0  0  0  0  0  0  0  0
    4.9900    4.7325   -1.4874 O   0  0  0  0  0  0  0  0  0  0  0  0
    4.6330    6.6261   -0.0562 C   0  0  1  0  0  0  0  0  0  0  0  0
    4.6207    7.6841   -1.1700 C   0  0  0  0  0  0  0  0  0  0  0  0
    3.2710    6.3117    0.4032 N   0  0  0  0  0  0  0  0  0  0  0  0
    2.1734    5.9847   -0.4667 C   0  0  0  0  0  0  0  0  0  0  0  0
    2.3755    5.6701   -1.6701 O   0  0  0  0  0  0  0  0  0  0  0  0
   -0.5522    9.7674    1.5260 H   0  0  0  0  0  0  0  0  0  0  0  0
    1.0158   10.1742    0.7308 H   0  0  0  0  0  0  0  0  0  0  0  0
   -0.5476   10.5644   -0.0910 H   0  0  0  0  0  0  0  0  0  0  0  0
    0.8639    7.5291    1.6194 H   0  0  0  0  0  0  0  0  0  0  0  0
    0.0542    5.8978   -0.8105 H   0  0  0  0  0  0  0  0  0  0  0  0
   -0.5932    5.0848    1.4056 H   0  0  0  0  0  0  0  0  0  0  0  0
    1.1115    5.0266    1.9466 H   0  0  0  0  0  0  0  0  0  0  0  0
    0.1397    1.3929    1.7617 H   0  0  0  0  0  0  0  0  0  0  0  0
   -0.2273    2.9280    2.5943 H   0  0  0  0  0  0  0  0  0  0  0  0
   -1.3318    0.6227   -0.1354 H   0  0  0  0  0  0  0  0  0  0  0  0
   -5.4558    1.8410    0.0964 H   0  0  0  0  0  0  0  0  0  0  0  0
   -2.4686    3.8531    2.4586 H   0  0  0  0  0  0  0  0  0  0  0  0
   -5.8923    3.1880    2.4429 H   0  0  0  0  0  0  0  0  0  0  0  0
   -4.7190    4.5048    2.6996 H   0  0  0  0  0  0  0  0  0  0  0  0
   -7.5168    3.0554    0.6800 H   0  0  0  0  0  0  0  0  0  0  0  0
   -7.9611    4.3901    1.8125 H   0  0  0  0  0  0  0  0  0  0  0  0
   -8.5018    5.8420   -0.1691 H   0  0  0  0  0  0  0  0  0  0  0  0
   -7.9119    5.0301   -3.6720 H   0  0  0  0  0  0  0  0  0  0  0  0
   -8.3119    6.3228   -2.4908 H   0  0  0  0  0  0  0  0  0  0  0  0
  -10.4952    4.9972    0.6742 H   0  0  0  0  0  0  0  0  0  0  0  0
   -9.6708    2.3339    1.9213 H   0  0  0  0  0  0  0  0  0  0  0  0
  -11.7117    3.6347    2.3493 H   0  0  0  0  0  0  0  0  0  0  0  0
  -11.9275    1.9452    2.9192 H   0  0  0  0  0  0  0  0  0  0  0  0
  -12.7025    2.4729    1.3739 H   0  0  0  0  0  0  0  0  0  0  0  0
  -11.3741    0.1530    1.3237 H   0  0  0  0  0  0  0  0  0  0  0  0
   -8.7842   -1.9750    0.4935 H   0  0  0  0  0  0  0  0  0  0  0  0
  -11.2026   -2.1273    0.9641 H   0  0  0  0  0  0  0  0  0  0  0  0
  -11.5993   -1.3668   -0.6349 H   0  0  0  0  0  0  0  0  0  0  0  0
  -10.8539   -3.0041   -0.5548 H   0  0  0  0  0  0  0  0  0  0  0  0
   -9.1280   -0.4406   -2.0466 H   0  0  0  0  0  0  0  0  0  0  0  0
   -8.3332   -3.7852   -0.5946 H   0  0  0  0  0  0  0  0  0  0  0  0
   -8.6586   -5.8921   -1.7353 H   0  0  0  0  0  0  0  0  0  0  0  0
   -9.9322   -4.7796   -2.3325 H   0  0  0  0  0  0  0  0  0  0  0  0
   -8.4816   -5.1286   -3.3606 H   0  0  0  0  0  0  0  0  0  0  0  0
   -6.2487   -3.4417   -2.7288 H   0  0  0  0  0  0  0  0  0  0  0  0
   -7.0875   -6.0630   -0.0722 H   0  0  0  0  0  0  0  0  0  0  0  0
   -4.1588   -5.9701    0.8380 H   0  0  0  0  0  0  0  0  0  0  0  0
   -5.4989   -6.8834    1.6271 H   0  0  0  0  0  0  0  0  0  0  0  0
   -5.0047   -7.2721   -0.0613 H   0  0  0  0  0  0  0  0  0  0  0  0
   -7.5127   -4.5447    1.5550 H   0  0  0  0  0  0  0  0  0  0  0  0
   -4.0225   -3.7186    0.4073 H   0  0  0  0  0  0  0  0  0  0  0  0
   -4.3062   -1.0805    1.9485 H   0  0  0  0  0  0  0  0  0  0  0  0
   -2.9596   -1.5361    0.8659 H   0  0  0  0  0  0  0  0  0  0  0  0
   -2.9296   -0.5774   -1.3944 H   0  0  0  0  0  0  0  0  0  0  0  0
   -4.2503    0.4707   -1.9986 H   0  0  0  0  0  0  0  0  0  0  0  0
   -3.7323   -3.5228    3.4034 H   0  0  0  0  0  0  0  0  0  0  0  0
   -1.6677   -3.3686    0.4629 H   0  0  0  0  0  0  0  0  0  0  0  0
   -0.2389   -2.5535    2.2551 H   0  0  0  0  0  0  0  0  0  0  0  0
    0.4838   -4.1874    2.5034 H   0  0  0  0  0  0  0  0  0  0  0  0
    0.7592   -3.2947    0.9503 H   0  0  0  0  0  0  0  0  0  0  0  0
   -1.3038   -5.3002   -0.6675 H   0  0  0  0  0  0  0  0  0  0  0  0
    0.3032   -7.8342   -0.8278 H   0  0  0  0  0  0  0  0  0  0  0  0
    0.2759   -5.8559   -2.2143 H   0  0  0  0  0  0  0  0  0  0  0  0
    1.5735   -5.0578   -1.2352 H   0  0  0  0  0  0  0  0  0  0  0  0
    1.9437   -6.4849   -2.2717 H   0  0  0  0  0  0  0  0  0  0  0  0
    2.4384   -8.4213   -0.2505 H   0  0  0  0  0  0  0  0  0  0  0  0
    5.2029   -6.5271    1.2653 H   0  0  0  0  0  0  0  0  0  0  0  0
    4.7042   -8.9357    0.6591 H   0  0  0  0  0  0  0  0  0  0  0  0
    4.5975   -8.4314   -1.0833 H   0  0  0  0  0  0  0  0  0  0  0  0
    6.1396   -8.2463   -0.1769 H   0  0  0  0  0  0  0  0  0  0  0  0
    4.2788   -5.7187   -1.5172 H   0  0  0  0  0  0  0  0  0  0  0  0
    7.3000   -6.0043    0.6896 H   0  0  0  0  0  0  0  0  0  0  0  0
    9.1392   -6.3513   -0.9071 H   0  0  0  0  0  0  0  0  0  0  0  0
    8.3956   -5.1960   -2.0869 H   0  0  0  0  0  0  0  0  0  0  0  0
    7.6022   -6.7763   -1.7131 H   0  0  0  0  0  0  0  0  0  0  0  0
    7.5248   -3.3285    0.8398 H   0  0  0  0  0  0  0  0  0  0  0  0
   10.5132   -2.0043    0.3619 H   0  0  0  0  0  0  0  0  0  0  0  0
   10.6079   -3.6292   -2.2566 H   0  0  0  0  0  0  0  0  0  0  0  0
   11.9336   -3.4335   -1.0366 H   0  0  0  0  0  0  0  0  0  0  0  0
   11.3806   -2.0172   -2.0084 H   0  0  0  0  0  0  0  0  0  0  0  0
    8.3342   -2.3747   -1.7315 H   0  0  0  0  0  0  0  0  0  0  0  0
    8.5922    1.4541   -0.2436 H   0  0  0  0  0  0  0  0  0  0  0  0
    7.5443   -0.2847    1.2007 H   0  0  0  0  0  0  0  0  0  0  0  0
    8.6625    0.8285    2.0730 H   0  0  0  0  0  0  0  0  0  0  0  0
    9.1904   -0.8491    1.7012 H   0  0  0  0  0  0  0  0  0  0  0  0
   11.2674    0.0242    0.1209 H   0  0  0  0  0  0  0  0  0  0  0  0
    9.6289    3.0864    1.0875 H   0  0  0  0  0  0  0  0  0  0  0  0
   11.8225    4.1319    1.6935 H   0  0  0  0  0  0  0  0  0  0  0  0
   11.9362    4.8459    0.0353 H   0  0  0  0  0  0  0  0  0  0  0  0
   10.6262    5.3525    1.1652 H   0  0  0  0  0  0  0  0  0  0  0  0
    9.9913    3.5400   -1.8402 H   0  0  0  0  0  0  0  0  0  0  0  0
    8.2553    4.7565    1.2466 H   0  0  0  0  0  0  0  0  0  0  0  0
    9.0520    6.9576    0.5249 H   0  0  0  0  0  0  0  0  0  0  0  0
    7.4712    7.0809    1.3671 H   0  0  0  0  0  0  0  0  0  0  0  0
    7.5629    7.2197   -0.4406 H   0  0  0  0  0  0  0  0  0  0  0  0
    6.1555    3.8412    0.7405 H   0  0  0  0  0  0  0  0  0  0  0  0
    5.1790    7.0727    0.8025 H   0  0  0  0  0  0  0  0  0  0  0  0
    4.2940    7.2537   -2.1384 H   0  0  0  0  0  0  0  0  0  0  0  0
    5.6292    8.1230   -1.3126 H   0  0  0  0  0  0  0  0  0  0  0  0
    3.9278    8.5113   -0.8914 H   0  0  0  0  0  0  0  0  0  0  0  0
    3.0706    6.4389    1.4206 H   0  0  0  0  0  0  0  0  0  0  0  0
  1  2  1  0
  2  3  2  0
  2  4  1  0
  4  5  1  0
  5  6  1  0
  6  7  1  0
  7  8  1  0
  8  9  1  0
  9 10  1  0
 10 11  2  0
 11 12  1  0
 12 13  2  0
 13 14  1  0
 13 15  1  0
 15 16  1  0
 16 17  1  0
 17 18  1  0
 18 19  1  0
 19 20  1  0
 19 21  2  0
 18 22  1  0
 22 23  1  0
 23 24  2  0
 23 25  1  0
 25 26  1  0
 25 27  1  0
 27 28  1  0
 28 29  2  0
 28 30  1  0
 30 31  1  0
 30 32  1  0
 32 33  1  0
 33 34  2  0
 33 35  1  0
 35 36  1  0
 35 37  1  0
 37 38  1  0
 38 39  2  0
 38 40  1  0
 40 41  1  0
 40 42  1  0
 42 43  1  0
 43 44  2  0
 43 45  1  0
 45 46  1  0
 46 47  1  0
 47 48  1  0
 45 49  1  0
 49 50  1  0
 50 51  2  0
 50 52  1  0
 52 53  1  0
 52 54  1  0
 54 55  1  0
 55 56  2  0
 55 57  1  0
 57 58  1  0
 57 59  1  0
 59 60  1  0
 60 61  2  0
 60 62  1  0
 62 63  1  0
 62 64  1  0
 64 65  1  0
 65 66  2  0
 65 67  1  0
 67 68  1  0
 67 69  1  0
 69 70  1  0
 70 71  2  0
 70 72  1  0
 72 73  1  0
 72 74  1  0
 74 75  1  0
 75 76  2  0
 75 77  1  0
 77 78  1  0
 77 79  1  0
 79 80  1  0
 80 81  2  0
 80 82  1  0
 82 83  1  0
 82 84  1  0
 84 85  1  0
 85 86  2  0
 85 87  1  0
 87 88  1  0
 87 89  1  0
 89 90  1  0
 90 91  2  0
 90 92  1  0
 92 93  1  0
 92 94  1  0
 94 95  1  0
 95 96  2  0
 95  5  1  0
 14  9  2  0
 48 11  1  0
  1 97  1  0
  1 98  1  0
  1 99  1  0
  4100  1  0
  5101  1  6
  6102  1  0
  6103  1  0
  8104  1  0
  8105  1  0
 10106  1  0
 12107  1  0
 14108  1  0
 15109  1  0
 15110  1  0
 17111  1  0
 17112  1  0
 18113  1  6
 20114  1  0
 20115  1  0
 22116  1  0
 25117  1  1
 26118  1  0
 26119  1  0
 26120  1  0
 27121  1  0
 30122  1  1
 31123  1  0
 31124  1  0
 31125  1  0
 32126  1  0
 35127  1  1
 36128  1  0
 36129  1  0
 36130  1  0
 37131  1  0
 40132  1  6
 41133  1  0
 41134  1  0
 41135  1  0
 42136  1  0
 45137  1  6
 46138  1  0
 46139  1  0
 48140  1  0
 48141  1  0
 49142  1  0
 52143  1  6
 53144  1  0
 53145  1  0
 53146  1  0
 54147  1  0
 57148  1  6
 58149  1  0
 58150  1  0
 58151  1  0
 59152  1  0
 62153  1  1
 63154  1  0
 63155  1  0
 63156  1  0
 64157  1  0
 67158  1  1
 68159  1  0
 68160  1  0
 68161  1  0
 69162  1  0
 72163  1  1
 73164  1  0
 73165  1  0
 73166  1  0
 74167  1  0
 77168  1  6
 78169  1  0
 78170  1  0
 78171  1  0
 79172  1  0
 82173  1  1
 83174  1  0
 83175  1  0
 83176  1  0
 84177  1  0
 87178  1  1
 88179  1  0
 88180  1  0
 88181  1  0
 89182  1  0
 92183  1  1
 93184  1  0
 93185  1  0
 93186  1  0
 94187  1  0
M  END
