
     RDKit          3D

137139  0  0  0  0  0  0  0  0999 V2000
  -10.0959    0.7271    0.9274 C   0  0  0  0  0  0  0  0  0  0  0  0
   -9.7598    0.1411   -0.4090 C   0  0  0  0  0  0  0  0  0  0  0  0
  -10.6645   -0.4706   -1.0363 O   0  0  0  0  0  0  0  0  0  0  0  0
   -8.4753    0.3065   -1.0344 N   0  0  0  0  0  0  0  0  0  0  0  0
   -7.1879    0.4759   -0.3409 C   0  0  1  0  0  0  0  0  0  0  0  0
   -6.9937    1.9204    0.1405 C   0  0  0  0  0  0  0  0  0  0  0  0
   -6.8679    3.0326   -1.3201 S   0  0  0  0  0  0  0  0  0  0  0  0
   -5.9223    4.3679   -0.4887 C   0  0  0  0  0  0  0  0  0  0  0  0
   -4.5193    3.9922   -0.0438 C   0  0  0  0  0  0  0  0  0  0  0  0
   -3.8844    4.8061    0.9048 C   0  0  0  0  0  0  0  0  0  0  0  0
   -2.6259    4.4650    1.4082 C   0  0  0  0  0  0  0  0  0  0  0  0
   -2.0034    3.2883    0.9743 C   0  0  0  0  0  0  0  0  0  0  0  0
   -2.5900    2.4849   -0.0162 C   0  0  0  0  0  0  0  0  0  0  0  0
   -3.8309    2.8719   -0.5563 C   0  0  0  0  0  0  0  0  0  0  0  0
   -1.7739    1.3270   -0.5597 C   0  0  0  0  0  0  0  0  0  0  0  0
   -2.7379    0.0417   -1.4430 S   0  0  0  0  0  0  0  0  0  0  0  0
   -3.3553   -0.8576    0.0273 C   0  0  0  0  0  0  0  0  0  0  0  0
   -3.3687   -2.3732   -0.2523 C   0  0  2  0  0  0  0  0  0  0  0  0
   -4.2305   -2.7167   -1.3925 N   0  0  0  0  0  0  0  0  0  0  0  0
   -5.5197   -2.1362   -1.6678 C   0  0  0  0  0  0  0  0  0  0  0  0
   -5.6378   -1.3941   -2.6804 O   0  0  0  0  0  0  0  0  0  0  0  0
   -6.7726   -2.5378   -0.9182 C   0  0  1  0  0  0  0  0  0  0  0  0
   -6.8824   -4.0656   -0.8592 C   0  0  0  0  0  0  0  0  0  0  0  0
   -6.8288   -1.9613    0.4339 N   0  0  0  0  0  0  0  0  0  0  0  0
   -6.9918   -0.5638    0.7398 C   0  0  0  0  0  0  0  0  0  0  0  0
   -6.9152   -0.1994    1.9440 O   0  0  0  0  0  0  0  0  0  0  0  0
   -3.7271   -3.1936    0.9755 C   0  0  0  0  0  0  0  0  0  0  0  0
   -4.3987   -2.6576    1.9010 O   0  0  0  0  0  0  0  0  0  0  0  0
   -3.3343   -4.5761    1.1315 N   0  0  0  0  0  0  0  0  0  0  0  0
   -2.3042   -5.2796    0.3499 C   0  0  2  0  0  0  0  0  0  0  0  0
   -2.9494   -5.9760   -0.8453 C   0  0  0  0  0  0  0  0  0  0  0  0
   -1.6173   -6.3163    1.2107 C   0  0  0  0  0  0  0  0  0  0  0  0
   -2.3044   -7.1759    1.8162 O   0  0  0  0  0  0  0  0  0  0  0  0
   -0.1846   -6.3745    1.3131 N   0  0  0  0  0  0  0  0  0  0  0  0
    0.6755   -6.4201    0.1253 C   0  0  2  0  0  0  0  0  0  0  0  0
    0.7714   -7.8669   -0.3684 C   0  0  0  0  0  0  0  0  0  0  0  0
    2.0508   -5.8729    0.4189 C   0  0  0  0  0  0  0  0  0  0  0  0
    2.3629   -5.5793    1.6007 O   0  0  0  0  0  0  0  0  0  0  0  0
    3.0045   -5.7075   -0.6490 N   0  0  0  0  0  0  0  0  0  0  0  0
    4.4262   -5.3891   -0.4758 C   0  0  2  0  0  0  0  0  0  0  0  0
    5.1199   -6.3902    0.4530 C   0  0  0  0  0  0  0  0  0  0  0  0
    4.6223   -3.9708   -0.0047 C   0  0  0  0  0  0  0  0  0  0  0  0
    4.1604   -3.5959    1.1040 O   0  0  0  0  0  0  0  0  0  0  0  0
    5.3423   -3.0312   -0.8122 N   0  0  0  0  0  0  0  0  0  0  0  0
    6.7848   -2.7942   -0.6818 C   0  0  2  0  0  0  0  0  0  0  0  0
    7.5809   -3.8980   -1.3923 C   0  0  0  0  0  0  0  0  0  0  0  0
    7.1897   -2.6788    0.7750 C   0  0  0  0  0  0  0  0  0  0  0  0
    7.1666   -3.7133    1.4923 O   0  0  0  0  0  0  0  0  0  0  0  0
    7.6517   -1.4502    1.3646 N   0  0  0  0  0  0  0  0  0  0  0  0
    7.5155   -0.1136    0.7667 C   0  0  2  0  0  0  0  0  0  0  0  0
    8.8410    0.2386    0.0830 C   0  0  0  0  0  0  0  0  0  0  0  0
    7.1616    0.9121    1.8312 C   0  0  0  0  0  0  0  0  0  0  0  0
    6.8764    0.5158    2.9951 O   0  0  0  0  0  0  0  0  0  0  0  0
    7.1346    2.3281    1.5620 N   0  0  0  0  0  0  0  0  0  0  0  0
    6.6849    2.9147    0.2977 C   0  0  2  0  0  0  0  0  0  0  0  0
    7.7019    3.9646   -0.1659 C   0  0  0  0  0  0  0  0  0  0  0  0
    5.2880    3.4726    0.4674 C   0  0  0  0  0  0  0  0  0  0  0  0
    4.3193    2.6662    0.5209 O   0  0  0  0  0  0  0  0  0  0  0  0
    5.0364    4.8855    0.5746 N   0  0  0  0  0  0  0  0  0  0  0  0
    3.8840    5.5108   -0.0872 C   0  0  2  0  0  0  0  0  0  0  0  0
    4.3648    6.1819   -1.3775 C   0  0  0  0  0  0  0  0  0  0  0  0
    3.2240    6.5291    0.8242 C   0  0  0  0  0  0  0  0  0  0  0  0
    3.7924    6.8538    1.9007 O   0  0  0  0  0  0  0  0  0  0  0  0
    1.9767    7.1671    0.4842 N   0  0  0  0  0  0  0  0  0  0  0  0
    0.9858    6.6142   -0.4436 C   0  0  2  0  0  0  0  0  0  0  0  0
    0.3996    7.6927   -1.3243 C   0  0  0  0  0  0  0  0  0  0  0  0
   -0.1406    8.9047   -0.7876 N   0  0  0  0  0  0  0  0  0  0  0  0
    0.4113    7.5357   -2.5767 O   0  0  0  0  0  0  0  0  0  0  0  0
   -0.0750    5.7966    0.3061 C   0  0  0  0  0  0  0  0  0  0  0  0
   -1.1316    6.7912    1.4287 S   0  0  0  0  0  0  0  0  0  0  0  0
   -1.8995    5.3955    2.3378 C   0  0  0  0  0  0  0  0  0  0  0  0
  -10.0389    1.8313    0.8837 H   0  0  0  0  0  0  0  0  0  0  0  0
  -11.1307    0.4548    1.2236 H   0  0  0  0  0  0  0  0  0  0  0  0
   -9.4076    0.3454    1.7087 H   0  0  0  0  0  0  0  0  0  0  0  0
   -8.4295    0.1283   -2.0652 H   0  0  0  0  0  0  0  0  0  0  0  0
   -6.3759    0.3173   -1.0785 H   0  0  0  0  0  0  0  0  0  0  0  0
   -7.8182    2.2532    0.7975 H   0  0  0  0  0  0  0  0  0  0  0  0
   -6.0585    1.9672    0.7379 H   0  0  0  0  0  0  0  0  0  0  0  0
   -5.8506    5.2314   -1.1792 H   0  0  0  0  0  0  0  0  0  0  0  0
   -6.5120    4.6990    0.3936 H   0  0  0  0  0  0  0  0  0  0  0  0
   -4.3718    5.7073    1.2449 H   0  0  0  0  0  0  0  0  0  0  0  0
   -1.0276    3.0230    1.3626 H   0  0  0  0  0  0  0  0  0  0  0  0
   -4.2534    2.3027   -1.3682 H   0  0  0  0  0  0  0  0  0  0  0  0
   -1.0236    1.7422   -1.2680 H   0  0  0  0  0  0  0  0  0  0  0  0
   -1.2082    0.8502    0.2754 H   0  0  0  0  0  0  0  0  0  0  0  0
   -4.3618   -0.4855    0.2722 H   0  0  0  0  0  0  0  0  0  0  0  0
   -2.7010   -0.6747    0.9062 H   0  0  0  0  0  0  0  0  0  0  0  0
   -2.3237   -2.6240   -0.5251 H   0  0  0  0  0  0  0  0  0  0  0  0
   -3.7355   -3.0928   -2.2328 H   0  0  0  0  0  0  0  0  0  0  0  0
   -7.6563   -2.1794   -1.4868 H   0  0  0  0  0  0  0  0  0  0  0  0
   -7.8763   -4.3591   -0.4545 H   0  0  0  0  0  0  0  0  0  0  0  0
   -6.7722   -4.5020   -1.8757 H   0  0  0  0  0  0  0  0  0  0  0  0
   -6.0902   -4.4843   -0.2091 H   0  0  0  0  0  0  0  0  0  0  0  0
   -6.8942   -2.6191    1.2417 H   0  0  0  0  0  0  0  0  0  0  0  0
   -3.7928   -5.0899    1.9218 H   0  0  0  0  0  0  0  0  0  0  0  0
   -1.5415   -4.5695   -0.0084 H   0  0  0  0  0  0  0  0  0  0  0  0
   -3.3618   -5.2333   -1.5528 H   0  0  0  0  0  0  0  0  0  0  0  0
   -2.1988   -6.5828   -1.3927 H   0  0  0  0  0  0  0  0  0  0  0  0
   -3.7746   -6.6397   -0.5174 H   0  0  0  0  0  0  0  0  0  0  0  0
    0.1930   -6.8243    2.1827 H   0  0  0  0  0  0  0  0  0  0  0  0
    0.2366   -5.8068   -0.6860 H   0  0  0  0  0  0  0  0  0  0  0  0
    1.2780   -8.5122    0.3891 H   0  0  0  0  0  0  0  0  0  0  0  0
   -0.2412   -8.2734   -0.5645 H   0  0  0  0  0  0  0  0  0  0  0  0
    1.3456   -7.9228   -1.3195 H   0  0  0  0  0  0  0  0  0  0  0  0
    2.6868   -5.9539   -1.6115 H   0  0  0  0  0  0  0  0  0  0  0  0
    4.9206   -5.4818   -1.4719 H   0  0  0  0  0  0  0  0  0  0  0  0
    6.2073   -6.1931    0.4905 H   0  0  0  0  0  0  0  0  0  0  0  0
    4.9708   -7.4223    0.0685 H   0  0  0  0  0  0  0  0  0  0  0  0
    4.7260   -6.3314    1.4866 H   0  0  0  0  0  0  0  0  0  0  0  0
    4.7871   -2.3827   -1.4093 H   0  0  0  0  0  0  0  0  0  0  0  0
    7.0318   -1.8605   -1.2279 H   0  0  0  0  0  0  0  0  0  0  0  0
    7.4179   -4.8839   -0.9199 H   0  0  0  0  0  0  0  0  0  0  0  0
    8.6660   -3.6631   -1.3489 H   0  0  0  0  0  0  0  0  0  0  0  0
    7.2757   -3.9545   -2.4550 H   0  0  0  0  0  0  0  0  0  0  0  0
    8.1803   -1.5339    2.2626 H   0  0  0  0  0  0  0  0  0  0  0  0
    6.6917   -0.1053    0.0238 H   0  0  0  0  0  0  0  0  0  0  0  0
    9.6389    0.4220    0.8388 H   0  0  0  0  0  0  0  0  0  0  0  0
    9.1661   -0.5987   -0.5788 H   0  0  0  0  0  0  0  0  0  0  0  0
    8.7303    1.1352   -0.5586 H   0  0  0  0  0  0  0  0  0  0  0  0
    7.2275    2.9679    2.3847 H   0  0  0  0  0  0  0  0  0  0  0  0
    6.6250    2.1420   -0.4986 H   0  0  0  0  0  0  0  0  0  0  0  0
    7.3127    4.5226   -1.0448 H   0  0  0  0  0  0  0  0  0  0  0  0
    8.6502    3.4650   -0.4640 H   0  0  0  0  0  0  0  0  0  0  0  0
    7.9378    4.6757    0.6606 H   0  0  0  0  0  0  0  0  0  0  0  0
    5.8098    5.5103    0.8815 H   0  0  0  0  0  0  0  0  0  0  0  0
    3.1441    4.7215   -0.3400 H   0  0  0  0  0  0  0  0  0  0  0  0
    3.5271    6.6835   -1.9113 H   0  0  0  0  0  0  0  0  0  0  0  0
    4.8122    5.4210   -2.0570 H   0  0  0  0  0  0  0  0  0  0  0  0
    5.1412    6.9469   -1.1416 H   0  0  0  0  0  0  0  0  0  0  0  0
    1.6613    7.9296    1.1284 H   0  0  0  0  0  0  0  0  0  0  0  0
    1.4795    5.9018   -1.1321 H   0  0  0  0  0  0  0  0  0  0  0  0
   -0.5239    9.6333   -1.4299 H   0  0  0  0  0  0  0  0  0  0  0  0
   -0.1337    9.1052    0.2376 H   0  0  0  0  0  0  0  0  0  0  0  0
    0.4483    5.0110    0.9011 H   0  0  0  0  0  0  0  0  0  0  0  0
   -0.7232    5.2972   -0.4442 H   0  0  0  0  0  0  0  0  0  0  0  0
   -1.1123    4.8598    2.9068 H   0  0  0  0  0  0  0  0  0  0  0  0
   -2.6113    5.8139    3.0760 H   0  0  0  0  0  0  0  0  0  0  0  0
  1  2  1  0
  2  3  2  0
  2  4  1  0
  4  5  1  0
  5  6  1  0
  6  7  1  0
  7  8  1  0
  8  9  1  0
  9 10  1  0
 10 11  2  0
 11 12  1  0
 12 13  2  0
 13 14  1  0
 13 15  1  0
 15 16  1  0
 16 17  1  0
 17 18  1  0
 18 19  1  0
 19 20  1  0
 20 21  2  0
 20 22  1  0
 22 23  1  0
 22 24  1  0
 24 25  1  0
 25 26  2  0
 18 27  1  0
 27 28  2  0
 27 29  1  0
 29 30  1  0
 30 31  1  0
 30 32  1  0
 32 33  2  0
 32 34  1  0
 34 35  1  0
 35 36  1  0
 35 37  1  0
 37 38  2  0
 37 39  1  0
 39 40  1  0
 40 41  1  0
 40 42  1  0
 42 43  2  0
 42 44  1  0
 44 45  1  0
 45 46  1  0
 45 47  1  0
 47 48  2  0
 47 49  1  0
 49 50  1  0
 50 51  1  0
 50 52  1  0
 52 53  2  0
 52 54  1  0
 54 55  1  0
 55 56  1  0
 55 57  1  0
 57 58  2  0
 57 59  1  0
 59 60  1  0
 60 61  1  0
 60 62  1  0
 62 63  2  0
 62 64  1  0
 64 65  1  0
 65 66  1  0
 66 67  1  0
 66 68  2  0
 65 69  1  0
 69 70  1  0
 70 71  1  0
 25  5  1  0
 14  9  2  0
 71 11  1  0
  1 72  1  0
  1 73  1  0
  1 74  1  0
  4 75  1  0
  5 76  1  6
  6 77  1  0
  6 78  1  0
  8 79  1  0
  8 80  1  0
 10 81  1  0
 12 82  1  0
 14 83  1  0
 15 84  1  0
 15 85  1  0
 17 86  1  0
 17 87  1  0
 18 88  1  6
 19 89  1  0
 22 90  1  6
 23 91  1  0
 23 92  1  0
 23 93  1  0
 24 94  1  0
 29 95  1  0
 30 96  1  6
 31 97  1  0
 31 98  1  0
 31 99  1  0
 34100  1  0
 35101  1  6
 36102  1  0
 36103  1  0
 36104  1  0
 39105  1  0
 40106  1  6
 41107  1  0
 41108  1  0
 41109  1  0
 44110  1  0
 45111  1  6
 46112  1  0
 46113  1  0
 46114  1  0
 49115  1  0
 50116  1  6
 51117  1  0
 51118  1  0
 51119  1  0
 54120  1  0
 55121  1  6
 56122  1  0
 56123  1  0
 56124  1  0
 59125  1  0
 60126  1  6
 61127  1  0
 61128  1  0
 61129  1  0
 64130  1  0
 65131  1  6
 67132  1  0
 67133  1  0
 69134  1  0
 69135  1  0
 71136  1  0
 71137  1  0
M  END
