
     RDKit          3D

187189  0  0  0  0  0  0  0  0999 V2000
    0.5843    9.4576    0.3637 C   0  0  0  0  0  0  0  0  0  0  0  0
    1.3006    8.5372    1.3066 C   0  0  0  0  0  0  0  0  0  0  0  0
    1.6688    8.9817    2.4260 O   0  0  0  0  0  0  0  0  0  0  0  0
    1.5976    7.1760    0.9652 N   0  0  0  0  0  0  0  0  0  0  0  0
    0.9717    6.4622   -0.1587 C   0  0  2  0  0  0  0  0  0  0  0  0
   -0.4186    5.9537    0.2661 C   0  0  0  0  0  0  0  0  0  0  0  0
   -0.3478    4.9626    1.8031 S   0  0  0  0  0  0  0  0  0  0  0  0
   -2.1493    4.9650    2.1090 C   0  0  0  0  0  0  0  0  0  0  0  0
   -2.8282    3.9517    1.2307 C   0  0  0  0  0  0  0  0  0  0  0  0
   -3.5434    4.3579    0.0968 C   0  0  0  0  0  0  0  0  0  0  0  0
   -4.1733    3.4097   -0.7271 C   0  0  0  0  0  0  0  0  0  0  0  0
   -4.0471    2.0450   -0.4220 C   0  0  0  0  0  0  0  0  0  0  0  0
   -3.3840    1.6360    0.7416 C   0  0  0  0  0  0  0  0  0  0  0  0
   -2.7514    2.5896    1.5491 C   0  0  0  0  0  0  0  0  0  0  0  0
   -3.3588    0.1862    1.1318 C   0  0  0  0  0  0  0  0  0  0  0  0
   -1.7833   -0.5721    0.6113 S   0  0  0  0  0  0  0  0  0  0  0  0
   -2.3866   -2.2900    0.7760 C   0  0  0  0  0  0  0  0  0  0  0  0
   -2.9983   -2.7772   -0.5629 C   0  0  1  0  0  0  0  0  0  0  0  0
   -1.9600   -3.3023   -1.4593 N   0  0  0  0  0  0  0  0  0  0  0  0
   -1.0677   -4.3982   -1.1784 C   0  0  0  0  0  0  0  0  0  0  0  0
   -0.0097   -4.5028   -1.8651 O   0  0  0  0  0  0  0  0  0  0  0  0
   -1.3449   -5.4422   -0.1212 C   0  0  1  0  0  0  0  0  0  0  0  0
   -1.8452   -6.7275   -0.7981 C   0  0  0  0  0  0  0  0  0  0  0  0
   -0.1282   -5.6443    0.6793 N   0  0  0  0  0  0  0  0  0  0  0  0
    0.4349   -6.9168    1.0215 C   0  0  0  0  0  0  0  0  0  0  0  0
   -0.2596   -7.7669    1.6375 O   0  0  0  0  0  0  0  0  0  0  0  0
    1.8448   -7.2734    0.6134 C   0  0  1  0  0  0  0  0  0  0  0  0
    1.8054   -8.1126   -0.6640 C   0  0  0  0  0  0  0  0  0  0  0  0
    2.6545   -6.0715    0.3990 N   0  0  0  0  0  0  0  0  0  0  0  0
    3.9875   -5.9221    0.8988 C   0  0  0  0  0  0  0  0  0  0  0  0
    4.2886   -4.8709    1.5287 O   0  0  0  0  0  0  0  0  0  0  0  0
    5.0469   -6.9476    0.5629 C   0  0  1  0  0  0  0  0  0  0  0  0
    5.3805   -6.9158   -0.9326 C   0  0  0  0  0  0  0  0  0  0  0  0
    6.2629   -6.7766    1.3704 N   0  0  0  0  0  0  0  0  0  0  0  0
    7.2619   -5.7861    1.0774 C   0  0  0  0  0  0  0  0  0  0  0  0
    6.9473   -4.5665    1.0755 O   0  0  0  0  0  0  0  0  0  0  0  0
    8.6702   -6.1674    0.6981 C   0  0  1  0  0  0  0  0  0  0  0  0
    8.9490   -7.6690    0.8108 C   0  0  0  0  0  0  0  0  0  0  0  0
    8.9220   -5.7273   -0.6811 N   0  0  0  0  0  0  0  0  0  0  0  0
    9.5276   -4.4793   -1.0618 C   0  0  0  0  0  0  0  0  0  0  0  0
    9.5418   -4.1595   -2.2823 O   0  0  0  0  0  0  0  0  0  0  0  0
   10.2038   -3.5702   -0.0612 C   0  0  1  0  0  0  0  0  0  0  0  0
   11.6262   -4.0636    0.2139 C   0  0  0  0  0  0  0  0  0  0  0  0
   10.2535   -2.1951   -0.5602 N   0  0  0  0  0  0  0  0  0  0  0  0
    9.5626   -1.1235    0.1046 C   0  0  0  0  0  0  0  0  0  0  0  0
    8.4974   -1.3567    0.7367 O   0  0  0  0  0  0  0  0  0  0  0  0
   10.1192    0.2809    0.0913 C   0  0  1  0  0  0  0  0  0  0  0  0
   11.5273    0.2809    0.6988 C   0  0  0  0  0  0  0  0  0  0  0  0
   10.1476    0.8167   -1.2747 N   0  0  0  0  0  0  0  0  0  0  0  0
   10.2664    2.2147   -1.6050 C   0  0  0  0  0  0  0  0  0  0  0  0
   10.3760    2.5328   -2.8225 O   0  0  0  0  0  0  0  0  0  0  0  0
   10.1907    3.3179   -0.5655 C   0  0  1  0  0  0  0  0  0  0  0  0
   11.2693    4.3768   -0.8267 C   0  0  0  0  0  0  0  0  0  0  0  0
    8.8611    3.9398   -0.5856 N   0  0  0  0  0  0  0  0  0  0  0  0
    8.4152    4.7980    0.4780 C   0  0  0  0  0  0  0  0  0  0  0  0
    9.0065    4.7585    1.5894 O   0  0  0  0  0  0  0  0  0  0  0  0
    7.2334    5.7293    0.3139 C   0  0  1  0  0  0  0  0  0  0  0  0
    7.6109    7.1452    0.7602 C   0  0  0  0  0  0  0  0  0  0  0  0
    6.7710    5.7724   -1.0759 N   0  0  0  0  0  0  0  0  0  0  0  0
    5.3983    5.5909   -1.4547 C   0  0  0  0  0  0  0  0  0  0  0  0
    5.1339    4.9672   -2.5150 O   0  0  0  0  0  0  0  0  0  0  0  0
    4.2765    6.2603   -0.6930 C   0  0  1  0  0  0  0  0  0  0  0  0
    3.7394    7.4216   -1.5442 C   0  0  0  0  0  0  0  0  0  0  0  0
    3.2551    5.2586   -0.3391 N   0  0  0  0  0  0  0  0  0  0  0  0
    1.8572    5.3395   -0.6652 C   0  0  0  0  0  0  0  0  0  0  0  0
    1.3609    4.4491   -1.4098 O   0  0  0  0  0  0  0  0  0  0  0  0
   -4.1437   -3.7505   -0.4174 C   0  0  0  0  0  0  0  0  0  0  0  0
   -4.5767   -4.0695    0.7230 O   0  0  0  0  0  0  0  0  0  0  0  0
   -4.7915   -4.2562   -1.5939 N   0  0  0  0  0  0  0  0  0  0  0  0
   -6.2327   -4.1247   -1.8278 C   0  0  2  0  0  0  0  0  0  0  0  0
   -6.5603   -2.6947   -2.2845 C   0  0  0  0  0  0  0  0  0  0  0  0
   -7.0352   -4.5678   -0.6264 C   0  0  0  0  0  0  0  0  0  0  0  0
   -7.0622   -5.7940   -0.3344 O   0  0  0  0  0  0  0  0  0  0  0  0
   -7.7206   -3.6133    0.2054 N   0  0  0  0  0  0  0  0  0  0  0  0
   -8.8761   -3.9258    1.0558 C   0  0  2  0  0  0  0  0  0  0  0  0
   -9.8865   -4.8315    0.3371 C   0  0  0  0  0  0  0  0  0  0  0  0
   -9.5824   -2.6491    1.4446 C   0  0  0  0  0  0  0  0  0  0  0  0
   -9.9884   -2.4989    2.6268 O   0  0  0  0  0  0  0  0  0  0  0  0
   -9.8966   -1.6721    0.4394 N   0  0  0  0  0  0  0  0  0  0  0  0
  -10.9442   -0.6574    0.6122 C   0  0  2  0  0  0  0  0  0  0  0  0
  -12.3135   -1.3344    0.7446 C   0  0  0  0  0  0  0  0  0  0  0  0
  -10.9824    0.2825   -0.5777 C   0  0  0  0  0  0  0  0  0  0  0  0
  -10.8248   -0.1931   -1.7333 O   0  0  0  0  0  0  0  0  0  0  0  0
  -11.2840    1.6822   -0.4514 N   0  0  0  0  0  0  0  0  0  0  0  0
  -11.6076    2.3609    0.8027 C   0  0  2  0  0  0  0  0  0  0  0  0
  -12.4548    3.6158    0.5504 C   0  0  0  0  0  0  0  0  0  0  0  0
  -10.3841    2.6934    1.6418 C   0  0  0  0  0  0  0  0  0  0  0  0
  -10.5189    2.6169    2.8968 O   0  0  0  0  0  0  0  0  0  0  0  0
   -9.1191    3.1705    1.1274 N   0  0  0  0  0  0  0  0  0  0  0  0
   -8.7108    3.2869   -0.2776 C   0  0  1  0  0  0  0  0  0  0  0  0
   -9.4049    4.4509   -0.9338 C   0  0  0  0  0  0  0  0  0  0  0  0
   -9.4091    5.7430   -0.3227 N   0  0  0  0  0  0  0  0  0  0  0  0
   -9.9915    4.2933   -2.0364 O   0  0  0  0  0  0  0  0  0  0  0  0
   -7.1845    3.4666   -0.3815 C   0  0  0  0  0  0  0  0  0  0  0  0
   -6.6059    3.0850   -2.0741 S   0  0  0  0  0  0  0  0  0  0  0  0
   -4.9521    3.8631   -1.9381 C   0  0  0  0  0  0  0  0  0  0  0  0
   -0.4152    9.0548    0.1127 H   0  0  0  0  0  0  0  0  0  0  0  0
    0.4487   10.4580    0.8239 H   0  0  0  0  0  0  0  0  0  0  0  0
    1.1780    9.5748   -0.5637 H   0  0  0  0  0  0  0  0  0  0  0  0
    2.1372    6.6161    1.6651 H   0  0  0  0  0  0  0  0  0  0  0  0
    0.8273    7.1543   -1.0143 H   0  0  0  0  0  0  0  0  0  0  0  0
   -1.0774    6.8290    0.4267 H   0  0  0  0  0  0  0  0  0  0  0  0
   -0.8761    5.3493   -0.5449 H   0  0  0  0  0  0  0  0  0  0  0  0
   -2.3307    4.7125    3.1745 H   0  0  0  0  0  0  0  0  0  0  0  0
   -2.5715    5.9783    1.9535 H   0  0  0  0  0  0  0  0  0  0  0  0
   -3.6143    5.4130   -0.1453 H   0  0  0  0  0  0  0  0  0  0  0  0
   -4.5126    1.3041   -1.0629 H   0  0  0  0  0  0  0  0  0  0  0  0
   -2.2263    2.2772    2.4440 H   0  0  0  0  0  0  0  0  0  0  0  0
   -3.4543    0.0930    2.2341 H   0  0  0  0  0  0  0  0  0  0  0  0
   -4.2214   -0.3460    0.6717 H   0  0  0  0  0  0  0  0  0  0  0  0
   -3.1201   -2.3387    1.6074 H   0  0  0  0  0  0  0  0  0  0  0  0
   -1.5290   -2.9274    1.0792 H   0  0  0  0  0  0  0  0  0  0  0  0
   -3.4529   -1.8907   -1.0649 H   0  0  0  0  0  0  0  0  0  0  0  0
   -1.7814   -2.7638   -2.3362 H   0  0  0  0  0  0  0  0  0  0  0  0
   -2.1346   -5.0988    0.5676 H   0  0  0  0  0  0  0  0  0  0  0  0
   -1.0356   -7.1839   -1.4106 H   0  0  0  0  0  0  0  0  0  0  0  0
   -2.7077   -6.4992   -1.4611 H   0  0  0  0  0  0  0  0  0  0  0  0
   -2.1897   -7.4594   -0.0370 H   0  0  0  0  0  0  0  0  0  0  0  0
    0.3175   -4.7970    1.1039 H   0  0  0  0  0  0  0  0  0  0  0  0
    2.2954   -7.8890    1.4250 H   0  0  0  0  0  0  0  0  0  0  0  0
    1.5526   -7.4790   -1.5446 H   0  0  0  0  0  0  0  0  0  0  0  0
    2.7950   -8.5875   -0.8361 H   0  0  0  0  0  0  0  0  0  0  0  0
    1.0543   -8.9284   -0.5788 H   0  0  0  0  0  0  0  0  0  0  0  0
    2.2653   -5.2788   -0.1642 H   0  0  0  0  0  0  0  0  0  0  0  0
    4.6262   -7.9499    0.7926 H   0  0  0  0  0  0  0  0  0  0  0  0
    4.4746   -7.1053   -1.5444 H   0  0  0  0  0  0  0  0  0  0  0  0
    5.7920   -5.9281   -1.2306 H   0  0  0  0  0  0  0  0  0  0  0  0
    6.1276   -7.7009   -1.1685 H   0  0  0  0  0  0  0  0  0  0  0  0
    6.4989   -7.5271    2.0585 H   0  0  0  0  0  0  0  0  0  0  0  0
    9.3654   -5.6725    1.4056 H   0  0  0  0  0  0  0  0  0  0  0  0
    9.9833   -7.8838    0.4679 H   0  0  0  0  0  0  0  0  0  0  0  0
    8.2476   -8.2510    0.1788 H   0  0  0  0  0  0  0  0  0  0  0  0
    8.8622   -8.0043    1.8653 H   0  0  0  0  0  0  0  0  0  0  0  0
    8.4945   -6.3033   -1.4458 H   0  0  0  0  0  0  0  0  0  0  0  0
    9.6437   -3.5851    0.8974 H   0  0  0  0  0  0  0  0  0  0  0  0
   11.6094   -5.0891    0.6429 H   0  0  0  0  0  0  0  0  0  0  0  0
   12.2213   -4.0801   -0.7260 H   0  0  0  0  0  0  0  0  0  0  0  0
   12.1272   -3.3867    0.9392 H   0  0  0  0  0  0  0  0  0  0  0  0
   10.9300   -1.9644   -1.3231 H   0  0  0  0  0  0  0  0  0  0  0  0
    9.4495    0.9097    0.7172 H   0  0  0  0  0  0  0  0  0  0  0  0
   11.9448    1.3091    0.7519 H   0  0  0  0  0  0  0  0  0  0  0  0
   12.2193   -0.3386    0.0899 H   0  0  0  0  0  0  0  0  0  0  0  0
   11.4932   -0.1285    1.7311 H   0  0  0  0  0  0  0  0  0  0  0  0
   10.1122    0.1487   -2.0775 H   0  0  0  0  0  0  0  0  0  0  0  0
   10.3761    2.9104    0.4427 H   0  0  0  0  0  0  0  0  0  0  0  0
   11.1151    4.8675   -1.8106 H   0  0  0  0  0  0  0  0  0  0  0  0
   11.2415    5.1574   -0.0392 H   0  0  0  0  0  0  0  0  0  0  0  0
   12.2776    3.9080   -0.8137 H   0  0  0  0  0  0  0  0  0  0  0  0
    8.2169    3.7318   -1.3806 H   0  0  0  0  0  0  0  0  0  0  0  0
    6.4242    5.3536    0.9694 H   0  0  0  0  0  0  0  0  0  0  0  0
    8.4606    7.5278    0.1521 H   0  0  0  0  0  0  0  0  0  0  0  0
    7.8956    7.1523    1.8348 H   0  0  0  0  0  0  0  0  0  0  0  0
    6.7478    7.8313    0.6318 H   0  0  0  0  0  0  0  0  0  0  0  0
    7.4695    5.9215   -1.8385 H   0  0  0  0  0  0  0  0  0  0  0  0
    4.6661    6.6930    0.2481 H   0  0  0  0  0  0  0  0  0  0  0  0
    4.5835    8.0460   -1.9141 H   0  0  0  0  0  0  0  0  0  0  0  0
    3.1009    8.0892   -0.9387 H   0  0  0  0  0  0  0  0  0  0  0  0
    3.1667    7.0476   -2.4202 H   0  0  0  0  0  0  0  0  0  0  0  0
    3.5945    4.3438    0.0293 H   0  0  0  0  0  0  0  0  0  0  0  0
   -4.1938   -4.4496   -2.4309 H   0  0  0  0  0  0  0  0  0  0  0  0
   -6.5120   -4.7973   -2.6684 H   0  0  0  0  0  0  0  0  0  0  0  0
   -6.2006   -1.9435   -1.5490 H   0  0  0  0  0  0  0  0  0  0  0  0
   -6.0630   -2.4888   -3.2569 H   0  0  0  0  0  0  0  0  0  0  0  0
   -7.6564   -2.5780   -2.4260 H   0  0  0  0  0  0  0  0  0  0  0  0
   -7.2434   -2.6938    0.3612 H   0  0  0  0  0  0  0  0  0  0  0  0
   -8.5134   -4.4453    1.9689 H   0  0  0  0  0  0  0  0  0  0  0  0
  -10.1922   -4.3855   -0.6330 H   0  0  0  0  0  0  0  0  0  0  0  0
   -9.4682   -5.8422    0.1595 H   0  0  0  0  0  0  0  0  0  0  0  0
  -10.7884   -4.9644    0.9713 H   0  0  0  0  0  0  0  0  0  0  0  0
   -9.3153   -1.6588   -0.4343 H   0  0  0  0  0  0  0  0  0  0  0  0
  -10.7321   -0.0869    1.5409 H   0  0  0  0  0  0  0  0  0  0  0  0
  -13.1199   -0.5710    0.8191 H   0  0  0  0  0  0  0  0  0  0  0  0
  -12.3541   -1.9599    1.6626 H   0  0  0  0  0  0  0  0  0  0  0  0
  -12.5130   -1.9849   -0.1363 H   0  0  0  0  0  0  0  0  0  0  0  0
  -11.3832    2.2167   -1.3435 H   0  0  0  0  0  0  0  0  0  0  0  0
  -12.2665    1.6889    1.3990 H   0  0  0  0  0  0  0  0  0  0  0  0
  -12.7917    4.0464    1.5184 H   0  0  0  0  0  0  0  0  0  0  0  0
  -13.3574    3.3468   -0.0361 H   0  0  0  0  0  0  0  0  0  0  0  0
  -11.8873    4.3882   -0.0006 H   0  0  0  0  0  0  0  0  0  0  0  0
   -8.4070    3.4140    1.8541 H   0  0  0  0  0  0  0  0  0  0  0  0
   -8.9499    2.3425   -0.8069 H   0  0  0  0  0  0  0  0  0  0  0  0
  -10.0567    6.4795   -0.6726 H   0  0  0  0  0  0  0  0  0  0  0  0
   -8.9404    5.8998    0.6006 H   0  0  0  0  0  0  0  0  0  0  0  0
   -6.8897    4.4968   -0.0947 H   0  0  0  0  0  0  0  0  0  0  0  0
   -6.6915    2.7553    0.3112 H   0  0  0  0  0  0  0  0  0  0  0  0
   -4.3753    3.6077   -2.8512 H   0  0  0  0  0  0  0  0  0  0  0  0
   -5.0950    4.9645   -1.9248 H   0  0  0  0  0  0  0  0  0  0  0  0
  1  2  1  0
  2  3  2  0
  2  4  1  0
  4  5  1  0
  5  6  1  0
  6  7  1  0
  7  8  1  0
  8  9  1  0
  9 10  1  0
 10 11  2  0
 11 12  1  0
 12 13  2  0
 13 14  1  0
 13 15  1  0
 15 16  1  0
 16 17  1  0
 17 18  1  0
 18 19  1  0
 19 20  1  0
 20 21  2  0
 20 22  1  0
 22 23  1  0
 22 24  1  0
 24 25  1  0
 25 26  2  0
 25 27  1  0
 27 28  1  0
 27 29  1  0
 29 30  1  0
 30 31  2  0
 30 32  1  0
 32 33  1  0
 32 34  1  0
 34 35  1  0
 35 36  2  0
 35 37  1  0
 37 38  1  0
 37 39  1  0
 39 40  1  0
 40 41  2  0
 40 42  1  0
 42 43  1  0
 42 44  1  0
 44 45  1  0
 45 46  2  0
 45 47  1  0
 47 48  1  0
 47 49  1  0
 49 50  1  0
 50 51  2  0
 50 52  1  0
 52 53  1  0
 52 54  1  0
 54 55  1  0
 55 56  2  0
 55 57  1  0
 57 58  1  0
 57 59  1  0
 59 60  1  0
 60 61  2  0
 60 62  1  0
 62 63  1  0
 62 64  1  0
 64 65  1  0
 65 66  2  0
 18 67  1  0
 67 68  2  0
 67 69  1  0
 69 70  1  0
 70 71  1  0
 70 72  1  0
 72 73  2  0
 72 74  1  0
 74 75  1  0
 75 76  1  0
 75 77  1  0
 77 78  2  0
 77 79  1  0
 79 80  1  0
 80 81  1  0
 80 82  1  0
 82 83  2  0
 82 84  1  0
 84 85  1  0
 85 86  1  0
 85 87  1  0
 87 88  2  0
 87 89  1  0
 89 90  1  0
 90 91  1  0
 91 92  1  0
 91 93  2  0
 90 94  1  0
 94 95  1  0
 95 96  1  0
 65  5  1  0
 14  9  2  0
 96 11  1  0
  1 97  1  0
  1 98  1  0
  1 99  1  0
  4100  1  0
  5101  1  6
  6102  1  0
  6103  1  0
  8104  1  0
  8105  1  0
 10106  1  0
 12107  1  0
 14108  1  0
 15109  1  0
 15110  1  0
 17111  1  0
 17112  1  0
 18113  1  6
 19114  1  0
 22115  1  1
 23116  1  0
 23117  1  0
 23118  1  0
 24119  1  0
 27120  1  1
 28121  1  0
 28122  1  0
 28123  1  0
 29124  1  0
 32125  1  1
 33126  1  0
 33127  1  0
 33128  1  0
 34129  1  0
 37130  1  1
 38131  1  0
 38132  1  0
 38133  1  0
 39134  1  0
 42135  1  1
 43136  1  0
 43137  1  0
 43138  1  0
 44139  1  0
 47140  1  1
 48141  1  0
 48142  1  0
 48143  1  0
 49144  1  0
 52145  1  1
 53146  1  0
 53147  1  0
 53148  1  0
 54149  1  0
 57150  1  1
 58151  1  0
 58152  1  0
 58153  1  0
 59154  1  0
 62155  1  1
 63156  1  0
 63157  1  0
 63158  1  0
 64159  1  0
 69160  1  0
 70161  1  6
 71162  1  0
 71163  1  0
 71164  1  0
 74165  1  0
 75166  1  1
 76167  1  0
 76168  1  0
 76169  1  0
 79170  1  0
 80171  1  1
 81172  1  0
 81173  1  0
 81174  1  0
 84175  1  0
 85176  1  1
 86177  1  0
 86178  1  0
 86179  1  0
 89180  1  0
 90181  1  6
 92182  1  0
 92183  1  0
 94184  1  0
 94185  1  0
 96186  1  0
 96187  1  0
M  END
