
     RDKit          3D

197199  0  0  0  0  0  0  0  0999 V2000
   -1.0726    5.7285    4.2905 C   0  0  0  0  0  0  0  0  0  0  0  0
   -1.2421    5.3718    2.8495 C   0  0  0  0  0  0  0  0  0  0  0  0
   -1.1740    4.1633    2.5027 O   0  0  0  0  0  0  0  0  0  0  0  0
   -1.5301    6.4093    1.8958 N   0  0  0  0  0  0  0  0  0  0  0  0
   -1.2324    6.4106    0.4496 C   0  0  1  0  0  0  0  0  0  0  0  0
   -0.6593    5.0720   -0.0759 C   0  0  0  0  0  0  0  0  0  0  0  0
   -0.0877    5.2456   -1.8093 S   0  0  0  0  0  0  0  0  0  0  0  0
   -0.0674    3.4622   -2.2157 C   0  0  0  0  0  0  0  0  0  0  0  0
    1.0154    2.7120   -1.4788 C   0  0  0  0  0  0  0  0  0  0  0  0
    2.3544    3.0871   -1.6334 C   0  0  0  0  0  0  0  0  0  0  0  0
    3.3889    2.2939   -1.1164 C   0  0  0  0  0  0  0  0  0  0  0  0
    3.0693    1.1265   -0.3999 C   0  0  0  0  0  0  0  0  0  0  0  0
    1.7292    0.7423   -0.2141 C   0  0  0  0  0  0  0  0  0  0  0  0
    0.7060    1.5470   -0.7542 C   0  0  0  0  0  0  0  0  0  0  0  0
    1.3889   -0.5291    0.5202 C   0  0  0  0  0  0  0  0  0  0  0  0
    0.2080   -1.5549   -0.4383 S   0  0  0  0  0  0  0  0  0  0  0  0
    1.2848   -3.0002   -0.7624 C   0  0  0  0  0  0  0  0  0  0  0  0
    1.1357   -4.0962    0.3288 C   0  0  1  0  0  0  0  0  0  0  0  0
    1.3504   -5.4356   -0.2434 N   0  0  0  0  0  0  0  0  0  0  0  0
    1.1620   -6.7306    0.3836 C   0  0  0  0  0  0  0  0  0  0  0  0
    1.6070   -7.7386   -0.2372 O   0  0  0  0  0  0  0  0  0  0  0  0
    0.4828   -7.0095    1.7195 C   0  0  1  0  0  0  0  0  0  0  0  0
    1.4874   -7.6192    2.7103 C   0  0  0  0  0  0  0  0  0  0  0  0
   -0.1699   -5.8478    2.3293 N   0  0  0  0  0  0  0  0  0  0  0  0
   -1.5702   -5.5441    2.1930 C   0  0  0  0  0  0  0  0  0  0  0  0
   -2.1117   -4.7957    3.0555 O   0  0  0  0  0  0  0  0  0  0  0  0
   -2.3964   -6.0706    1.0465 C   0  0  1  0  0  0  0  0  0  0  0  0
   -3.2739   -7.2477    1.4990 C   0  0  0  0  0  0  0  0  0  0  0  0
   -3.1926   -4.9916    0.4420 N   0  0  0  0  0  0  0  0  0  0  0  0
   -4.5267   -4.6432    0.8571 C   0  0  0  0  0  0  0  0  0  0  0  0
   -4.7966   -4.5364    2.0855 O   0  0  0  0  0  0  0  0  0  0  0  0
   -5.6445   -4.5196   -0.1469 C   0  0  1  0  0  0  0  0  0  0  0  0
   -5.1645   -4.0685   -1.5274 C   0  0  0  0  0  0  0  0  0  0  0  0
   -6.3130   -5.8145   -0.2619 N   0  0  0  0  0  0  0  0  0  0  0  0
   -7.4475   -6.1182    0.5509 C   0  0  0  0  0  0  0  0  0  0  0  0
   -7.2980   -6.8359    1.5778 O   0  0  0  0  0  0  0  0  0  0  0  0
   -8.8197   -5.6757    0.1284 C   0  0  1  0  0  0  0  0  0  0  0  0
   -9.6221   -6.8855   -0.3594 C   0  0  0  0  0  0  0  0  0  0  0  0
   -9.5159   -5.0343    1.2527 N   0  0  0  0  0  0  0  0  0  0  0  0
  -10.5214   -4.0123    1.1032 C   0  0  0  0  0  0  0  0  0  0  0  0
  -11.4450   -3.9456    1.9577 O   0  0  0  0  0  0  0  0  0  0  0  0
  -10.4987   -3.0129   -0.0392 C   0  0  1  0  0  0  0  0  0  0  0  0
  -11.3104   -3.5511   -1.2220 C   0  0  0  0  0  0  0  0  0  0  0  0
  -11.0744   -1.7292    0.3902 N   0  0  0  0  0  0  0  0  0  0  0  0
  -10.6749   -0.4390   -0.1157 C   0  0  0  0  0  0  0  0  0  0  0  0
  -11.5116    0.5071   -0.0645 O   0  0  0  0  0  0  0  0  0  0  0  0
   -9.2943   -0.1794   -0.6810 C   0  0  1  0  0  0  0  0  0  0  0  0
   -9.2196   -0.5211   -2.1745 C   0  0  0  0  0  0  0  0  0  0  0  0
   -8.8555    1.2054   -0.4344 N   0  0  0  0  0  0  0  0  0  0  0  0
   -9.2716    2.3364   -1.2210 C   0  0  0  0  0  0  0  0  0  0  0  0
  -10.3995    2.3422   -1.7796 O   0  0  0  0  0  0  0  0  0  0  0  0
   -8.3295    3.4876   -1.4423 C   0  0  1  0  0  0  0  0  0  0  0  0
   -7.8046    3.4492   -2.8779 C   0  0  0  0  0  0  0  0  0  0  0  0
   -9.0116    4.7628   -1.2101 N   0  0  0  0  0  0  0  0  0  0  0  0
   -8.4110    5.8392   -0.4680 C   0  0  0  0  0  0  0  0  0  0  0  0
   -8.3187    6.9749   -1.0105 O   0  0  0  0  0  0  0  0  0  0  0  0
   -7.9989    5.6832    0.9752 C   0  0  1  0  0  0  0  0  0  0  0  0
   -9.1460    5.0910    1.8030 C   0  0  0  0  0  0  0  0  0  0  0  0
   -6.7907    4.8614    1.1051 N   0  0  0  0  0  0  0  0  0  0  0  0
   -5.4746    5.4307    1.1725 C   0  0  0  0  0  0  0  0  0  0  0  0
   -4.6954    5.0677    2.0935 O   0  0  0  0  0  0  0  0  0  0  0  0
   -4.9841    6.4179    0.1422 C   0  0  1  0  0  0  0  0  0  0  0  0
   -5.0089    7.8316    0.7368 C   0  0  0  0  0  0  0  0  0  0  0  0
   -3.6420    6.0030   -0.3098 N   0  0  0  0  0  0  0  0  0  0  0  0
   -2.4686    6.8341   -0.3001 C   0  0  0  0  0  0  0  0  0  0  0  0
   -2.4736    7.9357   -0.9067 O   0  0  0  0  0  0  0  0  0  0  0  0
    2.0738   -3.8434    1.4906 C   0  0  0  0  0  0  0  0  0  0  0  0
    1.6185   -3.2470    2.4991 O   0  0  0  0  0  0  0  0  0  0  0  0
    3.4308   -4.3150    1.5160 N   0  0  0  0  0  0  0  0  0  0  0  0
    4.2996   -4.4356    0.3452 C   0  0  2  0  0  0  0  0  0  0  0  0
    4.9965   -5.7961    0.3500 C   0  0  0  0  0  0  0  0  0  0  0  0
    5.2707   -3.2802    0.3307 C   0  0  0  0  0  0  0  0  0  0  0  0
    5.0171   -2.2858   -0.3988 O   0  0  0  0  0  0  0  0  0  0  0  0
    6.4233   -3.2779    1.1913 N   0  0  0  0  0  0  0  0  0  0  0  0
    7.1714   -2.0772    1.5936 C   0  0  2  0  0  0  0  0  0  0  0  0
    6.2463   -0.9756    2.1234 C   0  0  0  0  0  0  0  0  0  0  0  0
    8.0466   -1.5934    0.4623 C   0  0  0  0  0  0  0  0  0  0  0  0
    7.5187   -1.1516   -0.5970 O   0  0  0  0  0  0  0  0  0  0  0  0
    9.4788   -1.6336    0.5874 N   0  0  0  0  0  0  0  0  0  0  0  0
   10.3621   -1.5100   -0.5757 C   0  0  2  0  0  0  0  0  0  0  0  0
   10.3570   -2.8186   -1.3671 C   0  0  0  0  0  0  0  0  0  0  0  0
   11.7703   -1.1630   -0.1268 C   0  0  0  0  0  0  0  0  0  0  0  0
   12.3944   -1.9858    0.5960 O   0  0  0  0  0  0  0  0  0  0  0  0
   12.4024    0.0921   -0.4510 N   0  0  0  0  0  0  0  0  0  0  0  0
   12.1106    0.8946   -1.6419 C   0  0  2  0  0  0  0  0  0  0  0  0
   12.5002    0.1255   -2.9047 C   0  0  0  0  0  0  0  0  0  0  0  0
   12.8697    2.2085   -1.5965 C   0  0  0  0  0  0  0  0  0  0  0  0
   14.1321    2.1750   -1.5802 O   0  0  0  0  0  0  0  0  0  0  0  0
   12.2176    3.4931   -1.6046 N   0  0  0  0  0  0  0  0  0  0  0  0
   10.7618    3.6976   -1.5428 C   0  0  2  0  0  0  0  0  0  0  0  0
   10.1563    3.5229   -2.9403 C   0  0  0  0  0  0  0  0  0  0  0  0
   10.4003    5.0692   -1.0140 C   0  0  0  0  0  0  0  0  0  0  0  0
   11.2964    5.9313   -0.7969 O   0  0  0  0  0  0  0  0  0  0  0  0
    9.0312    5.4440   -0.8211 N   0  0  0  0  0  0  0  0  0  0  0  0
    8.0760    4.6408   -0.0513 C   0  0  1  0  0  0  0  0  0  0  0  0
    7.9445    5.2145    1.3337 C   0  0  0  0  0  0  0  0  0  0  0  0
    7.4528    6.5418    1.5379 N   0  0  0  0  0  0  0  0  0  0  0  0
    8.3253    4.5377    2.3264 O   0  0  0  0  0  0  0  0  0  0  0  0
    6.7329    4.5876   -0.7945 C   0  0  0  0  0  0  0  0  0  0  0  0
    5.4887    3.5807    0.1084 S   0  0  0  0  0  0  0  0  0  0  0  0
    4.8235    2.6872   -1.3433 C   0  0  0  0  0  0  0  0  0  0  0  0
   -1.9962    6.2137    4.6700 H   0  0  0  0  0  0  0  0  0  0  0  0
   -0.2283    6.4416    4.3978 H   0  0  0  0  0  0  0  0  0  0  0  0
   -0.8721    4.8205    4.8990 H   0  0  0  0  0  0  0  0  0  0  0  0
   -1.8330    7.3320    2.2928 H   0  0  0  0  0  0  0  0  0  0  0  0
   -0.4377    7.1732    0.2878 H   0  0  0  0  0  0  0  0  0  0  0  0
    0.2384    4.7983    0.5299 H   0  0  0  0  0  0  0  0  0  0  0  0
   -1.4208    4.2650    0.0035 H   0  0  0  0  0  0  0  0  0  0  0  0
    0.1259    3.3726   -3.3036 H   0  0  0  0  0  0  0  0  0  0  0  0
   -1.0708    3.0304   -2.0269 H   0  0  0  0  0  0  0  0  0  0  0  0
    2.5922    3.9909   -2.1883 H   0  0  0  0  0  0  0  0  0  0  0  0
    3.8632    0.5025   -0.0127 H   0  0  0  0  0  0  0  0  0  0  0  0
   -0.3286    1.2408   -0.6591 H   0  0  0  0  0  0  0  0  0  0  0  0
    0.9023   -0.2733    1.4817 H   0  0  0  0  0  0  0  0  0  0  0  0
    2.3091   -1.0980    0.7652 H   0  0  0  0  0  0  0  0  0  0  0  0
    0.9377   -3.4035   -1.7388 H   0  0  0  0  0  0  0  0  0  0  0  0
    2.3303   -2.6683   -0.9098 H   0  0  0  0  0  0  0  0  0  0  0  0
    0.0849   -4.0395    0.6716 H   0  0  0  0  0  0  0  0  0  0  0  0
    1.7328   -5.4849   -1.2195 H   0  0  0  0  0  0  0  0  0  0  0  0
   -0.2823   -7.7987    1.5453 H   0  0  0  0  0  0  0  0  0  0  0  0
    0.9907   -7.8474    3.6740 H   0  0  0  0  0  0  0  0  0  0  0  0
    2.3188   -6.9061    2.8943 H   0  0  0  0  0  0  0  0  0  0  0  0
    1.9060   -8.5669    2.3072 H   0  0  0  0  0  0  0  0  0  0  0  0
    0.3407   -5.3532    3.0950 H   0  0  0  0  0  0  0  0  0  0  0  0
   -1.7230   -6.4569    0.2569 H   0  0  0  0  0  0  0  0  0  0  0  0
   -3.9404   -6.9561    2.3433 H   0  0  0  0  0  0  0  0  0  0  0  0
   -2.6384   -8.0916    1.8412 H   0  0  0  0  0  0  0  0  0  0  0  0
   -3.8994   -7.5961    0.6517 H   0  0  0  0  0  0  0  0  0  0  0  0
   -2.7145   -4.3596   -0.2419 H   0  0  0  0  0  0  0  0  0  0  0  0
   -6.3630   -3.7560    0.2217 H   0  0  0  0  0  0  0  0  0  0  0  0
   -4.5065   -4.8416   -1.9876 H   0  0  0  0  0  0  0  0  0  0  0  0
   -6.0413   -3.9035   -2.1896 H   0  0  0  0  0  0  0  0  0  0  0  0
   -4.5988   -3.1094   -1.4433 H   0  0  0  0  0  0  0  0  0  0  0  0
   -5.7763   -6.6200   -0.6608 H   0  0  0  0  0  0  0  0  0  0  0  0
   -8.7114   -4.9629   -0.7123 H   0  0  0  0  0  0  0  0  0  0  0  0
   -9.6890   -7.6571    0.4356 H   0  0  0  0  0  0  0  0  0  0  0  0
   -9.1329   -7.3258   -1.2549 H   0  0  0  0  0  0  0  0  0  0  0  0
  -10.6577   -6.5838   -0.6269 H   0  0  0  0  0  0  0  0  0  0  0  0
   -9.5107   -5.5403    2.1667 H   0  0  0  0  0  0  0  0  0  0  0  0
   -9.4515   -2.8723   -0.3584 H   0  0  0  0  0  0  0  0  0  0  0  0
  -12.3396   -3.8286   -0.8962 H   0  0  0  0  0  0  0  0  0  0  0  0
  -10.8257   -4.4398   -1.6664 H   0  0  0  0  0  0  0  0  0  0  0  0
  -11.3957   -2.7742   -2.0141 H   0  0  0  0  0  0  0  0  0  0  0  0
  -12.0089   -1.7609    0.8640 H   0  0  0  0  0  0  0  0  0  0  0  0
   -8.5777   -0.8370   -0.1477 H   0  0  0  0  0  0  0  0  0  0  0  0
   -8.2664   -0.1520   -2.6063 H   0  0  0  0  0  0  0  0  0  0  0  0
  -10.0636   -0.0577   -2.7330 H   0  0  0  0  0  0  0  0  0  0  0  0
   -9.2634   -1.6197   -2.3282 H   0  0  0  0  0  0  0  0  0  0  0  0
   -8.0498    1.3359    0.2161 H   0  0  0  0  0  0  0  0  0  0  0  0
   -7.4550    3.3850   -0.7753 H   0  0  0  0  0  0  0  0  0  0  0  0
   -7.1230    4.3048   -3.0585 H   0  0  0  0  0  0  0  0  0  0  0  0
   -8.6438    3.5061   -3.6056 H   0  0  0  0  0  0  0  0  0  0  0  0
   -7.2369    2.5124   -3.0511 H   0  0  0  0  0  0  0  0  0  0  0  0
   -9.8057    5.0129   -1.8423 H   0  0  0  0  0  0  0  0  0  0  0  0
   -7.8037    6.6886    1.4051 H   0  0  0  0  0  0  0  0  0  0  0  0
  -10.0568    5.7234    1.7033 H   0  0  0  0  0  0  0  0  0  0  0  0
   -9.3822    4.0588    1.4679 H   0  0  0  0  0  0  0  0  0  0  0  0
   -8.8564    5.0582    2.8760 H   0  0  0  0  0  0  0  0  0  0  0  0
   -6.8963    3.8832    1.4728 H   0  0  0  0  0  0  0  0  0  0  0  0
   -5.6631    6.3971   -0.7338 H   0  0  0  0  0  0  0  0  0  0  0  0
   -6.0377    8.1023    1.0471 H   0  0  0  0  0  0  0  0  0  0  0  0
   -4.6870    8.5819   -0.0148 H   0  0  0  0  0  0  0  0  0  0  0  0
   -4.3496    7.8984    1.6331 H   0  0  0  0  0  0  0  0  0  0  0  0
   -3.5277    5.0137   -0.6220 H   0  0  0  0  0  0  0  0  0  0  0  0
    3.8909   -4.3882    2.4547 H   0  0  0  0  0  0  0  0  0  0  0  0
    3.7069   -4.4027   -0.5891 H   0  0  0  0  0  0  0  0  0  0  0  0
    5.7629   -5.8375   -0.4562 H   0  0  0  0  0  0  0  0  0  0  0  0
    4.2475   -6.5921    0.1639 H   0  0  0  0  0  0  0  0  0  0  0  0
    5.4755   -5.9950    1.3286 H   0  0  0  0  0  0  0  0  0  0  0  0
    6.9467   -4.1840    1.2953 H   0  0  0  0  0  0  0  0  0  0  0  0
    7.8235   -2.3642    2.4482 H   0  0  0  0  0  0  0  0  0  0  0  0
    6.8547   -0.1401    2.5275 H   0  0  0  0  0  0  0  0  0  0  0  0
    5.5917   -0.5746    1.3271 H   0  0  0  0  0  0  0  0  0  0  0  0
    5.6176   -1.3846    2.9480 H   0  0  0  0  0  0  0  0  0  0  0  0
    9.8954   -1.7929    1.5354 H   0  0  0  0  0  0  0  0  0  0  0  0
    9.9698   -0.7118   -1.2320 H   0  0  0  0  0  0  0  0  0  0  0  0
    9.3294   -3.0310   -1.7224 H   0  0  0  0  0  0  0  0  0  0  0  0
   10.6960   -3.6601   -0.7313 H   0  0  0  0  0  0  0  0  0  0  0  0
   11.0228   -2.7445   -2.2503 H   0  0  0  0  0  0  0  0  0  0  0  0
   13.2323    0.3597    0.1405 H   0  0  0  0  0  0  0  0  0  0  0  0
   11.0329    1.0888   -1.6924 H   0  0  0  0  0  0  0  0  0  0  0  0
   13.5187   -0.3089   -2.7974 H   0  0  0  0  0  0  0  0  0  0  0  0
   12.4891    0.7959   -3.7896 H   0  0  0  0  0  0  0  0  0  0  0  0
   11.7771   -0.6920   -3.0955 H   0  0  0  0  0  0  0  0  0  0  0  0
   12.8423    4.3229   -1.7357 H   0  0  0  0  0  0  0  0  0  0  0  0
   10.3291    2.9494   -0.8508 H   0  0  0  0  0  0  0  0  0  0  0  0
   10.4890    4.3434   -3.6096 H   0  0  0  0  0  0  0  0  0  0  0  0
   10.4680    2.5603   -3.4008 H   0  0  0  0  0  0  0  0  0  0  0  0
    9.0461    3.5291   -2.8841 H   0  0  0  0  0  0  0  0  0  0  0  0
    8.7732    6.4322   -1.0236 H   0  0  0  0  0  0  0  0  0  0  0  0
    8.4342    3.5915    0.0390 H   0  0  0  0  0  0  0  0  0  0  0  0
    7.1206    7.1190    0.7393 H   0  0  0  0  0  0  0  0  0  0  0  0
    7.5035    6.9739    2.4839 H   0  0  0  0  0  0  0  0  0  0  0  0
    6.3190    5.6040   -0.9315 H   0  0  0  0  0  0  0  0  0  0  0  0
    6.9209    4.1646   -1.8005 H   0  0  0  0  0  0  0  0  0  0  0  0
    4.8852    3.3256   -2.2547 H   0  0  0  0  0  0  0  0  0  0  0  0
    5.4504    1.7887   -1.5309 H   0  0  0  0  0  0  0  0  0  0  0  0
  1  2  1  0
  2  3  2  0
  2  4  1  0
  4  5  1  0
  5  6  1  0
  6  7  1  0
  7  8  1  0
  8  9  1  0
  9 10  1  0
 10 11  2  0
 11 12  1  0
 12 13  2  0
 13 14  1  0
 13 15  1  0
 15 16  1  0
 16 17  1  0
 17 18  1  0
 18 19  1  0
 19 20  1  0
 20 21  2  0
 20 22  1  0
 22 23  1  0
 22 24  1  0
 24 25  1  0
 25 26  2  0
 25 27  1  0
 27 28  1  0
 27 29  1  0
 29 30  1  0
 30 31  2  0
 30 32  1  0
 32 33  1  0
 32 34  1  0
 34 35  1  0
 35 36  2  0
 35 37  1  0
 37 38  1  0
 37 39  1  0
 39 40  1  0
 40 41  2  0
 40 42  1  0
 42 43  1  0
 42 44  1  0
 44 45  1  0
 45 46  2  0
 45 47  1  0
 47 48  1  0
 47 49  1  0
 49 50  1  0
 50 51  2  0
 50 52  1  0
 52 53  1  0
 52 54  1  0
 54 55  1  0
 55 56  2  0
 55 57  1  0
 57 58  1  0
 57 59  1  0
 59 60  1  0
 60 61  2  0
 60 62  1  0
 62 63  1  0
 62 64  1  0
 64 65  1  0
 65 66  2  0
 18 67  1  0
 67 68  2  0
 67 69  1  0
 69 70  1  0
 70 71  1  0
 70 72  1  0
 72 73  2  0
 72 74  1  0
 74 75  1  0
 75 76  1  0
 75 77  1  0
 77 78  2  0
 77 79  1  0
 79 80  1  0
 80 81  1  0
 80 82  1  0
 82 83  2  0
 82 84  1  0
 84 85  1  0
 85 86  1  0
 85 87  1  0
 87 88  2  0
 87 89  1  0
 89 90  1  0
 90 91  1  0
 90 92  1  0
 92 93  2  0
 92 94  1  0
 94 95  1  0
 95 96  1  0
 96 97  1  0
 96 98  2  0
 95 99  1  0
 99100  1  0
100101  1  0
 65  5  1  0
 14  9  2  0
101 11  1  0
  1102  1  0
  1103  1  0
  1104  1  0
  4105  1  0
  5106  1  1
  6107  1  0
  6108  1  0
  8109  1  0
  8110  1  0
 10111  1  0
 12112  1  0
 14113  1  0
 15114  1  0
 15115  1  0
 17116  1  0
 17117  1  0
 18118  1  1
 19119  1  0
 22120  1  6
 23121  1  0
 23122  1  0
 23123  1  0
 24124  1  0
 27125  1  6
 28126  1  0
 28127  1  0
 28128  1  0
 29129  1  0
 32130  1  1
 33131  1  0
 33132  1  0
 33133  1  0
 34134  1  0
 37135  1  6
 38136  1  0
 38137  1  0
 38138  1  0
 39139  1  0
 42140  1  6
 43141  1  0
 43142  1  0
 43143  1  0
 44144  1  0
 47145  1  1
 48146  1  0
 48147  1  0
 48148  1  0
 49149  1  0
 52150  1  1
 53151  1  0
 53152  1  0
 53153  1  0
 54154  1  0
 57155  1  1
 58156  1  0
 58157  1  0
 58158  1  0
 59159  1  0
 62160  1  6
 63161  1  0
 63162  1  0
 63163  1  0
 64164  1  0
 69165  1  0
 70166  1  6
 71167  1  0
 71168  1  0
 71169  1  0
 74170  1  0
 75171  1  1
 76172  1  0
 76173  1  0
 76174  1  0
 79175  1  0
 80176  1  6
 81177  1  0
 81178  1  0
 81179  1  0
 84180  1  0
 85181  1  6
 86182  1  0
 86183  1  0
 86184  1  0
 89185  1  0
 90186  1  1
 91187  1  0
 91188  1  0
 91189  1  0
 94190  1  0
 95191  1  1
 97192  1  0
 97193  1  0
 99194  1  0
 99195  1  0
101196  1  0
101197  1  0
M  END
