
     RDKit          3D

207209  0  0  0  0  0  0  0  0999 V2000
   -2.3199    9.5310    2.3761 C   0  0  0  0  0  0  0  0  0  0  0  0
   -2.1276    8.4892    1.3239 C   0  0  0  0  0  0  0  0  0  0  0  0
   -1.1250    8.5704    0.5609 O   0  0  0  0  0  0  0  0  0  0  0  0
   -3.0928    7.4340    1.1566 N   0  0  0  0  0  0  0  0  0  0  0  0
   -2.9782    6.3722    0.1474 C   0  0  2  0  0  0  0  0  0  0  0  0
   -1.7936    5.4443    0.4776 C   0  0  0  0  0  0  0  0  0  0  0  0
   -2.0366    4.6082    2.0915 S   0  0  0  0  0  0  0  0  0  0  0  0
   -0.2592    4.3355    2.4496 C   0  0  0  0  0  0  0  0  0  0  0  0
    0.4095    3.5381    1.3624 C   0  0  0  0  0  0  0  0  0  0  0  0
    1.3859    4.1313    0.5454 C   0  0  0  0  0  0  0  0  0  0  0  0
    1.9528    3.4164   -0.5204 C   0  0  0  0  0  0  0  0  0  0  0  0
    1.5713    2.0850   -0.7385 C   0  0  0  0  0  0  0  0  0  0  0  0
    0.6061    1.4787    0.0782 C   0  0  0  0  0  0  0  0  0  0  0  0
    0.0306    2.2099    1.1288 C   0  0  0  0  0  0  0  0  0  0  0  0
    0.2266    0.0404   -0.1367 C   0  0  0  0  0  0  0  0  0  0  0  0
    1.2612   -1.0350    0.9311 S   0  0  0  0  0  0  0  0  0  0  0  0
    2.2668   -1.8080   -0.3868 C   0  0  0  0  0  0  0  0  0  0  0  0
    1.6627   -3.1597   -0.8043 C   0  0  1  0  0  0  0  0  0  0  0  0
    0.4827   -2.9305   -1.6549 N   0  0  0  0  0  0  0  0  0  0  0  0
   -0.8569   -3.3541   -1.3402 C   0  0  0  0  0  0  0  0  0  0  0  0
   -1.8105   -2.5680   -1.5848 O   0  0  0  0  0  0  0  0  0  0  0  0
   -1.1777   -4.7399   -0.8195 C   0  0  1  0  0  0  0  0  0  0  0  0
   -0.3630   -5.7938   -1.5874 C   0  0  0  0  0  0  0  0  0  0  0  0
   -0.9616   -4.8118    0.6322 N   0  0  0  0  0  0  0  0  0  0  0  0
   -1.2821   -5.9321    1.4820 C   0  0  0  0  0  0  0  0  0  0  0  0
   -0.8942   -5.9005    2.6832 O   0  0  0  0  0  0  0  0  0  0  0  0
   -2.0583   -7.1360    1.0085 C   0  0  1  0  0  0  0  0  0  0  0  0
   -1.1561   -8.3781    1.0079 C   0  0  0  0  0  0  0  0  0  0  0  0
   -3.2120   -7.3696    1.8912 N   0  0  0  0  0  0  0  0  0  0  0  0
   -4.5817   -7.4522    1.4628 C   0  0  0  0  0  0  0  0  0  0  0  0
   -5.4466   -7.8477    2.2901 O   0  0  0  0  0  0  0  0  0  0  0  0
   -5.0250   -7.1218    0.0502 C   0  0  1  0  0  0  0  0  0  0  0  0
   -4.8333   -8.3359   -0.8651 C   0  0  0  0  0  0  0  0  0  0  0  0
   -6.4314   -6.7209    0.0354 N   0  0  0  0  0  0  0  0  0  0  0  0
   -6.8376   -5.3645   -0.2054 C   0  0  0  0  0  0  0  0  0  0  0  0
   -6.0253   -4.4199    0.0155 O   0  0  0  0  0  0  0  0  0  0  0  0
   -8.2497   -5.0303   -0.6191 C   0  0  1  0  0  0  0  0  0  0  0  0
   -8.7315   -5.9527   -1.7428 C   0  0  0  0  0  0  0  0  0  0  0  0
   -9.1440   -5.1257    0.5360 N   0  0  0  0  0  0  0  0  0  0  0  0
  -10.3777   -4.3975    0.6996 C   0  0  0  0  0  0  0  0  0  0  0  0
  -11.0078   -4.5264    1.7830 O   0  0  0  0  0  0  0  0  0  0  0  0
  -10.9535   -3.4852   -0.3668 C   0  0  1  0  0  0  0  0  0  0  0  0
  -12.3386   -3.9711   -0.8032 C   0  0  0  0  0  0  0  0  0  0  0  0
  -11.0536   -2.1190    0.1551 N   0  0  0  0  0  0  0  0  0  0  0  0
  -10.3712   -1.0113   -0.4508 C   0  0  0  0  0  0  0  0  0  0  0  0
   -9.3717   -1.2161   -1.1920 O   0  0  0  0  0  0  0  0  0  0  0  0
  -10.8380    0.4060   -0.2170 C   0  0  1  0  0  0  0  0  0  0  0  0
  -12.3136    0.5602   -0.6004 C   0  0  0  0  0  0  0  0  0  0  0  0
  -10.6319    0.7905    1.1845 N   0  0  0  0  0  0  0  0  0  0  0  0
  -10.5170    2.1493    1.6540 C   0  0  0  0  0  0  0  0  0  0  0  0
  -10.4786    2.3529    2.9001 O   0  0  0  0  0  0  0  0  0  0  0  0
  -10.3091    3.3168    0.7168 C   0  0  1  0  0  0  0  0  0  0  0  0
  -10.9869    4.5915    1.2504 C   0  0  0  0  0  0  0  0  0  0  0  0
   -8.8695    3.4819    0.4555 N   0  0  0  0  0  0  0  0  0  0  0  0
   -8.1311    4.6960    0.6774 C   0  0  0  0  0  0  0  0  0  0  0  0
   -8.0969    5.1934    1.8334 O   0  0  0  0  0  0  0  0  0  0  0  0
   -7.3522    5.3487   -0.4534 C   0  0  1  0  0  0  0  0  0  0  0  0
   -8.0699    5.1393   -1.7930 C   0  0  0  0  0  0  0  0  0  0  0  0
   -7.1949    6.7912   -0.1905 N   0  0  0  0  0  0  0  0  0  0  0  0
   -6.0657    7.5824   -0.5945 C   0  0  0  0  0  0  0  0  0  0  0  0
   -5.7795    8.6104    0.0802 O   0  0  0  0  0  0  0  0  0  0  0  0
   -5.3054    7.3102   -1.8687 C   0  0  1  0  0  0  0  0  0  0  0  0
   -6.0093    8.0172   -3.0358 C   0  0  0  0  0  0  0  0  0  0  0  0
   -3.9201    7.7867   -1.7682 N   0  0  0  0  0  0  0  0  0  0  0  0
   -2.8664    6.9796   -1.2348 C   0  0  0  0  0  0  0  0  0  0  0  0
   -1.8063    6.8433   -1.9036 O   0  0  0  0  0  0  0  0  0  0  0  0
    2.6778   -3.9837   -1.5612 C   0  0  0  0  0  0  0  0  0  0  0  0
    3.0163   -3.6106   -2.7119 O   0  0  0  0  0  0  0  0  0  0  0  0
    3.1926   -5.2416   -1.0761 N   0  0  0  0  0  0  0  0  0  0  0  0
    3.5755   -5.5983    0.3042 C   0  0  2  0  0  0  0  0  0  0  0  0
    2.3921   -6.1105    1.1398 C   0  0  0  0  0  0  0  0  0  0  0  0
    4.3533   -4.4946    0.9944 C   0  0  0  0  0  0  0  0  0  0  0  0
    3.7741   -3.7738    1.8530 O   0  0  0  0  0  0  0  0  0  0  0  0
    5.7426   -4.2396    0.7019 N   0  0  0  0  0  0  0  0  0  0  0  0
    6.5933   -5.1058   -0.1254 C   0  0  2  0  0  0  0  0  0  0  0  0
    7.0470   -6.3456    0.6687 C   0  0  0  0  0  0  0  0  0  0  0  0
    7.8072   -4.3442   -0.6011 C   0  0  0  0  0  0  0  0  0  0  0  0
    7.9080   -4.0218   -1.8148 O   0  0  0  0  0  0  0  0  0  0  0  0
    8.8676   -4.0330    0.3131 N   0  0  0  0  0  0  0  0  0  0  0  0
   10.2711   -3.9606   -0.1163 C   0  0  2  0  0  0  0  0  0  0  0  0
   10.6952   -5.2844   -0.7713 C   0  0  0  0  0  0  0  0  0  0  0  0
   11.1728   -3.6892    1.0709 C   0  0  0  0  0  0  0  0  0  0  0  0
   11.1517   -4.4934    2.0414 O   0  0  0  0  0  0  0  0  0  0  0  0
   12.1124   -2.5960    1.1116 N   0  0  0  0  0  0  0  0  0  0  0  0
   12.0792   -1.4255    0.2285 C   0  0  2  0  0  0  0  0  0  0  0  0
   12.8834   -1.7102   -1.0465 C   0  0  0  0  0  0  0  0  0  0  0  0
   12.6612   -0.2147    0.9319 C   0  0  0  0  0  0  0  0  0  0  0  0
   13.6439   -0.3705    1.7136 O   0  0  0  0  0  0  0  0  0  0  0  0
   12.1110    1.1076    0.7934 N   0  0  0  0  0  0  0  0  0  0  0  0
   11.3595    1.5862   -0.3690 C   0  0  2  0  0  0  0  0  0  0  0  0
   12.2925    2.3158   -1.3413 C   0  0  0  0  0  0  0  0  0  0  0  0
   10.2457    2.4975    0.0801 C   0  0  0  0  0  0  0  0  0  0  0  0
    9.0448    2.1355   -0.0893 O   0  0  0  0  0  0  0  0  0  0  0  0
   10.5298    3.7479    0.7308 N   0  0  0  0  0  0  0  0  0  0  0  0
    9.5720    4.8603    0.7064 C   0  0  2  0  0  0  0  0  0  0  0  0
   10.2242    6.1469    1.2170 C   0  0  0  0  0  0  0  0  0  0  0  0
    8.3611    4.5221    1.5383 C   0  0  0  0  0  0  0  0  0  0  0  0
    8.5093    4.2260    2.7552 O   0  0  0  0  0  0  0  0  0  0  0  0
    7.0587    4.4112    0.9487 N   0  0  0  0  0  0  0  0  0  0  0  0
    6.3499    5.5622    0.3792 C   0  0  1  0  0  0  0  0  0  0  0  0
    6.9898    6.0308   -0.9041 C   0  0  0  0  0  0  0  0  0  0  0  0
    7.3607    7.4012   -1.0701 N   0  0  0  0  0  0  0  0  0  0  0  0
    7.1729    5.2245   -1.8582 O   0  0  0  0  0  0  0  0  0  0  0  0
    4.8634    5.2417    0.1415 C   0  0  0  0  0  0  0  0  0  0  0  0
    4.6492    3.7379   -0.8988 S   0  0  0  0  0  0  0  0  0  0  0  0
    2.9372    4.0746   -1.4419 C   0  0  0  0  0  0  0  0  0  0  0  0
   -3.2065    9.3094    3.0061 H   0  0  0  0  0  0  0  0  0  0  0  0
   -2.4640   10.5187    1.8863 H   0  0  0  0  0  0  0  0  0  0  0  0
   -1.4191    9.5789    3.0276 H   0  0  0  0  0  0  0  0  0  0  0  0
   -3.9232    7.4167    1.7905 H   0  0  0  0  0  0  0  0  0  0  0  0
   -3.9008    5.7522    0.1762 H   0  0  0  0  0  0  0  0  0  0  0  0
   -1.7104    4.6592   -0.3048 H   0  0  0  0  0  0  0  0  0  0  0  0
   -0.8486    6.0272    0.4873 H   0  0  0  0  0  0  0  0  0  0  0  0
    0.2240    5.3292    2.5730 H   0  0  0  0  0  0  0  0  0  0  0  0
   -0.1677    3.7919    3.4116 H   0  0  0  0  0  0  0  0  0  0  0  0
    1.6795    5.1590    0.7116 H   0  0  0  0  0  0  0  0  0  0  0  0
    2.0073    1.5310   -1.5584 H   0  0  0  0  0  0  0  0  0  0  0  0
   -0.7197    1.7481    1.7559 H   0  0  0  0  0  0  0  0  0  0  0  0
    0.3029   -0.2198   -1.2126 H   0  0  0  0  0  0  0  0  0  0  0  0
   -0.8383   -0.1145    0.1456 H   0  0  0  0  0  0  0  0  0  0  0  0
    3.2817   -1.9580    0.0235 H   0  0  0  0  0  0  0  0  0  0  0  0
    2.3903   -1.1365   -1.2617 H   0  0  0  0  0  0  0  0  0  0  0  0
    1.3757   -3.6890    0.1060 H   0  0  0  0  0  0  0  0  0  0  0  0
    0.5923   -2.2837   -2.4708 H   0  0  0  0  0  0  0  0  0  0  0  0
   -2.2557   -4.9246   -1.0285 H   0  0  0  0  0  0  0  0  0  0  0  0
    0.6526   -5.8889   -1.1646 H   0  0  0  0  0  0  0  0  0  0  0  0
   -0.2679   -5.5139   -2.6589 H   0  0  0  0  0  0  0  0  0  0  0  0
   -0.8481   -6.7880   -1.5682 H   0  0  0  0  0  0  0  0  0  0  0  0
   -0.5828   -3.9674    1.1255 H   0  0  0  0  0  0  0  0  0  0  0  0
   -2.3925   -6.9867   -0.0239 H   0  0  0  0  0  0  0  0  0  0  0  0
   -1.7371   -9.2672    0.6896 H   0  0  0  0  0  0  0  0  0  0  0  0
   -0.7457   -8.5600    2.0229 H   0  0  0  0  0  0  0  0  0  0  0  0
   -0.3100   -8.2382    0.3049 H   0  0  0  0  0  0  0  0  0  0  0  0
   -3.0149   -7.5829    2.8952 H   0  0  0  0  0  0  0  0  0  0  0  0
   -4.4087   -6.2859   -0.3425 H   0  0  0  0  0  0  0  0  0  0  0  0
   -3.7596   -8.5981   -0.9724 H   0  0  0  0  0  0  0  0  0  0  0  0
   -5.2393   -8.1074   -1.8749 H   0  0  0  0  0  0  0  0  0  0  0  0
   -5.3767   -9.2178   -0.4612 H   0  0  0  0  0  0  0  0  0  0  0  0
   -7.1653   -7.4536    0.1620 H   0  0  0  0  0  0  0  0  0  0  0  0
   -8.2286   -3.9884   -1.0010 H   0  0  0  0  0  0  0  0  0  0  0  0
   -8.8907   -6.9883   -1.3733 H   0  0  0  0  0  0  0  0  0  0  0  0
   -7.9854   -5.9756   -2.5666 H   0  0  0  0  0  0  0  0  0  0  0  0
   -9.6918   -5.5850   -2.1650 H   0  0  0  0  0  0  0  0  0  0  0  0
   -8.9100   -5.8217    1.2836 H   0  0  0  0  0  0  0  0  0  0  0  0
  -10.3235   -3.4936   -1.2772 H   0  0  0  0  0  0  0  0  0  0  0  0
  -12.7429   -3.2904   -1.5833 H   0  0  0  0  0  0  0  0  0  0  0  0
  -12.2693   -4.9939   -1.2334 H   0  0  0  0  0  0  0  0  0  0  0  0
  -13.0418   -3.9834    0.0555 H   0  0  0  0  0  0  0  0  0  0  0  0
  -11.7268   -1.9381    0.9374 H   0  0  0  0  0  0  0  0  0  0  0  0
  -10.2363    1.0630   -0.8751 H   0  0  0  0  0  0  0  0  0  0  0  0
  -12.4800    0.2129   -1.6414 H   0  0  0  0  0  0  0  0  0  0  0  0
  -12.9632   -0.0303    0.0826 H   0  0  0  0  0  0  0  0  0  0  0  0
  -12.6221    1.6256   -0.5367 H   0  0  0  0  0  0  0  0  0  0  0  0
  -10.6623    0.0431    1.9161 H   0  0  0  0  0  0  0  0  0  0  0  0
  -10.8039    3.1151   -0.2532 H   0  0  0  0  0  0  0  0  0  0  0  0
  -10.8204    5.4388    0.5528 H   0  0  0  0  0  0  0  0  0  0  0  0
  -10.6037    4.8647    2.2569 H   0  0  0  0  0  0  0  0  0  0  0  0
  -12.0812    4.4261    1.3330 H   0  0  0  0  0  0  0  0  0  0  0  0
   -8.3976    2.7284   -0.0941 H   0  0  0  0  0  0  0  0  0  0  0  0
   -6.3516    4.8653   -0.4922 H   0  0  0  0  0  0  0  0  0  0  0  0
   -9.0599    5.6478   -1.7908 H   0  0  0  0  0  0  0  0  0  0  0  0
   -8.2211    4.0586   -2.0038 H   0  0  0  0  0  0  0  0  0  0  0  0
   -7.4665    5.5268   -2.6357 H   0  0  0  0  0  0  0  0  0  0  0  0
   -7.9264    7.2749    0.3756 H   0  0  0  0  0  0  0  0  0  0  0  0
   -5.2881    6.2186   -2.0845 H   0  0  0  0  0  0  0  0  0  0  0  0
   -5.4811    7.7900   -3.9863 H   0  0  0  0  0  0  0  0  0  0  0  0
   -6.0121    9.1168   -2.8837 H   0  0  0  0  0  0  0  0  0  0  0  0
   -7.0596    7.6804   -3.1322 H   0  0  0  0  0  0  0  0  0  0  0  0
   -3.6244    8.6009   -2.3566 H   0  0  0  0  0  0  0  0  0  0  0  0
    3.5270   -5.9004   -1.8161 H   0  0  0  0  0  0  0  0  0  0  0  0
    4.2323   -6.4825    0.2307 H   0  0  0  0  0  0  0  0  0  0  0  0
    1.8467   -6.9048    0.5929 H   0  0  0  0  0  0  0  0  0  0  0  0
    1.6908   -5.3091    1.4296 H   0  0  0  0  0  0  0  0  0  0  0  0
    2.7712   -6.5627    2.0842 H   0  0  0  0  0  0  0  0  0  0  0  0
    6.1679   -3.3879    1.1394 H   0  0  0  0  0  0  0  0  0  0  0  0
    6.0204   -5.4274   -1.0198 H   0  0  0  0  0  0  0  0  0  0  0  0
    7.5880   -6.0473    1.5914 H   0  0  0  0  0  0  0  0  0  0  0  0
    6.1926   -6.9765    0.9799 H   0  0  0  0  0  0  0  0  0  0  0  0
    7.7235   -6.9679    0.0437 H   0  0  0  0  0  0  0  0  0  0  0  0
    8.6456   -4.0005    1.3332 H   0  0  0  0  0  0  0  0  0  0  0  0
   10.3623   -3.1648   -0.8831 H   0  0  0  0  0  0  0  0  0  0  0  0
   10.5421   -6.1378   -0.0749 H   0  0  0  0  0  0  0  0  0  0  0  0
   11.7678   -5.2454   -1.0601 H   0  0  0  0  0  0  0  0  0  0  0  0
   10.1040   -5.4764   -1.6895 H   0  0  0  0  0  0  0  0  0  0  0  0
   12.9342   -2.7254    1.7419 H   0  0  0  0  0  0  0  0  0  0  0  0
   11.0245   -1.2124   -0.0333 H   0  0  0  0  0  0  0  0  0  0  0  0
   12.8007   -0.8607   -1.7551 H   0  0  0  0  0  0  0  0  0  0  0  0
   13.9555   -1.8732   -0.7977 H   0  0  0  0  0  0  0  0  0  0  0  0
   12.5077   -2.6214   -1.5562 H   0  0  0  0  0  0  0  0  0  0  0  0
   12.4903    1.8321    1.4481 H   0  0  0  0  0  0  0  0  0  0  0  0
   10.9041    0.7411   -0.9290 H   0  0  0  0  0  0  0  0  0  0  0  0
   12.7981    3.1731   -0.8466 H   0  0  0  0  0  0  0  0  0  0  0  0
   11.7140    2.6886   -2.2130 H   0  0  0  0  0  0  0  0  0  0  0  0
   13.0715    1.6173   -1.7155 H   0  0  0  0  0  0  0  0  0  0  0  0
   11.5106    3.9311    1.0443 H   0  0  0  0  0  0  0  0  0  0  0  0
    9.2805    5.0270   -0.3495 H   0  0  0  0  0  0  0  0  0  0  0  0
    9.4975    6.9863    1.1957 H   0  0  0  0  0  0  0  0  0  0  0  0
   11.0857    6.4135    0.5668 H   0  0  0  0  0  0  0  0  0  0  0  0
   10.5924    6.0164    2.2564 H   0  0  0  0  0  0  0  0  0  0  0  0
    6.5013    3.5765    1.2449 H   0  0  0  0  0  0  0  0  0  0  0  0
    6.3879    6.3941    1.1186 H   0  0  0  0  0  0  0  0  0  0  0  0
    7.8115    7.7204   -1.9530 H   0  0  0  0  0  0  0  0  0  0  0  0
    7.1562    8.1023   -0.3240 H   0  0  0  0  0  0  0  0  0  0  0  0
    4.3619    5.0670    1.1189 H   0  0  0  0  0  0  0  0  0  0  0  0
    4.3775    6.1230   -0.3371 H   0  0  0  0  0  0  0  0  0  0  0  0
    2.7290    5.1615   -1.5262 H   0  0  0  0  0  0  0  0  0  0  0  0
    2.8152    3.6651   -2.4659 H   0  0  0  0  0  0  0  0  0  0  0  0
  1  2  1  0
  2  3  2  0
  2  4  1  0
  4  5  1  0
  5  6  1  0
  6  7  1  0
  7  8  1  0
  8  9  1  0
  9 10  1  0
 10 11  2  0
 11 12  1  0
 12 13  2  0
 13 14  1  0
 13 15  1  0
 15 16  1  0
 16 17  1  0
 17 18  1  0
 18 19  1  0
 19 20  1  0
 20 21  2  0
 20 22  1  0
 22 23  1  0
 22 24  1  0
 24 25  1  0
 25 26  2  0
 25 27  1  0
 27 28  1  0
 27 29  1  0
 29 30  1  0
 30 31  2  0
 30 32  1  0
 32 33  1  0
 32 34  1  0
 34 35  1  0
 35 36  2  0
 35 37  1  0
 37 38  1  0
 37 39  1  0
 39 40  1  0
 40 41  2  0
 40 42  1  0
 42 43  1  0
 42 44  1  0
 44 45  1  0
 45 46  2  0
 45 47  1  0
 47 48  1  0
 47 49  1  0
 49 50  1  0
 50 51  2  0
 50 52  1  0
 52 53  1  0
 52 54  1  0
 54 55  1  0
 55 56  2  0
 55 57  1  0
 57 58  1  0
 57 59  1  0
 59 60  1  0
 60 61  2  0
 60 62  1  0
 62 63  1  0
 62 64  1  0
 64 65  1  0
 65 66  2  0
 18 67  1  0
 67 68  2  0
 67 69  1  0
 69 70  1  0
 70 71  1  0
 70 72  1  0
 72 73  2  0
 72 74  1  0
 74 75  1  0
 75 76  1  0
 75 77  1  0
 77 78  2  0
 77 79  1  0
 79 80  1  0
 80 81  1  0
 80 82  1  0
 82 83  2  0
 82 84  1  0
 84 85  1  0
 85 86  1  0
 85 87  1  0
 87 88  2  0
 87 89  1  0
 89 90  1  0
 90 91  1  0
 90 92  1  0
 92 93  2  0
 92 94  1  0
 94 95  1  0
 95 96  1  0
 95 97  1  0
 97 98  2  0
 97 99  1  0
 99100  1  0
100101  1  0
101102  1  0
101103  2  0
100104  1  0
104105  1  0
105106  1  0
 65  5  1  0
 14  9  2  0
106 11  1  0
  1107  1  0
  1108  1  0
  1109  1  0
  4110  1  0
  5111  1  6
  6112  1  0
  6113  1  0
  8114  1  0
  8115  1  0
 10116  1  0
 12117  1  0
 14118  1  0
 15119  1  0
 15120  1  0
 17121  1  0
 17122  1  0
 18123  1  1
 19124  1  0
 22125  1  1
 23126  1  0
 23127  1  0
 23128  1  0
 24129  1  0
 27130  1  6
 28131  1  0
 28132  1  0
 28133  1  0
 29134  1  0
 32135  1  6
 33136  1  0
 33137  1  0
 33138  1  0
 34139  1  0
 37140  1  6
 38141  1  0
 38142  1  0
 38143  1  0
 39144  1  0
 42145  1  6
 43146  1  0
 43147  1  0
 43148  1  0
 44149  1  0
 47150  1  6
 48151  1  0
 48152  1  0
 48153  1  0
 49154  1  0
 52155  1  6
 53156  1  0
 53157  1  0
 53158  1  0
 54159  1  0
 57160  1  6
 58161  1  0
 58162  1  0
 58163  1  0
 59164  1  0
 62165  1  6
 63166  1  0
 63167  1  0
 63168  1  0
 64169  1  0
 69170  1  0
 70171  1  6
 71172  1  0
 71173  1  0
 71174  1  0
 74175  1  0
 75176  1  6
 76177  1  0
 76178  1  0
 76179  1  0
 79180  1  0
 80181  1  6
 81182  1  0
 81183  1  0
 81184  1  0
 84185  1  0
 85186  1  6
 86187  1  0
 86188  1  0
 86189  1  0
 89190  1  0
 90191  1  6
 91192  1  0
 91193  1  0
 91194  1  0
 94195  1  0
 95196  1  6
 96197  1  0
 96198  1  0
 96199  1  0
 99200  1  0
100201  1  1
102202  1  0
102203  1  0
104204  1  0
104205  1  0
106206  1  0
106207  1  0
M  END
