
     RDKit          3D

217219  0  0  0  0  0  0  0  0999 V2000
    4.3985    8.7216   -0.3906 C   0  0  0  0  0  0  0  0  0  0  0  0
    3.0686    8.3406   -0.9617 C   0  0  0  0  0  0  0  0  0  0  0  0
    2.3199    9.2466   -1.4117 O   0  0  0  0  0  0  0  0  0  0  0  0
    2.6188    6.9780   -1.0015 N   0  0  0  0  0  0  0  0  0  0  0  0
    3.3924    5.8428   -0.4753 C   0  0  2  0  0  0  0  0  0  0  0  0
    2.8724    4.4991   -1.0272 C   0  0  0  0  0  0  0  0  0  0  0  0
    1.0772    4.2128   -0.7630 S   0  0  0  0  0  0  0  0  0  0  0  0
    1.1701    3.4240    0.8849 C   0  0  0  0  0  0  0  0  0  0  0  0
   -0.0787    2.6263    1.1574 C   0  0  0  0  0  0  0  0  0  0  0  0
   -1.3460    3.2214    1.0289 C   0  0  0  0  0  0  0  0  0  0  0  0
   -2.5108    2.4683    1.2280 C   0  0  0  0  0  0  0  0  0  0  0  0
   -2.4090    1.1433    1.6729 C   0  0  0  0  0  0  0  0  0  0  0  0
   -1.1535    0.5336    1.8165 C   0  0  0  0  0  0  0  0  0  0  0  0
    0.0088    1.2785    1.5467 C   0  0  0  0  0  0  0  0  0  0  0  0
   -1.0553   -0.8888    2.2994 C   0  0  0  0  0  0  0  0  0  0  0  0
   -2.1320   -1.9779    1.2914 S   0  0  0  0  0  0  0  0  0  0  0  0
   -0.8706   -3.2269    0.8478 C   0  0  0  0  0  0  0  0  0  0  0  0
   -0.0286   -2.7847   -0.3695 C   0  0  1  0  0  0  0  0  0  0  0  0
    1.2275   -3.5502   -0.4543 N   0  0  0  0  0  0  0  0  0  0  0  0
    1.3660   -4.8784   -0.9912 C   0  0  0  0  0  0  0  0  0  0  0  0
    2.3635   -5.1323   -1.7164 O   0  0  0  0  0  0  0  0  0  0  0  0
    0.3866   -5.9705   -0.6443 C   0  0  1  0  0  0  0  0  0  0  0  0
    0.4670   -7.1961   -1.5654 C   0  0  0  0  0  0  0  0  0  0  0  0
    0.5016   -6.3444    0.7707 N   0  0  0  0  0  0  0  0  0  0  0  0
    1.4927   -7.2338    1.3162 C   0  0  0  0  0  0  0  0  0  0  0  0
    1.1018   -8.3009    1.8623 O   0  0  0  0  0  0  0  0  0  0  0  0
    2.9814   -6.9276    1.3247 C   0  0  1  0  0  0  0  0  0  0  0  0
    3.6978   -7.7014    0.2152 C   0  0  0  0  0  0  0  0  0  0  0  0
    3.2507   -5.4832    1.2699 N   0  0  0  0  0  0  0  0  0  0  0  0
    4.5797   -4.9593    1.4113 C   0  0  0  0  0  0  0  0  0  0  0  0
    4.9122   -4.4149    2.4993 O   0  0  0  0  0  0  0  0  0  0  0  0
    5.5284   -4.9015    0.2414 C   0  0  1  0  0  0  0  0  0  0  0  0
    5.4598   -3.5288   -0.4446 C   0  0  0  0  0  0  0  0  0  0  0  0
    6.8838   -5.2783    0.6752 N   0  0  0  0  0  0  0  0  0  0  0  0
    8.0210   -4.3897    0.7265 C   0  0  0  0  0  0  0  0  0  0  0  0
    7.8812   -3.2172    1.1848 O   0  0  0  0  0  0  0  0  0  0  0  0
    9.3916   -4.8171    0.2662 C   0  0  1  0  0  0  0  0  0  0  0  0
    9.4781   -6.3002   -0.1020 C   0  0  0  0  0  0  0  0  0  0  0  0
    9.7733   -4.0075   -0.8971 N   0  0  0  0  0  0  0  0  0  0  0  0
   10.8763   -3.0876   -0.9690 C   0  0  0  0  0  0  0  0  0  0  0  0
   11.0167   -2.4036   -2.0180 O   0  0  0  0  0  0  0  0  0  0  0  0
   11.9191   -2.9664    0.1234 C   0  0  1  0  0  0  0  0  0  0  0  0
   12.9070   -4.1389    0.0239 C   0  0  0  0  0  0  0  0  0  0  0  0
   12.6494   -1.6979    0.0108 N   0  0  0  0  0  0  0  0  0  0  0  0
   12.1207   -0.4155    0.3892 C   0  0  0  0  0  0  0  0  0  0  0  0
   12.9090    0.5684    0.4126 O   0  0  0  0  0  0  0  0  0  0  0  0
   10.6563   -0.1955    0.7206 C   0  0  1  0  0  0  0  0  0  0  0  0
   10.4947    0.6661    1.9799 C   0  0  0  0  0  0  0  0  0  0  0  0
    9.9507    0.4103   -0.4145 N   0  0  0  0  0  0  0  0  0  0  0  0
   10.4374    1.5560   -1.1230 C   0  0  0  0  0  0  0  0  0  0  0  0
   11.1365    1.3895   -2.1601 O   0  0  0  0  0  0  0  0  0  0  0  0
   10.1004    2.9492   -0.6609 C   0  0  1  0  0  0  0  0  0  0  0  0
   11.3927    3.7033   -0.3065 C   0  0  0  0  0  0  0  0  0  0  0  0
    9.3551    3.6561   -1.7123 N   0  0  0  0  0  0  0  0  0  0  0  0
    8.6851    4.9251   -1.5632 C   0  0  0  0  0  0  0  0  0  0  0  0
    8.1127    5.4221   -2.5677 O   0  0  0  0  0  0  0  0  0  0  0  0
    8.6448    5.6921   -0.2631 C   0  0  1  0  0  0  0  0  0  0  0  0
    9.6095    6.8813   -0.3211 C   0  0  0  0  0  0  0  0  0  0  0  0
    7.2908    6.1934   -0.0326 N   0  0  0  0  0  0  0  0  0  0  0  0
    6.5769    5.9263    1.1744 C   0  0  0  0  0  0  0  0  0  0  0  0
    6.6708    6.7320    2.1416 O   0  0  0  0  0  0  0  0  0  0  0  0
    5.6976    4.7112    1.2821 C   0  0  1  0  0  0  0  0  0  0  0  0
    6.3500    3.6758    2.1997 C   0  0  0  0  0  0  0  0  0  0  0  0
    4.3729    5.0945    1.7944 N   0  0  0  0  0  0  0  0  0  0  0  0
    3.4014    5.8397    1.0387 C   0  0  0  0  0  0  0  0  0  0  0  0
    2.5003    6.4634    1.6639 O   0  0  0  0  0  0  0  0  0  0  0  0
   -0.7465   -2.7938   -1.7051 C   0  0  0  0  0  0  0  0  0  0  0  0
   -0.0594   -2.7071   -2.7593 O   0  0  0  0  0  0  0  0  0  0  0  0
   -2.1727   -2.7136   -1.8141 N   0  0  0  0  0  0  0  0  0  0  0  0
   -3.0012   -3.9248   -1.8849 C   0  0  2  0  0  0  0  0  0  0  0  0
   -2.7577   -4.6456   -3.2170 C   0  0  0  0  0  0  0  0  0  0  0  0
   -4.4757   -3.5957   -1.7470 C   0  0  0  0  0  0  0  0  0  0  0  0
   -4.8643   -2.3995   -1.7764 O   0  0  0  0  0  0  0  0  0  0  0  0
   -5.4612   -4.6380   -1.6996 N   0  0  0  0  0  0  0  0  0  0  0  0
   -5.3998   -5.7604   -0.7566 C   0  0  2  0  0  0  0  0  0  0  0  0
   -5.7760   -7.0635   -1.4662 C   0  0  0  0  0  0  0  0  0  0  0  0
   -6.3137   -5.4723    0.4034 C   0  0  0  0  0  0  0  0  0  0  0  0
   -5.8230   -5.2461    1.5411 O   0  0  0  0  0  0  0  0  0  0  0  0
   -7.7316   -5.3821    0.2038 N   0  0  0  0  0  0  0  0  0  0  0  0
   -8.5609   -4.4334    0.9519 C   0  0  2  0  0  0  0  0  0  0  0  0
   -9.3392   -5.1847    2.0386 C   0  0  0  0  0  0  0  0  0  0  0  0
   -9.4493   -3.6876   -0.0141 C   0  0  0  0  0  0  0  0  0  0  0  0
   -8.9223   -3.0184   -0.9407 O   0  0  0  0  0  0  0  0  0  0  0  0
  -10.8761   -3.7318    0.0882 N   0  0  0  0  0  0  0  0  0  0  0  0
  -11.5839   -2.7892    0.9514 C   0  0  2  0  0  0  0  0  0  0  0  0
  -12.7860   -3.4723    1.6026 C   0  0  0  0  0  0  0  0  0  0  0  0
  -12.0130   -1.5883    0.1510 C   0  0  0  0  0  0  0  0  0  0  0  0
  -12.9388   -1.6982   -0.6947 O   0  0  0  0  0  0  0  0  0  0  0  0
  -11.3617   -0.3257    0.3420 N   0  0  0  0  0  0  0  0  0  0  0  0
  -12.0771    0.9247    0.6266 C   0  0  2  0  0  0  0  0  0  0  0  0
  -13.0948    0.7205    1.7579 C   0  0  0  0  0  0  0  0  0  0  0  0
  -12.7453    1.4795   -0.6180 C   0  0  0  0  0  0  0  0  0  0  0  0
  -13.6864    0.8281   -1.1440 O   0  0  0  0  0  0  0  0  0  0  0  0
  -12.3598    2.7268   -1.2300 N   0  0  0  0  0  0  0  0  0  0  0  0
  -11.4564    3.7277   -0.6452 C   0  0  2  0  0  0  0  0  0  0  0  0
  -12.1211    4.4182    0.5492 C   0  0  0  0  0  0  0  0  0  0  0  0
  -11.0790    4.7795   -1.6733 C   0  0  0  0  0  0  0  0  0  0  0  0
  -11.9816    5.2729   -2.4033 O   0  0  0  0  0  0  0  0  0  0  0  0
   -9.7268    5.2380   -1.8458 N   0  0  0  0  0  0  0  0  0  0  0  0
   -8.7883    5.4187   -0.7320 C   0  0  2  0  0  0  0  0  0  0  0  0
   -8.9977    6.7996   -0.0993 C   0  0  0  0  0  0  0  0  0  0  0  0
   -7.3725    5.2345   -1.2280 C   0  0  0  0  0  0  0  0  0  0  0  0
   -7.0783    4.2184   -1.9119 O   0  0  0  0  0  0  0  0  0  0  0  0
   -6.3459    6.1776   -0.9008 N   0  0  0  0  0  0  0  0  0  0  0  0
   -5.3635    5.9880    0.1816 C   0  0  1  0  0  0  0  0  0  0  0  0
   -5.1180    7.3054    0.8790 C   0  0  0  0  0  0  0  0  0  0  0  0
   -3.9249    7.5138    1.6412 N   0  0  0  0  0  0  0  0  0  0  0  0
   -5.9609    8.2430    0.7888 O   0  0  0  0  0  0  0  0  0  0  0  0
   -5.7972    4.9063    1.2059 C   0  0  0  0  0  0  0  0  0  0  0  0
   -4.3765    4.2525    2.1645 S   0  0  0  0  0  0  0  0  0  0  0  0
   -3.8522    3.0494    0.8953 C   0  0  0  0  0  0  0  0  0  0  0  0
    4.4697    8.3957    0.6675 H   0  0  0  0  0  0  0  0  0  0  0  0
    5.1919    8.2445   -0.9859 H   0  0  0  0  0  0  0  0  0  0  0  0
    4.5436    9.8224   -0.4305 H   0  0  0  0  0  0  0  0  0  0  0  0
    1.7208    6.8002   -1.5042 H   0  0  0  0  0  0  0  0  0  0  0  0
    4.4361    5.9450   -0.8312 H   0  0  0  0  0  0  0  0  0  0  0  0
    3.4649    3.6484   -0.6366 H   0  0  0  0  0  0  0  0  0  0  0  0
    3.0271    4.4966   -2.1259 H   0  0  0  0  0  0  0  0  0  0  0  0
    2.0664    2.7724    0.9464 H   0  0  0  0  0  0  0  0  0  0  0  0
    1.2568    4.2009    1.6663 H   0  0  0  0  0  0  0  0  0  0  0  0
   -1.4241    4.2583    0.7189 H   0  0  0  0  0  0  0  0  0  0  0  0
   -3.3087    0.5709    1.8532 H   0  0  0  0  0  0  0  0  0  0  0  0
    0.9818    0.8059    1.6338 H   0  0  0  0  0  0  0  0  0  0  0  0
   -1.4028   -0.9304    3.3543 H   0  0  0  0  0  0  0  0  0  0  0  0
   -0.0031   -1.2326    2.2863 H   0  0  0  0  0  0  0  0  0  0  0  0
   -0.2129   -3.4233    1.7184 H   0  0  0  0  0  0  0  0  0  0  0  0
   -1.4077   -4.1698    0.6550 H   0  0  0  0  0  0  0  0  0  0  0  0
    0.2534   -1.7243   -0.1898 H   0  0  0  0  0  0  0  0  0  0  0  0
    2.1094   -3.0048   -0.3286 H   0  0  0  0  0  0  0  0  0  0  0  0
   -0.6272   -5.5688   -0.8222 H   0  0  0  0  0  0  0  0  0  0  0  0
    0.2841   -6.8917   -2.6180 H   0  0  0  0  0  0  0  0  0  0  0  0
    1.4510   -7.6996   -1.4996 H   0  0  0  0  0  0  0  0  0  0  0  0
   -0.3168   -7.9283   -1.2747 H   0  0  0  0  0  0  0  0  0  0  0  0
   -0.3595   -6.2238    1.3468 H   0  0  0  0  0  0  0  0  0  0  0  0
    3.3767   -7.3084    2.2936 H   0  0  0  0  0  0  0  0  0  0  0  0
    4.7867   -7.7473    0.4247 H   0  0  0  0  0  0  0  0  0  0  0  0
    3.3253   -8.7487    0.1607 H   0  0  0  0  0  0  0  0  0  0  0  0
    3.5452   -7.2233   -0.7722 H   0  0  0  0  0  0  0  0  0  0  0  0
    2.4979   -4.8575    1.6436 H   0  0  0  0  0  0  0  0  0  0  0  0
    5.2174   -5.6353   -0.5268 H   0  0  0  0  0  0  0  0  0  0  0  0
    4.4683   -3.4010   -0.9277 H   0  0  0  0  0  0  0  0  0  0  0  0
    6.2371   -3.4581   -1.2368 H   0  0  0  0  0  0  0  0  0  0  0  0
    5.5965   -2.7017    0.2862 H   0  0  0  0  0  0  0  0  0  0  0  0
    7.0234   -6.2760    0.9556 H   0  0  0  0  0  0  0  0  0  0  0  0
   10.0869   -4.6666    1.1144 H   0  0  0  0  0  0  0  0  0  0  0  0
    8.7471   -6.5481   -0.9010 H   0  0  0  0  0  0  0  0  0  0  0  0
   10.4967   -6.5402   -0.4747 H   0  0  0  0  0  0  0  0  0  0  0  0
    9.2875   -6.9335    0.7912 H   0  0  0  0  0  0  0  0  0  0  0  0
    9.1639   -4.0869   -1.7428 H   0  0  0  0  0  0  0  0  0  0  0  0
   11.4545   -3.0053    1.1248 H   0  0  0  0  0  0  0  0  0  0  0  0
   12.3861   -5.1102    0.1529 H   0  0  0  0  0  0  0  0  0  0  0  0
   13.6751   -4.0510    0.8244 H   0  0  0  0  0  0  0  0  0  0  0  0
   13.4212   -4.1315   -0.9601 H   0  0  0  0  0  0  0  0  0  0  0  0
   13.6500   -1.7194   -0.2900 H   0  0  0  0  0  0  0  0  0  0  0  0
   10.1668   -1.1658    0.9508 H   0  0  0  0  0  0  0  0  0  0  0  0
   10.9837    0.1698    2.8435 H   0  0  0  0  0  0  0  0  0  0  0  0
    9.4142    0.7900    2.2102 H   0  0  0  0  0  0  0  0  0  0  0  0
   10.9438    1.6676    1.8454 H   0  0  0  0  0  0  0  0  0  0  0  0
    9.1065   -0.0724   -0.7907 H   0  0  0  0  0  0  0  0  0  0  0  0
    9.4642    2.8630    0.2455 H   0  0  0  0  0  0  0  0  0  0  0  0
   11.8805    4.0879   -1.2291 H   0  0  0  0  0  0  0  0  0  0  0  0
   11.1807    4.5507    0.3722 H   0  0  0  0  0  0  0  0  0  0  0  0
   12.1130    3.0436    0.2230 H   0  0  0  0  0  0  0  0  0  0  0  0
    9.3325    3.2398   -2.6709 H   0  0  0  0  0  0  0  0  0  0  0  0
    8.9337    5.0422    0.5879 H   0  0  0  0  0  0  0  0  0  0  0  0
   10.6203    6.5576   -0.6422 H   0  0  0  0  0  0  0  0  0  0  0  0
    9.2424    7.6471   -1.0389 H   0  0  0  0  0  0  0  0  0  0  0  0
    9.6882    7.3481    0.6837 H   0  0  0  0  0  0  0  0  0  0  0  0
    6.8939    6.8896   -0.7056 H   0  0  0  0  0  0  0  0  0  0  0  0
    5.5878    4.2448    0.2817 H   0  0  0  0  0  0  0  0  0  0  0  0
    7.3306    3.3600    1.7850 H   0  0  0  0  0  0  0  0  0  0  0  0
    6.5100    4.0921    3.2185 H   0  0  0  0  0  0  0  0  0  0  0  0
    5.7055    2.7779    2.2748 H   0  0  0  0  0  0  0  0  0  0  0  0
    4.2029    5.0010    2.8249 H   0  0  0  0  0  0  0  0  0  0  0  0
   -2.5197   -1.8677   -2.3234 H   0  0  0  0  0  0  0  0  0  0  0  0
   -2.7182   -4.6055   -1.0660 H   0  0  0  0  0  0  0  0  0  0  0  0
   -2.9955   -3.9738   -4.0684 H   0  0  0  0  0  0  0  0  0  0  0  0
   -3.3859   -5.5542   -3.2872 H   0  0  0  0  0  0  0  0  0  0  0  0
   -1.6967   -4.9594   -3.2945 H   0  0  0  0  0  0  0  0  0  0  0  0
   -6.3852   -4.4329   -2.1407 H   0  0  0  0  0  0  0  0  0  0  0  0
   -4.3684   -5.8867   -0.3658 H   0  0  0  0  0  0  0  0  0  0  0  0
   -4.9690   -7.3564   -2.1682 H   0  0  0  0  0  0  0  0  0  0  0  0
   -5.9063   -7.8831   -0.7275 H   0  0  0  0  0  0  0  0  0  0  0  0
   -6.7166   -6.9491   -2.0469 H   0  0  0  0  0  0  0  0  0  0  0  0
   -8.1856   -5.9583   -0.5408 H   0  0  0  0  0  0  0  0  0  0  0  0
   -7.9143   -3.6799    1.4557 H   0  0  0  0  0  0  0  0  0  0  0  0
   -8.6341   -5.7436    2.6889 H   0  0  0  0  0  0  0  0  0  0  0  0
   -9.8903   -4.4653    2.6827 H   0  0  0  0  0  0  0  0  0  0  0  0
  -10.0559   -5.9034    1.5865 H   0  0  0  0  0  0  0  0  0  0  0  0
  -11.4035   -4.1660   -0.7058 H   0  0  0  0  0  0  0  0  0  0  0  0
  -10.9028   -2.4507    1.7678 H   0  0  0  0  0  0  0  0  0  0  0  0
  -13.3028   -2.7654    2.2864 H   0  0  0  0  0  0  0  0  0  0  0  0
  -13.5069   -3.8165    0.8294 H   0  0  0  0  0  0  0  0  0  0  0  0
  -12.4507   -4.3542    2.1892 H   0  0  0  0  0  0  0  0  0  0  0  0
  -10.3293   -0.3416    0.5216 H   0  0  0  0  0  0  0  0  0  0  0  0
  -11.3322    1.6467    1.0093 H   0  0  0  0  0  0  0  0  0  0  0  0
  -13.5422    1.6937    2.0552 H   0  0  0  0  0  0  0  0  0  0  0  0
  -12.5844    0.2851    2.6444 H   0  0  0  0  0  0  0  0  0  0  0  0
  -13.9109    0.0328    1.4447 H   0  0  0  0  0  0  0  0  0  0  0  0
  -12.7916    2.9241   -2.1623 H   0  0  0  0  0  0  0  0  0  0  0  0
  -10.5325    3.2096   -0.3214 H   0  0  0  0  0  0  0  0  0  0  0  0
  -13.0400    4.9569    0.2287 H   0  0  0  0  0  0  0  0  0  0  0  0
  -12.4008    3.6883    1.3308 H   0  0  0  0  0  0  0  0  0  0  0  0
  -11.4229    5.1406    1.0147 H   0  0  0  0  0  0  0  0  0  0  0  0
   -9.5234    5.7678   -2.7240 H   0  0  0  0  0  0  0  0  0  0  0  0
   -8.9516    4.6548    0.0530 H   0  0  0  0  0  0  0  0  0  0  0  0
   -8.7384    7.6007   -0.8215 H   0  0  0  0  0  0  0  0  0  0  0  0
  -10.0612    6.9286    0.2007 H   0  0  0  0  0  0  0  0  0  0  0  0
   -8.3684    6.9020    0.8098 H   0  0  0  0  0  0  0  0  0  0  0  0
   -6.0937    6.8642   -1.6521 H   0  0  0  0  0  0  0  0  0  0  0  0
   -4.4055    5.6814   -0.2956 H   0  0  0  0  0  0  0  0  0  0  0  0
   -3.7945    8.4130    2.1656 H   0  0  0  0  0  0  0  0  0  0  0  0
   -3.1809    6.7870    1.6716 H   0  0  0  0  0  0  0  0  0  0  0  0
   -6.2873    4.0467    0.7092 H   0  0  0  0  0  0  0  0  0  0  0  0
   -6.5355    5.3366    1.9191 H   0  0  0  0  0  0  0  0  0  0  0  0
   -4.6202    2.2478    0.8231 H   0  0  0  0  0  0  0  0  0  0  0  0
   -3.7871    3.5292   -0.1020 H   0  0  0  0  0  0  0  0  0  0  0  0
  1  2  1  0
  2  3  2  0
  2  4  1  0
  4  5  1  0
  5  6  1  0
  6  7  1  0
  7  8  1  0
  8  9  1  0
  9 10  1  0
 10 11  2  0
 11 12  1  0
 12 13  2  0
 13 14  1  0
 13 15  1  0
 15 16  1  0
 16 17  1  0
 17 18  1  0
 18 19  1  0
 19 20  1  0
 20 21  2  0
 20 22  1  0
 22 23  1  0
 22 24  1  0
 24 25  1  0
 25 26  2  0
 25 27  1  0
 27 28  1  0
 27 29  1  0
 29 30  1  0
 30 31  2  0
 30 32  1  0
 32 33  1  0
 32 34  1  0
 34 35  1  0
 35 36  2  0
 35 37  1  0
 37 38  1  0
 37 39  1  0
 39 40  1  0
 40 41  2  0
 40 42  1  0
 42 43  1  0
 42 44  1  0
 44 45  1  0
 45 46  2  0
 45 47  1  0
 47 48  1  0
 47 49  1  0
 49 50  1  0
 50 51  2  0
 50 52  1  0
 52 53  1  0
 52 54  1  0
 54 55  1  0
 55 56  2  0
 55 57  1  0
 57 58  1  0
 57 59  1  0
 59 60  1  0
 60 61  2  0
 60 62  1  0
 62 63  1  0
 62 64  1  0
 64 65  1  0
 65 66  2  0
 18 67  1  0
 67 68  2  0
 67 69  1  0
 69 70  1  0
 70 71  1  0
 70 72  1  0
 72 73  2  0
 72 74  1  0
 74 75  1  0
 75 76  1  0
 75 77  1  0
 77 78  2  0
 77 79  1  0
 79 80  1  0
 80 81  1  0
 80 82  1  0
 82 83  2  0
 82 84  1  0
 84 85  1  0
 85 86  1  0
 85 87  1  0
 87 88  2  0
 87 89  1  0
 89 90  1  0
 90 91  1  0
 90 92  1  0
 92 93  2  0
 92 94  1  0
 94 95  1  0
 95 96  1  0
 95 97  1  0
 97 98  2  0
 97 99  1  0
 99100  1  0
100101  1  0
100102  1  0
102103  2  0
102104  1  0
104105  1  0
105106  1  0
106107  1  0
106108  2  0
105109  1  0
109110  1  0
110111  1  0
 65  5  1  0
 14  9  2  0
111 11  1  0
  1112  1  0
  1113  1  0
  1114  1  0
  4115  1  0
  5116  1  6
  6117  1  0
  6118  1  0
  8119  1  0
  8120  1  0
 10121  1  0
 12122  1  0
 14123  1  0
 15124  1  0
 15125  1  0
 17126  1  0
 17127  1  0
 18128  1  1
 19129  1  0
 22130  1  1
 23131  1  0
 23132  1  0
 23133  1  0
 24134  1  0
 27135  1  1
 28136  1  0
 28137  1  0
 28138  1  0
 29139  1  0
 32140  1  6
 33141  1  0
 33142  1  0
 33143  1  0
 34144  1  0
 37145  1  1
 38146  1  0
 38147  1  0
 38148  1  0
 39149  1  0
 42150  1  1
 43151  1  0
 43152  1  0
 43153  1  0
 44154  1  0
 47155  1  1
 48156  1  0
 48157  1  0
 48158  1  0
 49159  1  0
 52160  1  1
 53161  1  0
 53162  1  0
 53163  1  0
 54164  1  0
 57165  1  1
 58166  1  0
 58167  1  0
 58168  1  0
 59169  1  0
 62170  1  6
 63171  1  0
 63172  1  0
 63173  1  0
 64174  1  0
 69175  1  0
 70176  1  1
 71177  1  0
 71178  1  0
 71179  1  0
 74180  1  0
 75181  1  1
 76182  1  0
 76183  1  0
 76184  1  0
 79185  1  0
 80186  1  1
 81187  1  0
 81188  1  0
 81189  1  0
 84190  1  0
 85191  1  1
 86192  1  0
 86193  1  0
 86194  1  0
 89195  1  0
 90196  1  1
 91197  1  0
 91198  1  0
 91199  1  0
 94200  1  0
 95201  1  1
 96202  1  0
 96203  1  0
 96204  1  0
 99205  1  0
100206  1  1
101207  1  0
101208  1  0
101209  1  0
104210  1  0
105211  1  6
107212  1  0
107213  1  0
109214  1  0
109215  1  0
111216  1  0
111217  1  0
M  END
