
     RDKit          3D

197199  0  0  0  0  0  0  0  0999 V2000
   -1.2501    9.6470    0.9474 C   0  0  0  0  0  0  0  0  0  0  0  0
   -1.6417    8.9109   -0.2969 C   0  0  0  0  0  0  0  0  0  0  0  0
   -1.7140    9.5525   -1.3770 O   0  0  0  0  0  0  0  0  0  0  0  0
   -1.9836    7.5170   -0.2808 N   0  0  0  0  0  0  0  0  0  0  0  0
   -1.9600    6.6741    0.9205 C   0  0  2  0  0  0  0  0  0  0  0  0
   -1.7651    5.2002    0.5150 C   0  0  0  0  0  0  0  0  0  0  0  0
   -1.5606    4.0686    1.9460 S   0  0  0  0  0  0  0  0  0  0  0  0
    0.2294    4.3574    2.2494 C   0  0  0  0  0  0  0  0  0  0  0  0
    1.1502    3.6909    1.2526 C   0  0  0  0  0  0  0  0  0  0  0  0
    2.4265    4.2411    1.0441 C   0  0  0  0  0  0  0  0  0  0  0  0
    3.3848    3.5751    0.2536 C   0  0  0  0  0  0  0  0  0  0  0  0
    3.0343    2.3619   -0.3649 C   0  0  0  0  0  0  0  0  0  0  0  0
    1.7616    1.7933   -0.1672 C   0  0  0  0  0  0  0  0  0  0  0  0
    0.8368    2.4503    0.6648 C   0  0  0  0  0  0  0  0  0  0  0  0
    1.3581    0.5121   -0.8531 C   0  0  0  0  0  0  0  0  0  0  0  0
    2.6647   -0.7691   -0.7342 S   0  0  0  0  0  0  0  0  0  0  0  0
    1.5708   -2.2208   -0.9743 C   0  0  0  0  0  0  0  0  0  0  0  0
    1.1224   -2.8204    0.3789 C   0  0  1  0  0  0  0  0  0  0  0  0
   -0.0836   -3.6570    0.2358 N   0  0  0  0  0  0  0  0  0  0  0  0
   -0.4652   -4.3416   -0.9652 C   0  0  0  0  0  0  0  0  0  0  0  0
   -1.0183   -3.6951   -1.8982 O   0  0  0  0  0  0  0  0  0  0  0  0
   -0.2643   -5.8245   -1.1237 C   0  0  1  0  0  0  0  0  0  0  0  0
    1.1245   -6.1146   -1.6936 C   0  0  0  0  0  0  0  0  0  0  0  0
   -0.4406   -6.5166    0.1539 N   0  0  0  0  0  0  0  0  0  0  0  0
   -1.3402   -7.6229    0.2797 C   0  0  0  0  0  0  0  0  0  0  0  0
   -0.8930   -8.7961    0.1815 O   0  0  0  0  0  0  0  0  0  0  0  0
   -2.7994   -7.4049    0.5907 C   0  0  1  0  0  0  0  0  0  0  0  0
   -2.9858   -7.0372    2.0618 C   0  0  0  0  0  0  0  0  0  0  0  0
   -3.3556   -6.3491   -0.2603 N   0  0  0  0  0  0  0  0  0  0  0  0
   -4.1373   -6.5936   -1.4426 C   0  0  0  0  0  0  0  0  0  0  0  0
   -3.8652   -5.9479   -2.4875 O   0  0  0  0  0  0  0  0  0  0  0  0
   -5.2884   -7.5702   -1.4805 C   0  0  1  0  0  0  0  0  0  0  0  0
   -4.8491   -8.9375   -2.0168 C   0  0  0  0  0  0  0  0  0  0  0  0
   -5.9268   -7.6987   -0.1632 N   0  0  0  0  0  0  0  0  0  0  0  0
   -6.9880   -6.8609    0.3304 C   0  0  0  0  0  0  0  0  0  0  0  0
   -7.3921   -7.0495    1.5110 O   0  0  0  0  0  0  0  0  0  0  0  0
   -7.7036   -5.8490   -0.5491 C   0  0  1  0  0  0  0  0  0  0  0  0
   -8.7871   -6.5617   -1.3728 C   0  0  0  0  0  0  0  0  0  0  0  0
   -8.3146   -4.7749    0.2479 N   0  0  0  0  0  0  0  0  0  0  0  0
   -8.8810   -3.6035   -0.3643 C   0  0  0  0  0  0  0  0  0  0  0  0
   -8.4390   -3.2002   -1.4705 O   0  0  0  0  0  0  0  0  0  0  0  0
   -9.9607   -2.8042    0.3315 C   0  0  1  0  0  0  0  0  0  0  0  0
  -11.0064   -3.7186    0.9847 C   0  0  0  0  0  0  0  0  0  0  0  0
   -9.3569   -1.9343    1.3448 N   0  0  0  0  0  0  0  0  0  0  0  0
   -9.9245   -0.6889    1.7780 C   0  0  0  0  0  0  0  0  0  0  0  0
   -9.8329   -0.3804    3.0002 O   0  0  0  0  0  0  0  0  0  0  0  0
  -10.6355    0.2579    0.8322 C   0  0  1  0  0  0  0  0  0  0  0  0
  -12.1497    0.0634    0.9450 C   0  0  0  0  0  0  0  0  0  0  0  0
  -10.2972    1.6531    1.1674 N   0  0  0  0  0  0  0  0  0  0  0  0
  -10.4353    2.7608    0.2591 C   0  0  0  0  0  0  0  0  0  0  0  0
  -10.7801    3.8816    0.7257 O   0  0  0  0  0  0  0  0  0  0  0  0
  -10.1311    2.6460   -1.2187 C   0  0  1  0  0  0  0  0  0  0  0  0
  -11.4325    2.4607   -2.0125 C   0  0  0  0  0  0  0  0  0  0  0  0
   -9.4349    3.8571   -1.6740 N   0  0  0  0  0  0  0  0  0  0  0  0
   -8.1174    4.1930   -1.1977 C   0  0  0  0  0  0  0  0  0  0  0  0
   -7.3293    3.2694   -0.8525 O   0  0  0  0  0  0  0  0  0  0  0  0
   -7.6426    5.6263   -1.0630 C   0  0  1  0  0  0  0  0  0  0  0  0
   -8.6118    6.6470   -1.6797 C   0  0  0  0  0  0  0  0  0  0  0  0
   -7.4579    5.9381    0.3577 N   0  0  0  0  0  0  0  0  0  0  0  0
   -6.6028    6.9971    0.8173 C   0  0  0  0  0  0  0  0  0  0  0  0
   -7.0284    7.7682    1.7153 O   0  0  0  0  0  0  0  0  0  0  0  0
   -5.2251    7.2284    0.2344 C   0  0  1  0  0  0  0  0  0  0  0  0
   -5.2927    8.3005   -0.8547 C   0  0  0  0  0  0  0  0  0  0  0  0
   -4.3073    7.6786    1.2870 N   0  0  0  0  0  0  0  0  0  0  0  0
   -3.2110    6.8814    1.7538 C   0  0  0  0  0  0  0  0  0  0  0  0
   -3.2423    6.4345    2.9323 O   0  0  0  0  0  0  0  0  0  0  0  0
    2.2146   -3.6312    1.0527 C   0  0  0  0  0  0  0  0  0  0  0  0
    1.9002   -4.5795    1.8288 O   0  0  0  0  0  0  0  0  0  0  0  0
    3.5936   -3.2848    0.9260 N   0  0  0  0  0  0  0  0  0  0  0  0
    4.5249   -4.0879    0.1241 C   0  0  2  0  0  0  0  0  0  0  0  0
    4.7046   -5.4797    0.7417 C   0  0  0  0  0  0  0  0  0  0  0  0
    5.8339   -3.3577   -0.0338 C   0  0  0  0  0  0  0  0  0  0  0  0
    5.8496   -2.2391   -0.6204 O   0  0  0  0  0  0  0  0  0  0  0  0
    7.0514   -3.8780    0.5169 N   0  0  0  0  0  0  0  0  0  0  0  0
    8.0052   -4.6092   -0.3200 C   0  0  2  0  0  0  0  0  0  0  0  0
    8.5229   -5.8231    0.4686 C   0  0  0  0  0  0  0  0  0  0  0  0
    9.1008   -3.6675   -0.7704 C   0  0  0  0  0  0  0  0  0  0  0  0
    8.7822   -2.6761   -1.4810 O   0  0  0  0  0  0  0  0  0  0  0  0
   10.4742   -3.8606   -0.4028 N   0  0  0  0  0  0  0  0  0  0  0  0
   11.4681   -2.7839   -0.4747 C   0  0  2  0  0  0  0  0  0  0  0  0
   12.8483   -3.3131   -0.0749 C   0  0  0  0  0  0  0  0  0  0  0  0
   11.0516   -1.6400    0.4225 C   0  0  0  0  0  0  0  0  0  0  0  0
   10.8832   -1.8311    1.6616 O   0  0  0  0  0  0  0  0  0  0  0  0
   10.7678   -0.3532   -0.1384 N   0  0  0  0  0  0  0  0  0  0  0  0
   11.7207    0.7623   -0.1636 C   0  0  2  0  0  0  0  0  0  0  0  0
   13.1774    0.2785   -0.1839 C   0  0  0  0  0  0  0  0  0  0  0  0
   11.4885    1.6662    1.0239 C   0  0  0  0  0  0  0  0  0  0  0  0
   11.5334    1.1613    2.1749 O   0  0  0  0  0  0  0  0  0  0  0  0
   11.2503    3.0845    0.9009 N   0  0  0  0  0  0  0  0  0  0  0  0
   11.2750    3.8557   -0.3487 C   0  0  2  0  0  0  0  0  0  0  0  0
   12.7119    3.9982   -0.8737 C   0  0  0  0  0  0  0  0  0  0  0  0
   10.6710    5.2208   -0.1233 C   0  0  0  0  0  0  0  0  0  0  0  0
   11.3639    6.1240    0.4259 O   0  0  0  0  0  0  0  0  0  0  0  0
    9.3273    5.5372   -0.5258 N   0  0  0  0  0  0  0  0  0  0  0  0
    8.2080    4.5878   -0.4663 C   0  0  1  0  0  0  0  0  0  0  0  0
    7.9843    4.1710    0.9647 C   0  0  0  0  0  0  0  0  0  0  0  0
    7.6898    5.1507    1.9662 N   0  0  0  0  0  0  0  0  0  0  0  0
    8.0699    2.9551    1.2865 O   0  0  0  0  0  0  0  0  0  0  0  0
    6.9402    5.2267   -1.0741 C   0  0  0  0  0  0  0  0  0  0  0  0
    5.5898    4.0211   -1.4025 S   0  0  0  0  0  0  0  0  0  0  0  0
    4.8151    4.0648    0.2568 C   0  0  0  0  0  0  0  0  0  0  0  0
   -1.0280   10.7144    0.7186 H   0  0  0  0  0  0  0  0  0  0  0  0
   -2.0775    9.6150    1.6838 H   0  0  0  0  0  0  0  0  0  0  0  0
   -0.3375    9.1957    1.3897 H   0  0  0  0  0  0  0  0  0  0  0  0
   -2.2437    7.0799   -1.1944 H   0  0  0  0  0  0  0  0  0  0  0  0
   -1.0880    6.9759    1.5382 H   0  0  0  0  0  0  0  0  0  0  0  0
   -0.8747    5.1111   -0.1446 H   0  0  0  0  0  0  0  0  0  0  0  0
   -2.6511    4.8581   -0.0627 H   0  0  0  0  0  0  0  0  0  0  0  0
    0.4294    5.4460    2.3007 H   0  0  0  0  0  0  0  0  0  0  0  0
    0.4602    3.9399    3.2516 H   0  0  0  0  0  0  0  0  0  0  0  0
    2.6996    5.1688    1.5335 H   0  0  0  0  0  0  0  0  0  0  0  0
    3.7616    1.8380   -0.9693 H   0  0  0  0  0  0  0  0  0  0  0  0
   -0.1256    1.9866    0.8512 H   0  0  0  0  0  0  0  0  0  0  0  0
    0.4238    0.1207   -0.3982 H   0  0  0  0  0  0  0  0  0  0  0  0
    1.1587    0.7222   -1.9201 H   0  0  0  0  0  0  0  0  0  0  0  0
    2.1169   -2.9855   -1.5699 H   0  0  0  0  0  0  0  0  0  0  0  0
    0.6988   -1.9074   -1.5816 H   0  0  0  0  0  0  0  0  0  0  0  0
    0.8669   -1.9774    1.0559 H   0  0  0  0  0  0  0  0  0  0  0  0
   -0.5513   -3.9702    1.1141 H   0  0  0  0  0  0  0  0  0  0  0  0
   -1.0139   -6.2005   -1.8598 H   0  0  0  0  0  0  0  0  0  0  0  0
    1.2435   -5.6408   -2.6897 H   0  0  0  0  0  0  0  0  0  0  0  0
    1.9174   -5.7374   -1.0148 H   0  0  0  0  0  0  0  0  0  0  0  0
    1.2558   -7.2112   -1.8197 H   0  0  0  0  0  0  0  0  0  0  0  0
    0.2834   -6.4059    0.8983 H   0  0  0  0  0  0  0  0  0  0  0  0
   -3.3293   -8.3619    0.4170 H   0  0  0  0  0  0  0  0  0  0  0  0
   -4.0656   -6.8836    2.2731 H   0  0  0  0  0  0  0  0  0  0  0  0
   -2.6118   -7.8524    2.7171 H   0  0  0  0  0  0  0  0  0  0  0  0
   -2.4441   -6.0977    2.3020 H   0  0  0  0  0  0  0  0  0  0  0  0
   -2.9826   -5.3841   -0.1379 H   0  0  0  0  0  0  0  0  0  0  0  0
   -6.0287   -7.1938   -2.2127 H   0  0  0  0  0  0  0  0  0  0  0  0
   -4.4913   -8.8333   -3.0625 H   0  0  0  0  0  0  0  0  0  0  0  0
   -4.0380   -9.3818   -1.4091 H   0  0  0  0  0  0  0  0  0  0  0  0
   -5.7138   -9.6330   -2.0111 H   0  0  0  0  0  0  0  0  0  0  0  0
   -5.5887   -8.4533    0.4798 H   0  0  0  0  0  0  0  0  0  0  0  0
   -6.9653   -5.3853   -1.2341 H   0  0  0  0  0  0  0  0  0  0  0  0
   -9.2964   -5.8433   -2.0455 H   0  0  0  0  0  0  0  0  0  0  0  0
   -8.3443   -7.3638   -1.9959 H   0  0  0  0  0  0  0  0  0  0  0  0
   -9.5448   -7.0111   -0.6968 H   0  0  0  0  0  0  0  0  0  0  0  0
   -8.4756   -4.9201    1.2681 H   0  0  0  0  0  0  0  0  0  0  0  0
  -10.4848   -2.1948   -0.4330 H   0  0  0  0  0  0  0  0  0  0  0  0
  -11.8680   -3.1213    1.3465 H   0  0  0  0  0  0  0  0  0  0  0  0
  -11.3799   -4.4640    0.2533 H   0  0  0  0  0  0  0  0  0  0  0  0
  -10.5771   -4.2613    1.8579 H   0  0  0  0  0  0  0  0  0  0  0  0
   -8.6549   -2.3699    1.9862 H   0  0  0  0  0  0  0  0  0  0  0  0
  -10.3171    0.0426   -0.2085 H   0  0  0  0  0  0  0  0  0  0  0  0
  -12.6872    0.8135    0.3334 H   0  0  0  0  0  0  0  0  0  0  0  0
  -12.4435   -0.9450    0.5880 H   0  0  0  0  0  0  0  0  0  0  0  0
  -12.4803    0.1757    1.9988 H   0  0  0  0  0  0  0  0  0  0  0  0
  -10.2989    1.9123    2.1810 H   0  0  0  0  0  0  0  0  0  0  0  0
   -9.4747    1.7695   -1.4166 H   0  0  0  0  0  0  0  0  0  0  0  0
  -12.1571    3.2720   -1.7759 H   0  0  0  0  0  0  0  0  0  0  0  0
  -11.9001    1.4797   -1.7828 H   0  0  0  0  0  0  0  0  0  0  0  0
  -11.2160    2.4940   -3.1031 H   0  0  0  0  0  0  0  0  0  0  0  0
   -9.9343    4.5130   -2.3187 H   0  0  0  0  0  0  0  0  0  0  0  0
   -6.6723    5.7054   -1.5991 H   0  0  0  0  0  0  0  0  0  0  0  0
   -8.6936    6.4885   -2.7782 H   0  0  0  0  0  0  0  0  0  0  0  0
   -9.6156    6.5689   -1.2093 H   0  0  0  0  0  0  0  0  0  0  0  0
   -8.2443    7.6801   -1.5117 H   0  0  0  0  0  0  0  0  0  0  0  0
   -8.2293    5.6511    1.0058 H   0  0  0  0  0  0  0  0  0  0  0  0
   -4.8478    6.2853   -0.2083 H   0  0  0  0  0  0  0  0  0  0  0  0
   -5.9318    7.9715   -1.6984 H   0  0  0  0  0  0  0  0  0  0  0  0
   -5.6983    9.2477   -0.4410 H   0  0  0  0  0  0  0  0  0  0  0  0
   -4.2881    8.5021   -1.2689 H   0  0  0  0  0  0  0  0  0  0  0  0
   -4.5621    8.5221    1.8477 H   0  0  0  0  0  0  0  0  0  0  0  0
    3.8747   -2.3304    1.2389 H   0  0  0  0  0  0  0  0  0  0  0  0
    4.0950   -4.2249   -0.8924 H   0  0  0  0  0  0  0  0  0  0  0  0
    3.7428   -6.0260    0.7722 H   0  0  0  0  0  0  0  0  0  0  0  0
    5.3981   -6.0841    0.1242 H   0  0  0  0  0  0  0  0  0  0  0  0
    5.1066   -5.3994    1.7774 H   0  0  0  0  0  0  0  0  0  0  0  0
    7.3732   -3.5005    1.4374 H   0  0  0  0  0  0  0  0  0  0  0  0
    7.4846   -4.9971   -1.2242 H   0  0  0  0  0  0  0  0  0  0  0  0
    7.6733   -6.4302    0.8315 H   0  0  0  0  0  0  0  0  0  0  0  0
    9.1202   -5.5018    1.3484 H   0  0  0  0  0  0  0  0  0  0  0  0
    9.1428   -6.4713   -0.1864 H   0  0  0  0  0  0  0  0  0  0  0  0
   10.8239   -4.8434   -0.2713 H   0  0  0  0  0  0  0  0  0  0  0  0
   11.5280   -2.4130   -1.5205 H   0  0  0  0  0  0  0  0  0  0  0  0
   13.1624   -4.1133   -0.7812 H   0  0  0  0  0  0  0  0  0  0  0  0
   13.6099   -2.5137   -0.1166 H   0  0  0  0  0  0  0  0  0  0  0  0
   12.8192   -3.7418    0.9518 H   0  0  0  0  0  0  0  0  0  0  0  0
    9.7592   -0.1271   -0.3009 H   0  0  0  0  0  0  0  0  0  0  0  0
   11.5535    1.3097   -1.1090 H   0  0  0  0  0  0  0  0  0  0  0  0
   13.8762    1.1391   -0.2156 H   0  0  0  0  0  0  0  0  0  0  0  0
   13.3550   -0.3415   -1.0891 H   0  0  0  0  0  0  0  0  0  0  0  0
   13.4093   -0.3083    0.7313 H   0  0  0  0  0  0  0  0  0  0  0  0
   11.0387    3.5918    1.7905 H   0  0  0  0  0  0  0  0  0  0  0  0
   10.6725    3.3353   -1.1169 H   0  0  0  0  0  0  0  0  0  0  0  0
   13.3913    4.3516   -0.0690 H   0  0  0  0  0  0  0  0  0  0  0  0
   12.7532    4.7212   -1.7158 H   0  0  0  0  0  0  0  0  0  0  0  0
   13.0949    3.0347   -1.2526 H   0  0  0  0  0  0  0  0  0  0  0  0
    9.1098    6.5465   -0.6881 H   0  0  0  0  0  0  0  0  0  0  0  0
    8.4535    3.6880   -1.0780 H   0  0  0  0  0  0  0  0  0  0  0  0
    7.7803    6.1677    1.7541 H   0  0  0  0  0  0  0  0  0  0  0  0
    7.4865    4.8527    2.9482 H   0  0  0  0  0  0  0  0  0  0  0  0
    7.2172    5.6530   -2.0619 H   0  0  0  0  0  0  0  0  0  0  0  0
    6.5793    6.0729   -0.4538 H   0  0  0  0  0  0  0  0  0  0  0  0
    5.3909    3.4079    0.9414 H   0  0  0  0  0  0  0  0  0  0  0  0
    4.8578    5.0979    0.6582 H   0  0  0  0  0  0  0  0  0  0  0  0
  1  2  1  0
  2  3  2  0
  2  4  1  0
  4  5  1  0
  5  6  1  0
  6  7  1  0
  7  8  1  0
  8  9  1  0
  9 10  1  0
 10 11  2  0
 11 12  1  0
 12 13  2  0
 13 14  1  0
 13 15  1  0
 15 16  1  0
 16 17  1  0
 17 18  1  0
 18 19  1  0
 19 20  1  0
 20 21  2  0
 20 22  1  0
 22 23  1  0
 22 24  1  0
 24 25  1  0
 25 26  2  0
 25 27  1  0
 27 28  1  0
 27 29  1  0
 29 30  1  0
 30 31  2  0
 30 32  1  0
 32 33  1  0
 32 34  1  0
 34 35  1  0
 35 36  2  0
 35 37  1  0
 37 38  1  0
 37 39  1  0
 39 40  1  0
 40 41  2  0
 40 42  1  0
 42 43  1  0
 42 44  1  0
 44 45  1  0
 45 46  2  0
 45 47  1  0
 47 48  1  0
 47 49  1  0
 49 50  1  0
 50 51  2  0
 50 52  1  0
 52 53  1  0
 52 54  1  0
 54 55  1  0
 55 56  2  0
 55 57  1  0
 57 58  1  0
 57 59  1  0
 59 60  1  0
 60 61  2  0
 60 62  1  0
 62 63  1  0
 62 64  1  0
 64 65  1  0
 65 66  2  0
 18 67  1  0
 67 68  2  0
 67 69  1  0
 69 70  1  0
 70 71  1  0
 70 72  1  0
 72 73  2  0
 72 74  1  0
 74 75  1  0
 75 76  1  0
 75 77  1  0
 77 78  2  0
 77 79  1  0
 79 80  1  0
 80 81  1  0
 80 82  1  0
 82 83  2  0
 82 84  1  0
 84 85  1  0
 85 86  1  0
 85 87  1  0
 87 88  2  0
 87 89  1  0
 89 90  1  0
 90 91  1  0
 90 92  1  0
 92 93  2  0
 92 94  1  0
 94 95  1  0
 95 96  1  0
 96 97  1  0
 96 98  2  0
 95 99  1  0
 99100  1  0
100101  1  0
 65  5  1  0
 14  9  2  0
101 11  1  0
  1102  1  0
  1103  1  0
  1104  1  0
  4105  1  0
  5106  1  1
  6107  1  0
  6108  1  0
  8109  1  0
  8110  1  0
 10111  1  0
 12112  1  0
 14113  1  0
 15114  1  0
 15115  1  0
 17116  1  0
 17117  1  0
 18118  1  1
 19119  1  0
 22120  1  6
 23121  1  0
 23122  1  0
 23123  1  0
 24124  1  0
 27125  1  1
 28126  1  0
 28127  1  0
 28128  1  0
 29129  1  0
 32130  1  6
 33131  1  0
 33132  1  0
 33133  1  0
 34134  1  0
 37135  1  6
 38136  1  0
 38137  1  0
 38138  1  0
 39139  1  0
 42140  1  6
 43141  1  0
 43142  1  0
 43143  1  0
 44144  1  0
 47145  1  6
 48146  1  0
 48147  1  0
 48148  1  0
 49149  1  0
 52150  1  1
 53151  1  0
 53152  1  0
 53153  1  0
 54154  1  0
 57155  1  6
 58156  1  0
 58157  1  0
 58158  1  0
 59159  1  0
 62160  1  6
 63161  1  0
 63162  1  0
 63163  1  0
 64164  1  0
 69165  1  0
 70166  1  6
 71167  1  0
 71168  1  0
 71169  1  0
 74170  1  0
 75171  1  6
 76172  1  0
 76173  1  0
 76174  1  0
 79175  1  0
 80176  1  6
 81177  1  0
 81178  1  0
 81179  1  0
 84180  1  0
 85181  1  6
 86182  1  0
 86183  1  0
 86184  1  0
 89185  1  0
 90186  1  6
 91187  1  0
 91188  1  0
 91189  1  0
 94190  1  0
 95191  1  6
 97192  1  0
 97193  1  0
 99194  1  0
 99195  1  0
101196  1  0
101197  1  0
M  END
