
     RDKit          3D

207209  0  0  0  0  0  0  0  0999 V2000
    2.3450   -9.4581    1.2172 C   0  0  0  0  0  0  0  0  0  0  0  0
    1.9901   -9.3420   -0.2366 C   0  0  0  0  0  0  0  0  0  0  0  0
    1.1365  -10.1473   -0.6993 O   0  0  0  0  0  0  0  0  0  0  0  0
    2.5772   -8.3651   -1.1268 N   0  0  0  0  0  0  0  0  0  0  0  0
    3.4560   -7.2410   -0.7560 C   0  0  1  0  0  0  0  0  0  0  0  0
    2.7770   -6.3065    0.2765 C   0  0  0  0  0  0  0  0  0  0  0  0
    2.0832   -4.8351   -0.5543 S   0  0  0  0  0  0  0  0  0  0  0  0
    1.2775   -4.1097    0.9195 C   0  0  0  0  0  0  0  0  0  0  0  0
   -0.0934   -3.6670    0.5160 C   0  0  0  0  0  0  0  0  0  0  0  0
   -1.0958   -4.6261    0.3096 C   0  0  0  0  0  0  0  0  0  0  0  0
   -2.3189   -4.2765   -0.2820 C   0  0  0  0  0  0  0  0  0  0  0  0
   -2.5098   -2.9440   -0.7011 C   0  0  0  0  0  0  0  0  0  0  0  0
   -1.5198   -1.9695   -0.4726 C   0  0  0  0  0  0  0  0  0  0  0  0
   -0.3259   -2.3317    0.1597 C   0  0  0  0  0  0  0  0  0  0  0  0
   -1.7028   -0.5761   -0.9940 C   0  0  0  0  0  0  0  0  0  0  0  0
   -2.1986    0.5394    0.3622 S   0  0  0  0  0  0  0  0  0  0  0  0
   -2.6768    1.8989   -0.7612 C   0  0  0  0  0  0  0  0  0  0  0  0
   -3.2162    3.1035    0.0320 C   0  0  1  0  0  0  0  0  0  0  0  0
   -2.1502    3.7691    0.7911 N   0  0  0  0  0  0  0  0  0  0  0  0
   -1.1321    4.5887    0.1893 C   0  0  0  0  0  0  0  0  0  0  0  0
   -0.9354    4.5311   -1.0545 O   0  0  0  0  0  0  0  0  0  0  0  0
   -0.2698    5.5421    0.9920 C   0  0  1  0  0  0  0  0  0  0  0  0
   -0.7963    5.8307    2.3989 C   0  0  0  0  0  0  0  0  0  0  0  0
    1.0988    5.0279    1.0658 N   0  0  0  0  0  0  0  0  0  0  0  0
    2.0493    5.3060    0.0336 C   0  0  0  0  0  0  0  0  0  0  0  0
    2.2083    4.4689   -0.8937 O   0  0  0  0  0  0  0  0  0  0  0  0
    2.9437    6.5232    0.0997 C   0  0  1  0  0  0  0  0  0  0  0  0
    2.1361    7.8143    0.2516 C   0  0  0  0  0  0  0  0  0  0  0  0
    3.8907    6.3866    1.2062 N   0  0  0  0  0  0  0  0  0  0  0  0
    5.1300    7.1101    1.3394 C   0  0  0  0  0  0  0  0  0  0  0  0
    5.8317    6.9192    2.3736 O   0  0  0  0  0  0  0  0  0  0  0  0
    5.6517    8.0657    0.2890 C   0  0  1  0  0  0  0  0  0  0  0  0
    5.7618    9.4768    0.8723 C   0  0  0  0  0  0  0  0  0  0  0  0
    6.9540    7.5988   -0.1796 N   0  0  0  0  0  0  0  0  0  0  0  0
    7.1054    6.3514   -0.8729 C   0  0  0  0  0  0  0  0  0  0  0  0
    6.1765    5.9360   -1.6117 O   0  0  0  0  0  0  0  0  0  0  0  0
    8.3109    5.4646   -0.6503 C   0  0  1  0  0  0  0  0  0  0  0  0
    9.5451    6.2749   -0.2336 C   0  0  0  0  0  0  0  0  0  0  0  0
    7.9852    4.4545    0.3685 N   0  0  0  0  0  0  0  0  0  0  0  0
    8.5573    3.1378    0.4492 C   0  0  0  0  0  0  0  0  0  0  0  0
    7.9543    2.2570    1.1179 O   0  0  0  0  0  0  0  0  0  0  0  0
    9.9280    2.8185   -0.1125 C   0  0  1  0  0  0  0  0  0  0  0  0
   10.9789    2.9827    0.9911 C   0  0  0  0  0  0  0  0  0  0  0  0
    9.9939    1.4551   -0.6543 N   0  0  0  0  0  0  0  0  0  0  0  0
   11.1027    1.0424   -1.4712 C   0  0  0  0  0  0  0  0  0  0  0  0
   11.7576    1.9107   -2.1086 O   0  0  0  0  0  0  0  0  0  0  0  0
   11.5151   -0.4035   -1.5867 C   0  0  1  0  0  0  0  0  0  0  0  0
   12.9605   -0.5773   -1.1068 C   0  0  0  0  0  0  0  0  0  0  0  0
   10.6492   -1.2845   -0.8032 N   0  0  0  0  0  0  0  0  0  0  0  0
    9.9324   -2.3510   -1.4242 C   0  0  0  0  0  0  0  0  0  0  0  0
    9.0702   -2.0924   -2.3074 O   0  0  0  0  0  0  0  0  0  0  0  0
   10.2701   -3.7861   -1.1209 C   0  0  1  0  0  0  0  0  0  0  0  0
   11.3044   -4.3094   -2.1134 C   0  0  0  0  0  0  0  0  0  0  0  0
   10.7810   -3.9283    0.2455 N   0  0  0  0  0  0  0  0  0  0  0  0
   10.1398   -4.6585    1.3078 C   0  0  0  0  0  0  0  0  0  0  0  0
   10.7472   -4.7637    2.4077 O   0  0  0  0  0  0  0  0  0  0  0  0
    8.7581   -5.2804    1.1515 C   0  0  1  0  0  0  0  0  0  0  0  0
    8.3635   -6.0959    2.3943 C   0  0  0  0  0  0  0  0  0  0  0  0
    7.7608   -4.2294    0.9119 N   0  0  0  0  0  0  0  0  0  0  0  0
    6.3874   -4.4870    0.5805 C   0  0  0  0  0  0  0  0  0  0  0  0
    5.4933   -3.8758    1.2361 O   0  0  0  0  0  0  0  0  0  0  0  0
    5.9434   -5.3954   -0.5506 C   0  0  1  0  0  0  0  0  0  0  0  0
    6.7832   -5.2361   -1.8177 C   0  0  0  0  0  0  0  0  0  0  0  0
    5.9269   -6.8008   -0.1230 N   0  0  0  0  0  0  0  0  0  0  0  0
    4.8287   -7.7123   -0.3157 C   0  0  0  0  0  0  0  0  0  0  0  0
    5.0406   -8.9450   -0.1555 O   0  0  0  0  0  0  0  0  0  0  0  0
   -3.9229    4.1021   -0.8673 C   0  0  0  0  0  0  0  0  0  0  0  0
   -3.5909    4.1900   -2.0831 O   0  0  0  0  0  0  0  0  0  0  0  0
   -4.9038    5.0164   -0.3568 N   0  0  0  0  0  0  0  0  0  0  0  0
   -5.8184    4.7093    0.7478 C   0  0  2  0  0  0  0  0  0  0  0  0
   -6.6817    3.4747    0.4461 C   0  0  0  0  0  0  0  0  0  0  0  0
   -6.6467    5.9262    1.1143 C   0  0  0  0  0  0  0  0  0  0  0  0
   -6.4639    6.4306    2.2590 O   0  0  0  0  0  0  0  0  0  0  0  0
   -7.5657    6.5993    0.2210 N   0  0  0  0  0  0  0  0  0  0  0  0
   -8.2942    6.0169   -0.9170 C   0  0  2  0  0  0  0  0  0  0  0  0
   -7.4824    6.1512   -2.2124 C   0  0  0  0  0  0  0  0  0  0  0  0
   -9.6268    6.7295   -1.0945 C   0  0  0  0  0  0  0  0  0  0  0  0
   -9.6238    7.9801   -1.2492 O   0  0  0  0  0  0  0  0  0  0  0  0
  -10.9051    6.0496   -1.0820 N   0  0  0  0  0  0  0  0  0  0  0  0
  -11.1910    4.7068   -0.5673 C   0  0  2  0  0  0  0  0  0  0  0  0
  -10.8009    4.5837    0.9142 C   0  0  0  0  0  0  0  0  0  0  0  0
  -10.6205    3.6188   -1.4523 C   0  0  0  0  0  0  0  0  0  0  0  0
  -10.0704    3.9171   -2.5448 O   0  0  0  0  0  0  0  0  0  0  0  0
  -10.8488    2.2416   -1.1499 N   0  0  0  0  0  0  0  0  0  0  0  0
   -9.9171    1.4929   -0.3075 C   0  0  2  0  0  0  0  0  0  0  0  0
   -8.8458    0.8176   -1.1722 C   0  0  0  0  0  0  0  0  0  0  0  0
  -10.6820    0.5205    0.5601 C   0  0  0  0  0  0  0  0  0  0  0  0
  -11.5023    0.9680    1.4041 O   0  0  0  0  0  0  0  0  0  0  0  0
  -10.4415   -0.8883    0.5121 N   0  0  0  0  0  0  0  0  0  0  0  0
  -11.0311   -1.7256   -0.5350 C   0  0  2  0  0  0  0  0  0  0  0  0
  -12.3402   -2.3412   -0.0353 C   0  0  0  0  0  0  0  0  0  0  0  0
  -10.0497   -2.7834   -0.9627 C   0  0  0  0  0  0  0  0  0  0  0  0
   -9.8811   -3.0166   -2.1889 O   0  0  0  0  0  0  0  0  0  0  0  0
   -9.2367   -3.4631   -0.0006 N   0  0  0  0  0  0  0  0  0  0  0  0
   -9.7265   -4.5934    0.7875 C   0  0  2  0  0  0  0  0  0  0  0  0
   -9.4526   -4.3506    2.2711 C   0  0  0  0  0  0  0  0  0  0  0  0
   -9.0815   -5.8750    0.3224 C   0  0  0  0  0  0  0  0  0  0  0  0
   -9.7915   -6.9071    0.1702 O   0  0  0  0  0  0  0  0  0  0  0  0
   -7.7028   -5.9155   -0.0518 N   0  0  0  0  0  0  0  0  0  0  0  0
   -6.6174   -6.0189    0.9276 C   0  0  1  0  0  0  0  0  0  0  0  0
   -5.9398   -7.3734    0.8833 C   0  0  0  0  0  0  0  0  0  0  0  0
   -6.3160   -8.3880   -0.0547 N   0  0  0  0  0  0  0  0  0  0  0  0
   -5.0266   -7.6240    1.7151 O   0  0  0  0  0  0  0  0  0  0  0  0
   -5.6010   -4.8819    0.7201 C   0  0  0  0  0  0  0  0  0  0  0  0
   -4.9826   -4.8223   -1.0065 S   0  0  0  0  0  0  0  0  0  0  0  0
   -3.2700   -5.3865   -0.6742 C   0  0  0  0  0  0  0  0  0  0  0  0
    2.7202  -10.4822    1.4205 H   0  0  0  0  0  0  0  0  0  0  0  0
    1.4366   -9.2766    1.8284 H   0  0  0  0  0  0  0  0  0  0  0  0
    3.1208   -8.7371    1.5321 H   0  0  0  0  0  0  0  0  0  0  0  0
    2.2984   -8.4295   -2.1332 H   0  0  0  0  0  0  0  0  0  0  0  0
    3.6363   -6.6673   -1.6948 H   0  0  0  0  0  0  0  0  0  0  0  0
    3.5036   -5.9679    1.0462 H   0  0  0  0  0  0  0  0  0  0  0  0
    1.9496   -6.8241    0.8014 H   0  0  0  0  0  0  0  0  0  0  0  0
    1.8940   -3.2498    1.2565 H   0  0  0  0  0  0  0  0  0  0  0  0
    1.2074   -4.8281    1.7640 H   0  0  0  0  0  0  0  0  0  0  0  0
   -0.9031   -5.6607    0.5682 H   0  0  0  0  0  0  0  0  0  0  0  0
   -3.4030   -2.6620   -1.2428 H   0  0  0  0  0  0  0  0  0  0  0  0
    0.4552   -1.5889    0.2966 H   0  0  0  0  0  0  0  0  0  0  0  0
   -2.4765   -0.5774   -1.7944 H   0  0  0  0  0  0  0  0  0  0  0  0
   -0.7539   -0.2142   -1.4446 H   0  0  0  0  0  0  0  0  0  0  0  0
   -1.8021    2.1888   -1.3783 H   0  0  0  0  0  0  0  0  0  0  0  0
   -3.4847    1.5232   -1.4299 H   0  0  0  0  0  0  0  0  0  0  0  0
   -3.9454    2.6927    0.7553 H   0  0  0  0  0  0  0  0  0  0  0  0
   -2.2176    3.7105    1.8280 H   0  0  0  0  0  0  0  0  0  0  0  0
   -0.2765    6.5108    0.4496 H   0  0  0  0  0  0  0  0  0  0  0  0
   -0.7193    4.9387    3.0559 H   0  0  0  0  0  0  0  0  0  0  0  0
   -0.1961    6.6444    2.8632 H   0  0  0  0  0  0  0  0  0  0  0  0
   -1.8537    6.1675    2.3560 H   0  0  0  0  0  0  0  0  0  0  0  0
    1.2504    4.1579    1.6241 H   0  0  0  0  0  0  0  0  0  0  0  0
    3.4982    6.5645   -0.8641 H   0  0  0  0  0  0  0  0  0  0  0  0
    1.6047    7.8280    1.2268 H   0  0  0  0  0  0  0  0  0  0  0  0
    1.4012    7.9091   -0.5744 H   0  0  0  0  0  0  0  0  0  0  0  0
    2.8019    8.6989    0.2136 H   0  0  0  0  0  0  0  0  0  0  0  0
    3.6420    5.7464    1.9981 H   0  0  0  0  0  0  0  0  0  0  0  0
    4.9749    8.1324   -0.5853 H   0  0  0  0  0  0  0  0  0  0  0  0
    6.5038    9.4964    1.7009 H   0  0  0  0  0  0  0  0  0  0  0  0
    4.7758    9.8105    1.2587 H   0  0  0  0  0  0  0  0  0  0  0  0
    6.0908   10.1868    0.0840 H   0  0  0  0  0  0  0  0  0  0  0  0
    7.7652    8.2692   -0.1928 H   0  0  0  0  0  0  0  0  0  0  0  0
    8.5288    4.9602   -1.6177 H   0  0  0  0  0  0  0  0  0  0  0  0
   10.4548    5.6482   -0.2338 H   0  0  0  0  0  0  0  0  0  0  0  0
    9.7205    7.1065   -0.9527 H   0  0  0  0  0  0  0  0  0  0  0  0
    9.4094    6.6942    0.7889 H   0  0  0  0  0  0  0  0  0  0  0  0
    7.1997    4.6590    1.0319 H   0  0  0  0  0  0  0  0  0  0  0  0
   10.1570    3.5213   -0.9370 H   0  0  0  0  0  0  0  0  0  0  0  0
   10.8081    2.2330    1.7961 H   0  0  0  0  0  0  0  0  0  0  0  0
   10.9289    3.9990    1.4328 H   0  0  0  0  0  0  0  0  0  0  0  0
   11.9949    2.8262    0.5757 H   0  0  0  0  0  0  0  0  0  0  0  0
    9.2103    0.7822   -0.4869 H   0  0  0  0  0  0  0  0  0  0  0  0
   11.4746   -0.6838   -2.6622 H   0  0  0  0  0  0  0  0  0  0  0  0
   13.0526   -0.2883   -0.0371 H   0  0  0  0  0  0  0  0  0  0  0  0
   13.2679   -1.6378   -1.2137 H   0  0  0  0  0  0  0  0  0  0  0  0
   13.6503    0.0485   -1.7115 H   0  0  0  0  0  0  0  0  0  0  0  0
   10.6432   -1.2049    0.2398 H   0  0  0  0  0  0  0  0  0  0  0  0
    9.3569   -4.3854   -1.2570 H   0  0  0  0  0  0  0  0  0  0  0  0
   11.5284   -5.3752   -1.8938 H   0  0  0  0  0  0  0  0  0  0  0  0
   10.9160   -4.2349   -3.1500 H   0  0  0  0  0  0  0  0  0  0  0  0
   12.2467   -3.7262   -2.0396 H   0  0  0  0  0  0  0  0  0  0  0  0
   11.6982   -3.4731    0.4698 H   0  0  0  0  0  0  0  0  0  0  0  0
    8.7951   -5.9757    0.2862 H   0  0  0  0  0  0  0  0  0  0  0  0
    8.3985   -5.4604    3.3068 H   0  0  0  0  0  0  0  0  0  0  0  0
    7.3333   -6.4945    2.3021 H   0  0  0  0  0  0  0  0  0  0  0  0
    9.0535   -6.9559    2.5244 H   0  0  0  0  0  0  0  0  0  0  0  0
    7.9673   -3.2806    1.3017 H   0  0  0  0  0  0  0  0  0  0  0  0
    4.9267   -5.0583   -0.8300 H   0  0  0  0  0  0  0  0  0  0  0  0
    6.2126   -5.6287   -2.6836 H   0  0  0  0  0  0  0  0  0  0  0  0
    7.7186   -5.8225   -1.7489 H   0  0  0  0  0  0  0  0  0  0  0  0
    7.0055   -4.1643   -2.0067 H   0  0  0  0  0  0  0  0  0  0  0  0
    6.8315   -7.2278    0.1729 H   0  0  0  0  0  0  0  0  0  0  0  0
   -4.9641    5.9510   -0.8200 H   0  0  0  0  0  0  0  0  0  0  0  0
   -5.2011    4.4665    1.6438 H   0  0  0  0  0  0  0  0  0  0  0  0
   -6.9342    3.4139   -0.6307 H   0  0  0  0  0  0  0  0  0  0  0  0
   -6.1462    2.5412    0.7011 H   0  0  0  0  0  0  0  0  0  0  0  0
   -7.6012    3.4871    1.0632 H   0  0  0  0  0  0  0  0  0  0  0  0
   -7.8621    7.5537    0.5406 H   0  0  0  0  0  0  0  0  0  0  0  0
   -8.4816    4.9547   -0.7429 H   0  0  0  0  0  0  0  0  0  0  0  0
   -8.1241    5.9547   -3.0982 H   0  0  0  0  0  0  0  0  0  0  0  0
   -6.6646    5.4074   -2.2401 H   0  0  0  0  0  0  0  0  0  0  0  0
   -7.0542    7.1722   -2.3010 H   0  0  0  0  0  0  0  0  0  0  0  0
  -11.7305    6.6239   -1.3668 H   0  0  0  0  0  0  0  0  0  0  0  0
  -12.2979    4.5658   -0.6008 H   0  0  0  0  0  0  0  0  0  0  0  0
  -11.2534    5.4199    1.4861 H   0  0  0  0  0  0  0  0  0  0  0  0
  -11.1900    3.6372    1.3378 H   0  0  0  0  0  0  0  0  0  0  0  0
   -9.7060    4.6147    1.0672 H   0  0  0  0  0  0  0  0  0  0  0  0
  -11.4437    1.7024   -1.8160 H   0  0  0  0  0  0  0  0  0  0  0  0
   -9.3929    2.1887    0.3797 H   0  0  0  0  0  0  0  0  0  0  0  0
   -8.1465    0.2317   -0.5377 H   0  0  0  0  0  0  0  0  0  0  0  0
   -9.3108    0.1455   -1.9249 H   0  0  0  0  0  0  0  0  0  0  0  0
   -8.2599    1.5891   -1.7125 H   0  0  0  0  0  0  0  0  0  0  0  0
  -10.1666   -1.3481    1.4096 H   0  0  0  0  0  0  0  0  0  0  0  0
  -11.2760   -1.0963   -1.4192 H   0  0  0  0  0  0  0  0  0  0  0  0
  -12.7385   -3.0631   -0.7788 H   0  0  0  0  0  0  0  0  0  0  0  0
  -12.1916   -2.8575    0.9368 H   0  0  0  0  0  0  0  0  0  0  0  0
  -13.0926   -1.5370    0.1109 H   0  0  0  0  0  0  0  0  0  0  0  0
   -8.2135   -3.2468    0.0004 H   0  0  0  0  0  0  0  0  0  0  0  0
  -10.8261   -4.6950    0.6580 H   0  0  0  0  0  0  0  0  0  0  0  0
  -10.0850   -3.5117    2.6360 H   0  0  0  0  0  0  0  0  0  0  0  0
   -8.3892   -4.0820    2.4404 H   0  0  0  0  0  0  0  0  0  0  0  0
   -9.7005   -5.2571    2.8653 H   0  0  0  0  0  0  0  0  0  0  0  0
   -7.4930   -6.0292   -1.0675 H   0  0  0  0  0  0  0  0  0  0  0  0
   -7.0333   -5.9096    1.9527 H   0  0  0  0  0  0  0  0  0  0  0  0
   -5.7840   -9.2866   -0.0880 H   0  0  0  0  0  0  0  0  0  0  0  0
   -7.1102   -8.2710   -0.7204 H   0  0  0  0  0  0  0  0  0  0  0  0
   -4.7704   -4.9624    1.4521 H   0  0  0  0  0  0  0  0  0  0  0  0
   -6.1035   -3.9151    0.9241 H   0  0  0  0  0  0  0  0  0  0  0  0
   -3.2771   -6.1885    0.0975 H   0  0  0  0  0  0  0  0  0  0  0  0
   -2.8874   -5.8411   -1.6135 H   0  0  0  0  0  0  0  0  0  0  0  0
  1  2  1  0
  2  3  2  0
  2  4  1  0
  4  5  1  0
  5  6  1  0
  6  7  1  0
  7  8  1  0
  8  9  1  0
  9 10  1  0
 10 11  2  0
 11 12  1  0
 12 13  2  0
 13 14  1  0
 13 15  1  0
 15 16  1  0
 16 17  1  0
 17 18  1  0
 18 19  1  0
 19 20  1  0
 20 21  2  0
 20 22  1  0
 22 23  1  0
 22 24  1  0
 24 25  1  0
 25 26  2  0
 25 27  1  0
 27 28  1  0
 27 29  1  0
 29 30  1  0
 30 31  2  0
 30 32  1  0
 32 33  1  0
 32 34  1  0
 34 35  1  0
 35 36  2  0
 35 37  1  0
 37 38  1  0
 37 39  1  0
 39 40  1  0
 40 41  2  0
 40 42  1  0
 42 43  1  0
 42 44  1  0
 44 45  1  0
 45 46  2  0
 45 47  1  0
 47 48  1  0
 47 49  1  0
 49 50  1  0
 50 51  2  0
 50 52  1  0
 52 53  1  0
 52 54  1  0
 54 55  1  0
 55 56  2  0
 55 57  1  0
 57 58  1  0
 57 59  1  0
 59 60  1  0
 60 61  2  0
 60 62  1  0
 62 63  1  0
 62 64  1  0
 64 65  1  0
 65 66  2  0
 18 67  1  0
 67 68  2  0
 67 69  1  0
 69 70  1  0
 70 71  1  0
 70 72  1  0
 72 73  2  0
 72 74  1  0
 74 75  1  0
 75 76  1  0
 75 77  1  0
 77 78  2  0
 77 79  1  0
 79 80  1  0
 80 81  1  0
 80 82  1  0
 82 83  2  0
 82 84  1  0
 84 85  1  0
 85 86  1  0
 85 87  1  0
 87 88  2  0
 87 89  1  0
 89 90  1  0
 90 91  1  0
 90 92  1  0
 92 93  2  0
 92 94  1  0
 94 95  1  0
 95 96  1  0
 95 97  1  0
 97 98  2  0
 97 99  1  0
 99100  1  0
100101  1  0
101102  1  0
101103  2  0
100104  1  0
104105  1  0
105106  1  0
 65  5  1  0
 14  9  2  0
106 11  1  0
  1107  1  0
  1108  1  0
  1109  1  0
  4110  1  0
  5111  1  6
  6112  1  0
  6113  1  0
  8114  1  0
  8115  1  0
 10116  1  0
 12117  1  0
 14118  1  0
 15119  1  0
 15120  1  0
 17121  1  0
 17122  1  0
 18123  1  1
 19124  1  0
 22125  1  6
 23126  1  0
 23127  1  0
 23128  1  0
 24129  1  0
 27130  1  6
 28131  1  0
 28132  1  0
 28133  1  0
 29134  1  0
 32135  1  6
 33136  1  0
 33137  1  0
 33138  1  0
 34139  1  0
 37140  1  6
 38141  1  0
 38142  1  0
 38143  1  0
 39144  1  0
 42145  1  6
 43146  1  0
 43147  1  0
 43148  1  0
 44149  1  0
 47150  1  6
 48151  1  0
 48152  1  0
 48153  1  0
 49154  1  0
 52155  1  1
 53156  1  0
 53157  1  0
 53158  1  0
 54159  1  0
 57160  1  6
 58161  1  0
 58162  1  0
 58163  1  0
 59164  1  0
 62165  1  6
 63166  1  0
 63167  1  0
 63168  1  0
 64169  1  0
 69170  1  0
 70171  1  1
 71172  1  0
 71173  1  0
 71174  1  0
 74175  1  0
 75176  1  1
 76177  1  0
 76178  1  0
 76179  1  0
 79180  1  0
 80181  1  1
 81182  1  0
 81183  1  0
 81184  1  0
 84185  1  0
 85186  1  1
 86187  1  0
 86188  1  0
 86189  1  0
 89190  1  0
 90191  1  6
 91192  1  0
 91193  1  0
 91194  1  0
 94195  1  0
 95196  1  1
 96197  1  0
 96198  1  0
 96199  1  0
 99200  1  0
100201  1  1
102202  1  0
102203  1  0
104204  1  0
104205  1  0
106206  1  0
106207  1  0
M  END
