
     RDKit          3D

217219  0  0  0  0  0  0  0  0999 V2000
    2.3650    9.9483   -0.3634 C   0  0  0  0  0  0  0  0  0  0  0  0
    2.6494    8.5189   -0.7099 C   0  0  0  0  0  0  0  0  0  0  0  0
    2.1644    8.0314   -1.7646 O   0  0  0  0  0  0  0  0  0  0  0  0
    3.4650    7.7224    0.1659 N   0  0  0  0  0  0  0  0  0  0  0  0
    3.8295    6.3108   -0.0538 C   0  0  1  0  0  0  0  0  0  0  0  0
    2.5951    5.4126   -0.2577 C   0  0  0  0  0  0  0  0  0  0  0  0
    1.4109    5.6267    1.1301 S   0  0  0  0  0  0  0  0  0  0  0  0
   -0.1351    5.7123    0.1541 C   0  0  0  0  0  0  0  0  0  0  0  0
   -0.8108    4.3681    0.1121 C   0  0  0  0  0  0  0  0  0  0  0  0
   -2.0289    4.1739    0.7758 C   0  0  0  0  0  0  0  0  0  0  0  0
   -2.7078    2.9493    0.6742 C   0  0  0  0  0  0  0  0  0  0  0  0
   -2.1552    1.9105   -0.0880 C   0  0  0  0  0  0  0  0  0  0  0  0
   -0.9373    2.0937   -0.7719 C   0  0  0  0  0  0  0  0  0  0  0  0
   -0.2752    3.3274   -0.6643 C   0  0  0  0  0  0  0  0  0  0  0  0
   -0.2980    1.0210   -1.6355 C   0  0  0  0  0  0  0  0  0  0  0  0
   -1.2653   -0.5286   -1.7988 S   0  0  0  0  0  0  0  0  0  0  0  0
   -0.4794   -1.3993   -0.3913 C   0  0  0  0  0  0  0  0  0  0  0  0
   -1.2061   -2.7314   -0.1169 C   0  0  1  0  0  0  0  0  0  0  0  0
   -0.4462   -3.5509    0.8194 N   0  0  0  0  0  0  0  0  0  0  0  0
    0.8098   -4.1374    0.4569 C   0  0  0  0  0  0  0  0  0  0  0  0
    1.8656   -3.5867    0.8770 O   0  0  0  0  0  0  0  0  0  0  0  0
    0.8794   -5.4366   -0.3115 C   0  0  1  0  0  0  0  0  0  0  0  0
    0.3573   -5.2922   -1.7402 C   0  0  0  0  0  0  0  0  0  0  0  0
    2.2606   -5.9286   -0.3476 N   0  0  0  0  0  0  0  0  0  0  0  0
    2.5884   -7.2858   -0.0212 C   0  0  0  0  0  0  0  0  0  0  0  0
    1.8393   -8.2237   -0.4165 O   0  0  0  0  0  0  0  0  0  0  0  0
    3.8209   -7.5763    0.7870 C   0  0  1  0  0  0  0  0  0  0  0  0
    3.4492   -7.7207    2.2644 C   0  0  0  0  0  0  0  0  0  0  0  0
    4.4826   -8.8006    0.3156 N   0  0  0  0  0  0  0  0  0  0  0  0
    5.9085   -8.9805    0.2619 C   0  0  0  0  0  0  0  0  0  0  0  0
    6.3633  -10.0579   -0.2082 O   0  0  0  0  0  0  0  0  0  0  0  0
    6.8696   -7.9065    0.7325 C   0  0  1  0  0  0  0  0  0  0  0  0
    8.2473   -8.4735    1.0915 C   0  0  0  0  0  0  0  0  0  0  0  0
    7.0212   -6.8907   -0.3095 N   0  0  0  0  0  0  0  0  0  0  0  0
    7.4554   -5.5720    0.0272 C   0  0  0  0  0  0  0  0  0  0  0  0
    6.7705   -4.8870    0.8349 O   0  0  0  0  0  0  0  0  0  0  0  0
    8.7919   -5.0514   -0.4438 C   0  0  1  0  0  0  0  0  0  0  0  0
    9.2684   -5.7216   -1.7357 C   0  0  0  0  0  0  0  0  0  0  0  0
    8.7219   -3.5993   -0.6570 N   0  0  0  0  0  0  0  0  0  0  0  0
    9.4846   -2.6083    0.0555 C   0  0  0  0  0  0  0  0  0  0  0  0
    9.1430   -1.4028   -0.0629 O   0  0  0  0  0  0  0  0  0  0  0  0
   10.6925   -2.9505    0.9137 C   0  0  1  0  0  0  0  0  0  0  0  0
   11.8214   -3.5674    0.0680 C   0  0  0  0  0  0  0  0  0  0  0  0
   11.1368   -1.7597    1.6590 N   0  0  0  0  0  0  0  0  0  0  0  0
   12.4479   -1.1743    1.5767 C   0  0  0  0  0  0  0  0  0  0  0  0
   13.2713   -1.3811    2.5138 O   0  0  0  0  0  0  0  0  0  0  0  0
   12.8080   -0.1870    0.4901 C   0  0  1  0  0  0  0  0  0  0  0  0
   14.0450   -0.6398   -0.2814 C   0  0  0  0  0  0  0  0  0  0  0  0
   11.6883    0.0167   -0.4255 N   0  0  0  0  0  0  0  0  0  0  0  0
   11.0549    1.2841   -0.6610 C   0  0  0  0  0  0  0  0  0  0  0  0
   10.9661    1.6909   -1.8506 O   0  0  0  0  0  0  0  0  0  0  0  0
   10.2680    2.0115    0.4223 C   0  0  1  0  0  0  0  0  0  0  0  0
   10.9716    2.1245    1.7782 C   0  0  0  0  0  0  0  0  0  0  0  0
    9.8779    3.3564   -0.0249 N   0  0  0  0  0  0  0  0  0  0  0  0
   10.8238    4.3940   -0.3468 C   0  0  0  0  0  0  0  0  0  0  0  0
   12.0102    4.0934   -0.6628 O   0  0  0  0  0  0  0  0  0  0  0  0
   10.3822    5.8366   -0.3602 C   0  0  1  0  0  0  0  0  0  0  0  0
   11.5734    6.8004   -0.3536 C   0  0  0  0  0  0  0  0  0  0  0  0
    9.5600    6.0955   -1.5527 N   0  0  0  0  0  0  0  0  0  0  0  0
    8.2114    6.5946   -1.5029 C   0  0  0  0  0  0  0  0  0  0  0  0
    7.8049    7.3380   -2.4357 O   0  0  0  0  0  0  0  0  0  0  0  0
    7.2442    6.2078   -0.4071 C   0  0  1  0  0  0  0  0  0  0  0  0
    6.9051    7.4289    0.4544 C   0  0  0  0  0  0  0  0  0  0  0  0
    6.0700    5.5549   -1.0024 N   0  0  0  0  0  0  0  0  0  0  0  0
    4.7944    6.1760   -1.2003 C   0  0  0  0  0  0  0  0  0  0  0  0
    4.4525    6.5185   -2.3627 O   0  0  0  0  0  0  0  0  0  0  0  0
   -2.5967   -2.4936    0.4235 C   0  0  0  0  0  0  0  0  0  0  0  0
   -2.7732   -1.6634    1.3553 O   0  0  0  0  0  0  0  0  0  0  0  0
   -3.7354   -3.1615   -0.1342 N   0  0  0  0  0  0  0  0  0  0  0  0
   -3.7052   -4.5573   -0.5904 C   0  0  2  0  0  0  0  0  0  0  0  0
   -3.8840   -4.6351   -2.1076 C   0  0  0  0  0  0  0  0  0  0  0  0
   -4.7234   -5.3965    0.1488 C   0  0  0  0  0  0  0  0  0  0  0  0
   -4.4127   -6.5832    0.4543 O   0  0  0  0  0  0  0  0  0  0  0  0
   -5.9647   -4.8661    0.6382 N   0  0  0  0  0  0  0  0  0  0  0  0
   -6.9525   -4.2023   -0.2141 C   0  0  2  0  0  0  0  0  0  0  0  0
   -7.5312   -2.9999    0.5400 C   0  0  0  0  0  0  0  0  0  0  0  0
   -8.0571   -5.1592   -0.5885 C   0  0  0  0  0  0  0  0  0  0  0  0
   -7.9077   -6.4001   -0.4221 O   0  0  0  0  0  0  0  0  0  0  0  0
   -9.2724   -4.6703   -1.1696 N   0  0  0  0  0  0  0  0  0  0  0  0
  -10.5087   -4.6344   -0.3828 C   0  0  2  0  0  0  0  0  0  0  0  0
  -11.2425   -5.9728   -0.5074 C   0  0  0  0  0  0  0  0  0  0  0  0
  -11.4047   -3.5139   -0.8659 C   0  0  0  0  0  0  0  0  0  0  0  0
  -11.5982   -3.3874   -2.1100 O   0  0  0  0  0  0  0  0  0  0  0  0
  -12.1074   -2.6318    0.0336 N   0  0  0  0  0  0  0  0  0  0  0  0
  -12.0631   -2.7215    1.4927 C   0  0  2  0  0  0  0  0  0  0  0  0
  -13.2533   -2.0003    2.1363 C   0  0  0  0  0  0  0  0  0  0  0  0
  -10.7660   -2.1862    2.0586 C   0  0  0  0  0  0  0  0  0  0  0  0
  -10.2458   -2.8169    3.0222 O   0  0  0  0  0  0  0  0  0  0  0  0
  -10.0700   -1.0333    1.5475 N   0  0  0  0  0  0  0  0  0  0  0  0
  -10.6240    0.0196    0.6932 C   0  0  2  0  0  0  0  0  0  0  0  0
   -9.8135    0.0886   -0.6092 C   0  0  0  0  0  0  0  0  0  0  0  0
  -10.5762    1.3358    1.4263 C   0  0  0  0  0  0  0  0  0  0  0  0
   -9.4930    1.7312    1.9359 O   0  0  0  0  0  0  0  0  0  0  0  0
  -11.7586    2.1286    1.6138 N   0  0  0  0  0  0  0  0  0  0  0  0
  -12.3105    3.0087    0.5770 C   0  0  2  0  0  0  0  0  0  0  0  0
  -13.0607    2.2053   -0.4883 C   0  0  0  0  0  0  0  0  0  0  0  0
  -11.2195    3.8752   -0.0027 C   0  0  0  0  0  0  0  0  0  0  0  0
  -10.6007    3.5089   -1.0312 O   0  0  0  0  0  0  0  0  0  0  0  0
  -10.7848    5.0389    0.7113 N   0  0  0  0  0  0  0  0  0  0  0  0
   -9.3618    5.2626    0.9858 C   0  0  2  0  0  0  0  0  0  0  0  0
   -9.1662    6.3915    2.0056 C   0  0  0  0  0  0  0  0  0  0  0  0
   -8.6212    5.5780   -0.2862 C   0  0  0  0  0  0  0  0  0  0  0  0
   -8.8351    6.6679   -0.8846 O   0  0  0  0  0  0  0  0  0  0  0  0
   -7.7453    4.5889   -0.8582 N   0  0  0  0  0  0  0  0  0  0  0  0
   -6.4046    4.8457   -1.4030 C   0  0  1  0  0  0  0  0  0  0  0  0
   -6.2376    6.2636   -1.8960 C   0  0  0  0  0  0  0  0  0  0  0  0
   -6.4066    6.5725   -3.2798 N   0  0  0  0  0  0  0  0  0  0  0  0
   -5.9721    7.1928   -1.0824 O   0  0  0  0  0  0  0  0  0  0  0  0
   -5.3314    4.5037   -0.3556 C   0  0  0  0  0  0  0  0  0  0  0  0
   -5.3659    2.7165    0.0472 S   0  0  0  0  0  0  0  0  0  0  0  0
   -4.0594    2.7756    1.3190 C   0  0  0  0  0  0  0  0  0  0  0  0
    1.6552   10.3874   -1.0948 H   0  0  0  0  0  0  0  0  0  0  0  0
    1.9160    9.9916    0.6490 H   0  0  0  0  0  0  0  0  0  0  0  0
    3.3100   10.5300   -0.3735 H   0  0  0  0  0  0  0  0  0  0  0  0
    3.8045    8.1725    1.0465 H   0  0  0  0  0  0  0  0  0  0  0  0
    4.3331    5.9417    0.8699 H   0  0  0  0  0  0  0  0  0  0  0  0
    2.1318    5.6021   -1.2458 H   0  0  0  0  0  0  0  0  0  0  0  0
    2.9229    4.3525   -0.2584 H   0  0  0  0  0  0  0  0  0  0  0  0
   -0.7890    6.4560    0.6542 H   0  0  0  0  0  0  0  0  0  0  0  0
    0.0271    6.1005   -0.8739 H   0  0  0  0  0  0  0  0  0  0  0  0
   -2.4619    4.9785    1.3567 H   0  0  0  0  0  0  0  0  0  0  0  0
   -2.7049    0.9832   -0.1619 H   0  0  0  0  0  0  0  0  0  0  0  0
    0.6533    3.4843   -1.2037 H   0  0  0  0  0  0  0  0  0  0  0  0
    0.7212    0.7919   -1.2545 H   0  0  0  0  0  0  0  0  0  0  0  0
   -0.1804    1.4322   -2.6621 H   0  0  0  0  0  0  0  0  0  0  0  0
   -0.4942   -0.7542    0.5126 H   0  0  0  0  0  0  0  0  0  0  0  0
    0.5764   -1.6038   -0.6585 H   0  0  0  0  0  0  0  0  0  0  0  0
   -1.2910   -3.2575   -1.0855 H   0  0  0  0  0  0  0  0  0  0  0  0
   -0.5837   -3.3671    1.8452 H   0  0  0  0  0  0  0  0  0  0  0  0
    0.2370   -6.1826    0.2211 H   0  0  0  0  0  0  0  0  0  0  0  0
   -0.7517   -5.3049   -1.7528 H   0  0  0  0  0  0  0  0  0  0  0  0
    0.6918   -6.1530   -2.3577 H   0  0  0  0  0  0  0  0  0  0  0  0
    0.7312   -4.3535   -2.2082 H   0  0  0  0  0  0  0  0  0  0  0  0
    3.0337   -5.2735   -0.5944 H   0  0  0  0  0  0  0  0  0  0  0  0
    4.5034   -6.7085    0.6813 H   0  0  0  0  0  0  0  0  0  0  0  0
    4.3708   -7.8584    2.8666 H   0  0  0  0  0  0  0  0  0  0  0  0
    2.9305   -6.8034    2.6210 H   0  0  0  0  0  0  0  0  0  0  0  0
    2.7879   -8.5988    2.4161 H   0  0  0  0  0  0  0  0  0  0  0  0
    3.8894   -9.6393    0.1241 H   0  0  0  0  0  0  0  0  0  0  0  0
    6.4606   -7.4407    1.6537 H   0  0  0  0  0  0  0  0  0  0  0  0
    8.1433   -9.2832    1.8455 H   0  0  0  0  0  0  0  0  0  0  0  0
    8.8819   -7.6729    1.5252 H   0  0  0  0  0  0  0  0  0  0  0  0
    8.7536   -8.8741    0.1877 H   0  0  0  0  0  0  0  0  0  0  0  0
    7.0673   -7.2070   -1.3110 H   0  0  0  0  0  0  0  0  0  0  0  0
    9.5141   -5.2990    0.3619 H   0  0  0  0  0  0  0  0  0  0  0  0
   10.1954   -5.2351   -2.0979 H   0  0  0  0  0  0  0  0  0  0  0  0
    9.4924   -6.7949   -1.5483 H   0  0  0  0  0  0  0  0  0  0  0  0
    8.4958   -5.6402   -2.5321 H   0  0  0  0  0  0  0  0  0  0  0  0
    8.0320   -3.2590   -1.3640 H   0  0  0  0  0  0  0  0  0  0  0  0
   10.3845   -3.7063    1.6674 H   0  0  0  0  0  0  0  0  0  0  0  0
   11.5723   -4.6005   -0.2444 H   0  0  0  0  0  0  0  0  0  0  0  0
   12.0055   -2.9697   -0.8454 H   0  0  0  0  0  0  0  0  0  0  0  0
   12.7584   -3.6417    0.6656 H   0  0  0  0  0  0  0  0  0  0  0  0
   10.5301   -1.4463    2.4546 H   0  0  0  0  0  0  0  0  0  0  0  0
   13.0826    0.7747    0.9699 H   0  0  0  0  0  0  0  0  0  0  0  0
   14.9137   -0.7291    0.4047 H   0  0  0  0  0  0  0  0  0  0  0  0
   14.2927    0.1083   -1.0636 H   0  0  0  0  0  0  0  0  0  0  0  0
   13.8747   -1.6215   -0.7726 H   0  0  0  0  0  0  0  0  0  0  0  0
   11.5227   -0.7175   -1.1526 H   0  0  0  0  0  0  0  0  0  0  0  0
    9.3394    1.4267    0.5881 H   0  0  0  0  0  0  0  0  0  0  0  0
   11.0918    1.1268    2.2436 H   0  0  0  0  0  0  0  0  0  0  0  0
   11.9575    2.6256    1.6755 H   0  0  0  0  0  0  0  0  0  0  0  0
   10.3440    2.7284    2.4700 H   0  0  0  0  0  0  0  0  0  0  0  0
    8.8659    3.5950    0.0133 H   0  0  0  0  0  0  0  0  0  0  0  0
    9.8047    6.0330    0.5677 H   0  0  0  0  0  0  0  0  0  0  0  0
   12.1781    6.6928   -1.2816 H   0  0  0  0  0  0  0  0  0  0  0  0
   11.2122    7.8499   -0.2791 H   0  0  0  0  0  0  0  0  0  0  0  0
   12.2216    6.5944    0.5251 H   0  0  0  0  0  0  0  0  0  0  0  0
   10.0319    6.0737   -2.4850 H   0  0  0  0  0  0  0  0  0  0  0  0
    7.7092    5.4652    0.2715 H   0  0  0  0  0  0  0  0  0  0  0  0
    6.3657    8.2012   -0.1366 H   0  0  0  0  0  0  0  0  0  0  0  0
    6.2914    7.1245    1.3234 H   0  0  0  0  0  0  0  0  0  0  0  0
    7.8413    7.8805    0.8499 H   0  0  0  0  0  0  0  0  0  0  0  0
    6.2492    4.6888   -1.5626 H   0  0  0  0  0  0  0  0  0  0  0  0
   -4.6355   -2.6391   -0.1491 H   0  0  0  0  0  0  0  0  0  0  0  0
   -2.7110   -4.9922   -0.3556 H   0  0  0  0  0  0  0  0  0  0  0  0
   -4.7018   -3.9710   -2.4606 H   0  0  0  0  0  0  0  0  0  0  0  0
   -4.0967   -5.6794   -2.4236 H   0  0  0  0  0  0  0  0  0  0  0  0
   -2.9477   -4.3135   -2.6101 H   0  0  0  0  0  0  0  0  0  0  0  0
   -6.3111   -5.2459    1.5525 H   0  0  0  0  0  0  0  0  0  0  0  0
   -6.4909   -3.8283   -1.1496 H   0  0  0  0  0  0  0  0  0  0  0  0
   -8.2526   -2.4540   -0.1059 H   0  0  0  0  0  0  0  0  0  0  0  0
   -8.0481   -3.3387    1.4594 H   0  0  0  0  0  0  0  0  0  0  0  0
   -6.7238   -2.2979    0.8246 H   0  0  0  0  0  0  0  0  0  0  0  0
   -9.3263   -4.6341   -2.2132 H   0  0  0  0  0  0  0  0  0  0  0  0
  -10.2464   -4.4889    0.6813 H   0  0  0  0  0  0  0  0  0  0  0  0
  -10.6204   -6.7885   -0.0774 H   0  0  0  0  0  0  0  0  0  0  0  0
  -11.4576   -6.2068   -1.5730 H   0  0  0  0  0  0  0  0  0  0  0  0
  -12.2000   -5.9383    0.0576 H   0  0  0  0  0  0  0  0  0  0  0  0
  -12.7856   -1.9746   -0.4100 H   0  0  0  0  0  0  0  0  0  0  0  0
  -12.1646   -3.7920    1.7825 H   0  0  0  0  0  0  0  0  0  0  0  0
  -14.2003   -2.4236    1.7455 H   0  0  0  0  0  0  0  0  0  0  0  0
  -13.2319   -0.9121    1.9325 H   0  0  0  0  0  0  0  0  0  0  0  0
  -13.2349   -2.1592    3.2323 H   0  0  0  0  0  0  0  0  0  0  0  0
   -9.1035   -0.8713    1.9291 H   0  0  0  0  0  0  0  0  0  0  0  0
  -11.6779   -0.1777    0.4350 H   0  0  0  0  0  0  0  0  0  0  0  0
   -8.7245    0.0697   -0.3929 H   0  0  0  0  0  0  0  0  0  0  0  0
  -10.0741   -0.7727   -1.2555 H   0  0  0  0  0  0  0  0  0  0  0  0
  -10.0229    1.0215   -1.1612 H   0  0  0  0  0  0  0  0  0  0  0  0
  -12.0402    2.3256    2.6021 H   0  0  0  0  0  0  0  0  0  0  0  0
  -13.0584    3.6794    1.0487 H   0  0  0  0  0  0  0  0  0  0  0  0
  -12.3712    1.5701   -1.0789 H   0  0  0  0  0  0  0  0  0  0  0  0
  -13.5846    2.8942   -1.1860 H   0  0  0  0  0  0  0  0  0  0  0  0
  -13.8217    1.5556   -0.0057 H   0  0  0  0  0  0  0  0  0  0  0  0
  -11.5010    5.5966    1.2309 H   0  0  0  0  0  0  0  0  0  0  0  0
   -8.9361    4.3373    1.4331 H   0  0  0  0  0  0  0  0  0  0  0  0
   -8.0819    6.5097    2.2317 H   0  0  0  0  0  0  0  0  0  0  0  0
   -9.6939    6.1469    2.9529 H   0  0  0  0  0  0  0  0  0  0  0  0
   -9.5642    7.3518    1.6117 H   0  0  0  0  0  0  0  0  0  0  0  0
   -7.9784    3.5894   -0.6654 H   0  0  0  0  0  0  0  0  0  0  0  0
   -6.2573    4.1723   -2.2780 H   0  0  0  0  0  0  0  0  0  0  0  0
   -6.5496    5.8196   -3.9870 H   0  0  0  0  0  0  0  0  0  0  0  0
   -6.3150    7.5615   -3.6121 H   0  0  0  0  0  0  0  0  0  0  0  0
   -5.5168    5.0958    0.5656 H   0  0  0  0  0  0  0  0  0  0  0  0
   -4.3316    4.7586   -0.7624 H   0  0  0  0  0  0  0  0  0  0  0  0
   -4.2742    3.5792    2.0540 H   0  0  0  0  0  0  0  0  0  0  0  0
   -4.0722    1.8146    1.8759 H   0  0  0  0  0  0  0  0  0  0  0  0
  1  2  1  0
  2  3  2  0
  2  4  1  0
  4  5  1  0
  5  6  1  0
  6  7  1  0
  7  8  1  0
  8  9  1  0
  9 10  1  0
 10 11  2  0
 11 12  1  0
 12 13  2  0
 13 14  1  0
 13 15  1  0
 15 16  1  0
 16 17  1  0
 17 18  1  0
 18 19  1  0
 19 20  1  0
 20 21  2  0
 20 22  1  0
 22 23  1  0
 22 24  1  0
 24 25  1  0
 25 26  2  0
 25 27  1  0
 27 28  1  0
 27 29  1  0
 29 30  1  0
 30 31  2  0
 30 32  1  0
 32 33  1  0
 32 34  1  0
 34 35  1  0
 35 36  2  0
 35 37  1  0
 37 38  1  0
 37 39  1  0
 39 40  1  0
 40 41  2  0
 40 42  1  0
 42 43  1  0
 42 44  1  0
 44 45  1  0
 45 46  2  0
 45 47  1  0
 47 48  1  0
 47 49  1  0
 49 50  1  0
 50 51  2  0
 50 52  1  0
 52 53  1  0
 52 54  1  0
 54 55  1  0
 55 56  2  0
 55 57  1  0
 57 58  1  0
 57 59  1  0
 59 60  1  0
 60 61  2  0
 60 62  1  0
 62 63  1  0
 62 64  1  0
 64 65  1  0
 65 66  2  0
 18 67  1  0
 67 68  2  0
 67 69  1  0
 69 70  1  0
 70 71  1  0
 70 72  1  0
 72 73  2  0
 72 74  1  0
 74 75  1  0
 75 76  1  0
 75 77  1  0
 77 78  2  0
 77 79  1  0
 79 80  1  0
 80 81  1  0
 80 82  1  0
 82 83  2  0
 82 84  1  0
 84 85  1  0
 85 86  1  0
 85 87  1  0
 87 88  2  0
 87 89  1  0
 89 90  1  0
 90 91  1  0
 90 92  1  0
 92 93  2  0
 92 94  1  0
 94 95  1  0
 95 96  1  0
 95 97  1  0
 97 98  2  0
 97 99  1  0
 99100  1  0
100101  1  0
100102  1  0
102103  2  0
102104  1  0
104105  1  0
105106  1  0
106107  1  0
106108  2  0
105109  1  0
109110  1  0
110111  1  0
 65  5  1  0
 14  9  2  0
111 11  1  0
  1112  1  0
  1113  1  0
  1114  1  0
  4115  1  0
  5116  1  1
  6117  1  0
  6118  1  0
  8119  1  0
  8120  1  0
 10121  1  0
 12122  1  0
 14123  1  0
 15124  1  0
 15125  1  0
 17126  1  0
 17127  1  0
 18128  1  6
 19129  1  0
 22130  1  1
 23131  1  0
 23132  1  0
 23133  1  0
 24134  1  0
 27135  1  1
 28136  1  0
 28137  1  0
 28138  1  0
 29139  1  0
 32140  1  1
 33141  1  0
 33142  1  0
 33143  1  0
 34144  1  0
 37145  1  1
 38146  1  0
 38147  1  0
 38148  1  0
 39149  1  0
 42150  1  1
 43151  1  0
 43152  1  0
 43153  1  0
 44154  1  0
 47155  1  1
 48156  1  0
 48157  1  0
 48158  1  0
 49159  1  0
 52160  1  1
 53161  1  0
 53162  1  0
 53163  1  0
 54164  1  0
 57165  1  1
 58166  1  0
 58167  1  0
 58168  1  0
 59169  1  0
 62170  1  1
 63171  1  0
 63172  1  0
 63173  1  0
 64174  1  0
 69175  1  0
 70176  1  6
 71177  1  0
 71178  1  0
 71179  1  0
 74180  1  0
 75181  1  6
 76182  1  0
 76183  1  0
 76184  1  0
 79185  1  0
 80186  1  1
 81187  1  0
 81188  1  0
 81189  1  0
 84190  1  0
 85191  1  6
 86192  1  0
 86193  1  0
 86194  1  0
 89195  1  0
 90196  1  6
 91197  1  0
 91198  1  0
 91199  1  0
 94200  1  0
 95201  1  1
 96202  1  0
 96203  1  0
 96204  1  0
 99205  1  0
100206  1  1
101207  1  0
101208  1  0
101209  1  0
104210  1  0
105211  1  6
107212  1  0
107213  1  0
109214  1  0
109215  1  0
111216  1  0
111217  1  0
M  END
