
     RDKit          3D

197199  0  0  0  0  0  0  0  0999 V2000
    1.0225    9.2123    1.0498 C   0  0  0  0  0  0  0  0  0  0  0  0
    1.2488    9.3589   -0.4219 C   0  0  0  0  0  0  0  0  0  0  0  0
    1.0809   10.4936   -0.9523 O   0  0  0  0  0  0  0  0  0  0  0  0
    1.6397    8.2531   -1.2528 N   0  0  0  0  0  0  0  0  0  0  0  0
    1.9547    6.9162   -0.7390 C   0  0  1  0  0  0  0  0  0  0  0  0
    0.9695    5.8854   -1.3182 C   0  0  0  0  0  0  0  0  0  0  0  0
    1.3904    4.1370   -0.9185 S   0  0  0  0  0  0  0  0  0  0  0  0
    1.0443    4.1789    0.8800 C   0  0  0  0  0  0  0  0  0  0  0  0
   -0.2865    3.5588    1.1896 C   0  0  0  0  0  0  0  0  0  0  0  0
   -0.3884    2.1756    1.4068 C   0  0  0  0  0  0  0  0  0  0  0  0
   -1.6323    1.5804    1.6618 C   0  0  0  0  0  0  0  0  0  0  0  0
   -2.7699    2.3896    1.7598 C   0  0  0  0  0  0  0  0  0  0  0  0
   -2.6954    3.7673    1.5055 C   0  0  0  0  0  0  0  0  0  0  0  0
   -1.4515    4.3416    1.2033 C   0  0  0  0  0  0  0  0  0  0  0  0
   -3.9471    4.6036    1.4705 C   0  0  0  0  0  0  0  0  0  0  0  0
   -5.0554    3.9902    0.1574 S   0  0  0  0  0  0  0  0  0  0  0  0
   -6.2892    5.3344    0.3094 C   0  0  0  0  0  0  0  0  0  0  0  0
   -7.3775    5.0140    1.3460 C   0  0  1  0  0  0  0  0  0  0  0  0
   -8.1901    6.2616    1.6143 C   0  0  0  0  0  0  0  0  0  0  0  0
   -8.9030    6.9060    0.5613 N   0  0  0  0  0  0  0  0  0  0  0  0
   -8.2657    6.7126    2.7930 O   0  0  0  0  0  0  0  0  0  0  0  0
   -8.2215    3.9114    0.8644 N   0  0  0  0  0  0  0  0  0  0  0  0
   -9.5912    3.7204    1.2548 C   0  0  0  0  0  0  0  0  0  0  0  0
   -9.9798    4.1150    2.3875 O   0  0  0  0  0  0  0  0  0  0  0  0
  -10.5999    3.1321    0.3037 C   0  0  1  0  0  0  0  0  0  0  0  0
  -11.3576    4.2654   -0.3980 C   0  0  0  0  0  0  0  0  0  0  0  0
   -9.9601    2.2912   -0.7132 N   0  0  0  0  0  0  0  0  0  0  0  0
  -10.4097    0.9835   -1.1252 C   0  0  0  0  0  0  0  0  0  0  0  0
  -10.0014    0.5405   -2.2377 O   0  0  0  0  0  0  0  0  0  0  0  0
  -11.4088    0.1706   -0.3201 C   0  0  1  0  0  0  0  0  0  0  0  0
  -12.8358    0.6071   -0.7025 C   0  0  0  0  0  0  0  0  0  0  0  0
  -11.2430   -1.2691   -0.5646 N   0  0  0  0  0  0  0  0  0  0  0  0
  -12.0403   -2.2478    0.1191 C   0  0  0  0  0  0  0  0  0  0  0  0
  -12.4851   -2.0108    1.2756 O   0  0  0  0  0  0  0  0  0  0  0  0
  -12.3314   -3.5887   -0.5266 C   0  0  1  0  0  0  0  0  0  0  0  0
  -12.8305   -3.3759   -1.9623 C   0  0  0  0  0  0  0  0  0  0  0  0
  -11.1516   -4.4677   -0.5400 N   0  0  0  0  0  0  0  0  0  0  0  0
  -10.0662   -4.3424    0.3877 C   0  0  0  0  0  0  0  0  0  0  0  0
  -10.3218   -4.3212    1.6208 O   0  0  0  0  0  0  0  0  0  0  0  0
   -8.6227   -4.3467   -0.0786 C   0  0  1  0  0  0  0  0  0  0  0  0
   -8.5109   -4.0357   -1.5869 C   0  0  0  0  0  0  0  0  0  0  0  0
   -7.8512   -3.3650    0.7041 N   0  0  0  0  0  0  0  0  0  0  0  0
   -6.5175   -2.9024    0.3947 C   0  0  0  0  0  0  0  0  0  0  0  0
   -6.3035   -1.6599    0.4327 O   0  0  0  0  0  0  0  0  0  0  0  0
   -5.3214   -3.8045    0.1496 C   0  0  1  0  0  0  0  0  0  0  0  0
   -5.5928   -5.3081    0.2456 C   0  0  0  0  0  0  0  0  0  0  0  0
   -4.7287   -3.4808   -1.1521 N   0  0  0  0  0  0  0  0  0  0  0  0
   -3.3734   -3.8115   -1.4690 C   0  0  0  0  0  0  0  0  0  0  0  0
   -3.1635   -4.7377   -2.2993 O   0  0  0  0  0  0  0  0  0  0  0  0
   -2.1951   -3.0020   -0.9690 C   0  0  1  0  0  0  0  0  0  0  0  0
   -2.5221   -1.9544    0.1144 C   0  0  0  0  0  0  0  0  0  0  0  0
   -1.2619   -0.6364    0.1274 S   0  0  0  0  0  0  0  0  0  0  0  0
   -1.7383    0.0849    1.7348 C   0  0  0  0  0  0  0  0  0  0  0  0
   -1.1047   -3.8893   -0.5393 N   0  0  0  0  0  0  0  0  0  0  0  0
   -1.2979   -4.9462    0.4266 C   0  0  0  0  0  0  0  0  0  0  0  0
   -2.1880   -4.8471    1.3095 O   0  0  0  0  0  0  0  0  0  0  0  0
   -0.5232   -6.2349    0.3110 C   0  0  1  0  0  0  0  0  0  0  0  0
   -1.0221   -7.0086   -0.9198 C   0  0  0  0  0  0  0  0  0  0  0  0
    0.9126   -5.9495    0.2268 N   0  0  0  0  0  0  0  0  0  0  0  0
    1.8497   -6.9459   -0.1904 C   0  0  0  0  0  0  0  0  0  0  0  0
    2.0125   -7.9805    0.5140 O   0  0  0  0  0  0  0  0  0  0  0  0
    2.5495   -6.8133   -1.5202 C   0  0  1  0  0  0  0  0  0  0  0  0
    3.1570   -5.4204   -1.7350 C   0  0  0  0  0  0  0  0  0  0  0  0
    3.5354   -7.8801   -1.7321 N   0  0  0  0  0  0  0  0  0  0  0  0
    4.8481   -7.9753   -1.1489 C   0  0  0  0  0  0  0  0  0  0  0  0
    5.7246   -8.6502   -1.7588 O   0  0  0  0  0  0  0  0  0  0  0  0
    5.2141   -7.3777    0.1898 C   0  0  1  0  0  0  0  0  0  0  0  0
    5.3442   -8.5076    1.2208 C   0  0  0  0  0  0  0  0  0  0  0  0
    6.4774   -6.6437    0.0548 N   0  0  0  0  0  0  0  0  0  0  0  0
    7.3059   -6.2642    1.1619 C   0  0  0  0  0  0  0  0  0  0  0  0
    6.7687   -5.8935    2.2401 O   0  0  0  0  0  0  0  0  0  0  0  0
    8.8059   -6.4340    1.0944 C   0  0  1  0  0  0  0  0  0  0  0  0
    9.3528   -6.5511   -0.3335 C   0  0  0  0  0  0  0  0  0  0  0  0
    9.5083   -5.3990    1.8673 N   0  0  0  0  0  0  0  0  0  0  0  0
    9.2351   -3.9840    1.8183 C   0  0  0  0  0  0  0  0  0  0  0  0
    9.0380   -3.3722    2.9040 O   0  0  0  0  0  0  0  0  0  0  0  0
    9.2148   -3.2173    0.5211 C   0  0  1  0  0  0  0  0  0  0  0  0
    7.7822   -2.8517    0.1288 C   0  0  0  0  0  0  0  0  0  0  0  0
   10.0133   -1.9960    0.6437 N   0  0  0  0  0  0  0  0  0  0  0  0
   10.6832   -1.3962   -0.4775 C   0  0  0  0  0  0  0  0  0  0  0  0
   10.7442   -2.0090   -1.5723 O   0  0  0  0  0  0  0  0  0  0  0  0
   11.3299   -0.0399   -0.3318 C   0  0  1  0  0  0  0  0  0  0  0  0
   12.7257   -0.1875    0.2707 C   0  0  0  0  0  0  0  0  0  0  0  0
   11.4118    0.6349   -1.6325 N   0  0  0  0  0  0  0  0  0  0  0  0
   10.7003    1.8389   -1.9652 C   0  0  0  0  0  0  0  0  0  0  0  0
   10.2909    1.9829   -3.1507 O   0  0  0  0  0  0  0  0  0  0  0  0
   10.5554    2.9834   -0.9906 C   0  0  1  0  0  0  0  0  0  0  0  0
   11.6707    4.0071   -1.2129 C   0  0  0  0  0  0  0  0  0  0  0  0
    9.2571    3.6359   -1.1674 N   0  0  0  0  0  0  0  0  0  0  0  0
    8.2866    3.6557   -0.1139 C   0  0  0  0  0  0  0  0  0  0  0  0
    7.9594    2.5710    0.4418 O   0  0  0  0  0  0  0  0  0  0  0  0
    7.7266    4.9549    0.4222 C   0  0  1  0  0  0  0  0  0  0  0  0
    8.5916    5.4314    1.5896 C   0  0  0  0  0  0  0  0  0  0  0  0
    7.6667    5.9919   -0.6155 N   0  0  0  0  0  0  0  0  0  0  0  0
    6.5466    6.8648   -0.8282 C   0  0  0  0  0  0  0  0  0  0  0  0
    6.4588    7.4764   -1.9330 O   0  0  0  0  0  0  0  0  0  0  0  0
    5.5185    7.1212    0.2440 C   0  0  1  0  0  0  0  0  0  0  0  0
    5.1671    8.6102    0.3557 C   0  0  0  0  0  0  0  0  0  0  0  0
    4.3078    6.3188    0.0313 N   0  0  0  0  0  0  0  0  0  0  0  0
    3.3903    6.5852   -1.0467 C   0  0  0  0  0  0  0  0  0  0  0  0
    3.7997    6.5611   -2.2392 O   0  0  0  0  0  0  0  0  0  0  0  0
    0.7012   10.1811    1.4973 H   0  0  0  0  0  0  0  0  0  0  0  0
    1.9639    8.8972    1.5431 H   0  0  0  0  0  0  0  0  0  0  0  0
    0.2268    8.4578    1.2415 H   0  0  0  0  0  0  0  0  0  0  0  0
    1.7326    8.4308   -2.2742 H   0  0  0  0  0  0  0  0  0  0  0  0
    1.8460    6.9082    0.3489 H   0  0  0  0  0  0  0  0  0  0  0  0
    0.9631    5.9743   -2.4253 H   0  0  0  0  0  0  0  0  0  0  0  0
   -0.0593    6.1151   -0.9808 H   0  0  0  0  0  0  0  0  0  0  0  0
    1.0694    5.1951    1.3099 H   0  0  0  0  0  0  0  0  0  0  0  0
    1.8488    3.6050    1.3889 H   0  0  0  0  0  0  0  0  0  0  0  0
    0.5039    1.5594    1.3440 H   0  0  0  0  0  0  0  0  0  0  0  0
   -3.7319    1.9406    1.9833 H   0  0  0  0  0  0  0  0  0  0  0  0
   -1.3776    5.4042    0.9996 H   0  0  0  0  0  0  0  0  0  0  0  0
   -3.6862    5.6579    1.2534 H   0  0  0  0  0  0  0  0  0  0  0  0
   -4.4571    4.5543    2.4517 H   0  0  0  0  0  0  0  0  0  0  0  0
   -6.7684    5.4563   -0.6960 H   0  0  0  0  0  0  0  0  0  0  0  0
   -5.7816    6.2957    0.5380 H   0  0  0  0  0  0  0  0  0  0  0  0
   -6.8802    4.6982    2.2896 H   0  0  0  0  0  0  0  0  0  0  0  0
   -9.3787    7.8117    0.7401 H   0  0  0  0  0  0  0  0  0  0  0  0
   -8.8760    6.5305   -0.4097 H   0  0  0  0  0  0  0  0  0  0  0  0
   -7.7476    3.1023    0.4077 H   0  0  0  0  0  0  0  0  0  0  0  0
  -11.3374    2.5550    0.9010 H   0  0  0  0  0  0  0  0  0  0  0  0
  -11.9249    4.8737    0.3381 H   0  0  0  0  0  0  0  0  0  0  0  0
  -12.0766    3.8455   -1.1318 H   0  0  0  0  0  0  0  0  0  0  0  0
  -10.6499    4.9192   -0.9419 H   0  0  0  0  0  0  0  0  0  0  0  0
   -9.2675    2.7547   -1.3447 H   0  0  0  0  0  0  0  0  0  0  0  0
  -11.2405    0.3529    0.7563 H   0  0  0  0  0  0  0  0  0  0  0  0
  -13.0677    0.3122   -1.7528 H   0  0  0  0  0  0  0  0  0  0  0  0
  -12.9598    1.7069   -0.6035 H   0  0  0  0  0  0  0  0  0  0  0  0
  -13.5747    0.1296   -0.0326 H   0  0  0  0  0  0  0  0  0  0  0  0
  -10.6400   -1.6095   -1.3419 H   0  0  0  0  0  0  0  0  0  0  0  0
  -13.1478   -4.0977    0.0402 H   0  0  0  0  0  0  0  0  0  0  0  0
  -13.2400   -4.3248   -2.3661 H   0  0  0  0  0  0  0  0  0  0  0  0
  -12.0047   -3.0405   -2.6255 H   0  0  0  0  0  0  0  0  0  0  0  0
  -13.6414   -2.6142   -1.9890 H   0  0  0  0  0  0  0  0  0  0  0  0
  -11.1602   -5.2921   -1.1841 H   0  0  0  0  0  0  0  0  0  0  0  0
   -8.2384   -5.3720    0.1008 H   0  0  0  0  0  0  0  0  0  0  0  0
   -7.4724   -4.1939   -1.9390 H   0  0  0  0  0  0  0  0  0  0  0  0
   -8.7988   -2.9844   -1.7854 H   0  0  0  0  0  0  0  0  0  0  0  0
   -9.1495   -4.7172   -2.1852 H   0  0  0  0  0  0  0  0  0  0  0  0
   -8.3688   -2.7506    1.3731 H   0  0  0  0  0  0  0  0  0  0  0  0
   -4.5835   -3.5682    0.9506 H   0  0  0  0  0  0  0  0  0  0  0  0
   -6.1410   -5.5522    1.1824 H   0  0  0  0  0  0  0  0  0  0  0  0
   -6.1511   -5.6757   -0.6421 H   0  0  0  0  0  0  0  0  0  0  0  0
   -4.6256   -5.8566    0.2761 H   0  0  0  0  0  0  0  0  0  0  0  0
   -5.3775   -3.3975   -1.9661 H   0  0  0  0  0  0  0  0  0  0  0  0
   -1.8503   -2.4383   -1.8563 H   0  0  0  0  0  0  0  0  0  0  0  0
   -2.5560   -2.4170    1.1230 H   0  0  0  0  0  0  0  0  0  0  0  0
   -3.5020   -1.4697   -0.0848 H   0  0  0  0  0  0  0  0  0  0  0  0
   -1.0394   -0.2921    2.5163 H   0  0  0  0  0  0  0  0  0  0  0  0
   -2.7774   -0.2061    2.0211 H   0  0  0  0  0  0  0  0  0  0  0  0
   -0.3077   -3.9903   -1.1977 H   0  0  0  0  0  0  0  0  0  0  0  0
   -0.6996   -6.8494    1.2132 H   0  0  0  0  0  0  0  0  0  0  0  0
   -0.7369   -6.4760   -1.8588 H   0  0  0  0  0  0  0  0  0  0  0  0
   -0.5703   -8.0226   -0.9407 H   0  0  0  0  0  0  0  0  0  0  0  0
   -2.1283   -7.1254   -0.8861 H   0  0  0  0  0  0  0  0  0  0  0  0
    1.2924   -5.2138    0.8676 H   0  0  0  0  0  0  0  0  0  0  0  0
    1.7593   -6.9297   -2.2899 H   0  0  0  0  0  0  0  0  0  0  0  0
    3.8167   -5.1242   -0.8972 H   0  0  0  0  0  0  0  0  0  0  0  0
    3.7410   -5.3954   -2.6797 H   0  0  0  0  0  0  0  0  0  0  0  0
    2.3472   -4.6643   -1.8155 H   0  0  0  0  0  0  0  0  0  0  0  0
    3.3149   -8.5770   -2.4825 H   0  0  0  0  0  0  0  0  0  0  0  0
    4.4342   -6.6839    0.5566 H   0  0  0  0  0  0  0  0  0  0  0  0
    5.4684   -8.1022    2.2503 H   0  0  0  0  0  0  0  0  0  0  0  0
    4.4307   -9.1463    1.2173 H   0  0  0  0  0  0  0  0  0  0  0  0
    6.2198   -9.1506    0.9847 H   0  0  0  0  0  0  0  0  0  0  0  0
    6.6371   -6.1287   -0.8476 H   0  0  0  0  0  0  0  0  0  0  0  0
    9.0212   -7.4120    1.5824 H   0  0  0  0  0  0  0  0  0  0  0  0
   10.4630   -6.4866   -0.3306 H   0  0  0  0  0  0  0  0  0  0  0  0
    8.9453   -5.7696   -1.0058 H   0  0  0  0  0  0  0  0  0  0  0  0
    9.0717   -7.5402   -0.7579 H   0  0  0  0  0  0  0  0  0  0  0  0
   10.0442   -5.7350    2.7019 H   0  0  0  0  0  0  0  0  0  0  0  0
    9.6644   -3.8430   -0.2703 H   0  0  0  0  0  0  0  0  0  0  0  0
    7.7931   -2.2714   -0.8190 H   0  0  0  0  0  0  0  0  0  0  0  0
    7.1713   -3.7638   -0.0309 H   0  0  0  0  0  0  0  0  0  0  0  0
    7.3136   -2.2272    0.9136 H   0  0  0  0  0  0  0  0  0  0  0  0
    9.8996   -1.4059    1.4991 H   0  0  0  0  0  0  0  0  0  0  0  0
   10.7002    0.5394    0.3729 H   0  0  0  0  0  0  0  0  0  0  0  0
   13.2150    0.8084    0.3563 H   0  0  0  0  0  0  0  0  0  0  0  0
   12.6592   -0.6369    1.2817 H   0  0  0  0  0  0  0  0  0  0  0  0
   13.3582   -0.8429   -0.3657 H   0  0  0  0  0  0  0  0  0  0  0  0
   11.9030    0.1389   -2.4162 H   0  0  0  0  0  0  0  0  0  0  0  0
   10.6564    2.6365    0.0527 H   0  0  0  0  0  0  0  0  0  0  0  0
   11.6554    4.3875   -2.2603 H   0  0  0  0  0  0  0  0  0  0  0  0
   11.5364    4.8660   -0.5205 H   0  0  0  0  0  0  0  0  0  0  0  0
   12.6652    3.5472   -1.0109 H   0  0  0  0  0  0  0  0  0  0  0  0
    9.0798    4.1904   -2.0337 H   0  0  0  0  0  0  0  0  0  0  0  0
    6.7028    4.7382    0.8037 H   0  0  0  0  0  0  0  0  0  0  0  0
    8.5932    4.6719    2.3981 H   0  0  0  0  0  0  0  0  0  0  0  0
    8.1905    6.3784    2.0043 H   0  0  0  0  0  0  0  0  0  0  0  0
    9.6371    5.6038    1.2586 H   0  0  0  0  0  0  0  0  0  0  0  0
    8.5352    6.2030   -1.1558 H   0  0  0  0  0  0  0  0  0  0  0  0
    5.9440    6.8424    1.2278 H   0  0  0  0  0  0  0  0  0  0  0  0
    6.0880    9.1990    0.5767 H   0  0  0  0  0  0  0  0  0  0  0  0
    4.4467    8.7640    1.1869 H   0  0  0  0  0  0  0  0  0  0  0  0
    4.7134    8.9898   -0.5837 H   0  0  0  0  0  0  0  0  0  0  0  0
    3.9048    5.8696    0.8802 H   0  0  0  0  0  0  0  0  0  0  0  0
  1  2  1  0
  2  3  2  0
  2  4  1  0
  4  5  1  0
  5  6  1  0
  6  7  1  0
  7  8  1  0
  8  9  1  0
  9 10  1  0
 10 11  2  0
 11 12  1  0
 12 13  2  0
 13 14  1  0
 13 15  1  0
 15 16  1  0
 16 17  1  0
 17 18  1  0
 18 19  1  0
 19 20  1  0
 19 21  2  0
 18 22  1  0
 22 23  1  0
 23 24  2  0
 23 25  1  0
 25 26  1  0
 25 27  1  0
 27 28  1  0
 28 29  2  0
 28 30  1  0
 30 31  1  0
 30 32  1  0
 32 33  1  0
 33 34  2  0
 33 35  1  0
 35 36  1  0
 35 37  1  0
 37 38  1  0
 38 39  2  0
 38 40  1  0
 40 41  1  0
 40 42  1  0
 42 43  1  0
 43 44  2  0
 43 45  1  0
 45 46  1  0
 45 47  1  0
 47 48  1  0
 48 49  2  0
 48 50  1  0
 50 51  1  0
 51 52  1  0
 52 53  1  0
 50 54  1  0
 54 55  1  0
 55 56  2  0
 55 57  1  0
 57 58  1  0
 57 59  1  0
 59 60  1  0
 60 61  2  0
 60 62  1  0
 62 63  1  0
 62 64  1  0
 64 65  1  0
 65 66  2  0
 65 67  1  0
 67 68  1  0
 67 69  1  0
 69 70  1  0
 70 71  2  0
 70 72  1  0
 72 73  1  0
 72 74  1  0
 74 75  1  0
 75 76  2  0
 75 77  1  0
 77 78  1  0
 77 79  1  0
 79 80  1  0
 80 81  2  0
 80 82  1  0
 82 83  1  0
 82 84  1  0
 84 85  1  0
 85 86  2  0
 85 87  1  0
 87 88  1  0
 87 89  1  0
 89 90  1  0
 90 91  2  0
 90 92  1  0
 92 93  1  0
 92 94  1  0
 94 95  1  0
 95 96  2  0
 95 97  1  0
 97 98  1  0
 97 99  1  0
 99100  1  0
100101  2  0
100  5  1  0
 14  9  2  0
 53 11  1  0
  1102  1  0
  1103  1  0
  1104  1  0
  4105  1  0
  5106  1  1
  6107  1  0
  6108  1  0
  8109  1  0
  8110  1  0
 10111  1  0
 12112  1  0
 14113  1  0
 15114  1  0
 15115  1  0
 17116  1  0
 17117  1  0
 18118  1  1
 20119  1  0
 20120  1  0
 22121  1  0
 25122  1  1
 26123  1  0
 26124  1  0
 26125  1  0
 27126  1  0
 30127  1  1
 31128  1  0
 31129  1  0
 31130  1  0
 32131  1  0
 35132  1  1
 36133  1  0
 36134  1  0
 36135  1  0
 37136  1  0
 40137  1  6
 41138  1  0
 41139  1  0
 41140  1  0
 42141  1  0
 45142  1  1
 46143  1  0
 46144  1  0
 46145  1  0
 47146  1  0
 50147  1  6
 51148  1  0
 51149  1  0
 53150  1  0
 53151  1  0
 54152  1  0
 57153  1  1
 58154  1  0
 58155  1  0
 58156  1  0
 59157  1  0
 62158  1  6
 63159  1  0
 63160  1  0
 63161  1  0
 64162  1  0
 67163  1  1
 68164  1  0
 68165  1  0
 68166  1  0
 69167  1  0
 72168  1  1
 73169  1  0
 73170  1  0
 73171  1  0
 74172  1  0
 77173  1  6
 78174  1  0
 78175  1  0
 78176  1  0
 79177  1  0
 82178  1  1
 83179  1  0
 83180  1  0
 83181  1  0
 84182  1  0
 87183  1  1
 88184  1  0
 88185  1  0
 88186  1  0
 89187  1  0
 92188  1  1
 93189  1  0
 93190  1  0
 93191  1  0
 94192  1  0
 97193  1  1
 98194  1  0
 98195  1  0
 98196  1  0
 99197  1  0
M  END
