
     RDKit          3D

207209  0  0  0  0  0  0  0  0999 V2000
    1.7409    9.0820    2.4628 C   0  0  0  0  0  0  0  0  0  0  0  0
    2.0410    7.8076    1.7351 C   0  0  0  0  0  0  0  0  0  0  0  0
    1.6953    6.7172    2.2555 O   0  0  0  0  0  0  0  0  0  0  0  0
    2.7280    7.8410    0.4735 N   0  0  0  0  0  0  0  0  0  0  0  0
    3.0972    6.6975   -0.3729 C   0  0  2  0  0  0  0  0  0  0  0  0
    1.9150    6.1872   -1.2163 C   0  0  0  0  0  0  0  0  0  0  0  0
    0.6148    5.3562   -0.2419 S   0  0  0  0  0  0  0  0  0  0  0  0
   -0.3198    4.7284   -1.6725 C   0  0  0  0  0  0  0  0  0  0  0  0
   -1.2396    3.6316   -1.2271 C   0  0  0  0  0  0  0  0  0  0  0  0
   -0.8708    2.2822   -1.3739 C   0  0  0  0  0  0  0  0  0  0  0  0
   -1.7396    1.2619   -0.9578 C   0  0  0  0  0  0  0  0  0  0  0  0
   -2.9926    1.5987   -0.4319 C   0  0  0  0  0  0  0  0  0  0  0  0
   -3.3698    2.9434   -0.2783 C   0  0  0  0  0  0  0  0  0  0  0  0
   -2.4859    3.9563   -0.6719 C   0  0  0  0  0  0  0  0  0  0  0  0
   -4.7380    3.2733    0.2465 C   0  0  0  0  0  0  0  0  0  0  0  0
   -6.0106    2.8454   -0.9998 S   0  0  0  0  0  0  0  0  0  0  0  0
   -5.9141    4.4163   -1.9323 C   0  0  0  0  0  0  0  0  0  0  0  0
   -6.8159    5.4974   -1.3012 C   0  0  1  0  0  0  0  0  0  0  0  0
   -6.1452    6.8457   -1.3481 C   0  0  0  0  0  0  0  0  0  0  0  0
   -5.7441    7.4992   -0.1427 N   0  0  0  0  0  0  0  0  0  0  0  0
   -5.9139    7.3925   -2.4581 O   0  0  0  0  0  0  0  0  0  0  0  0
   -8.0924    5.5643   -2.0297 N   0  0  0  0  0  0  0  0  0  0  0  0
   -9.3620    5.0484   -1.5837 C   0  0  0  0  0  0  0  0  0  0  0  0
  -10.3780    5.2569   -2.3032 O   0  0  0  0  0  0  0  0  0  0  0  0
   -9.5174    4.2665   -0.2914 C   0  0  1  0  0  0  0  0  0  0  0  0
   -9.7731    5.1942    0.9029 C   0  0  0  0  0  0  0  0  0  0  0  0
  -10.5641    3.2395   -0.4023 N   0  0  0  0  0  0  0  0  0  0  0  0
  -11.9730    3.5039   -0.3152 C   0  0  0  0  0  0  0  0  0  0  0  0
  -12.4436    4.6057   -0.7026 O   0  0  0  0  0  0  0  0  0  0  0  0
  -12.8970    2.4284    0.2047 C   0  0  1  0  0  0  0  0  0  0  0  0
  -14.1131    3.0256    0.9182 C   0  0  0  0  0  0  0  0  0  0  0  0
  -13.3417    1.5850   -0.9118 N   0  0  0  0  0  0  0  0  0  0  0  0
  -13.0067    0.1988   -1.0914 C   0  0  0  0  0  0  0  0  0  0  0  0
  -13.6469   -0.4704   -1.9490 O   0  0  0  0  0  0  0  0  0  0  0  0
  -11.9287   -0.4945   -0.2879 C   0  0  1  0  0  0  0  0  0  0  0  0
  -12.5432   -1.1524    0.9616 C   0  0  0  0  0  0  0  0  0  0  0  0
  -11.1979   -1.4454   -1.1337 N   0  0  0  0  0  0  0  0  0  0  0  0
  -11.4602   -2.8533   -1.1712 C   0  0  0  0  0  0  0  0  0  0  0  0
  -12.2560   -3.3057   -2.0342 O   0  0  0  0  0  0  0  0  0  0  0  0
  -10.7234   -3.7874   -0.2470 C   0  0  1  0  0  0  0  0  0  0  0  0
  -11.7090   -4.6880    0.5260 C   0  0  0  0  0  0  0  0  0  0  0  0
   -9.8012   -4.6232   -1.0232 N   0  0  0  0  0  0  0  0  0  0  0  0
   -8.3784   -4.7180   -0.8244 C   0  0  0  0  0  0  0  0  0  0  0  0
   -7.6903   -5.2639   -1.7279 O   0  0  0  0  0  0  0  0  0  0  0  0
   -7.6845   -4.1949    0.4227 C   0  0  1  0  0  0  0  0  0  0  0  0
   -8.1889   -4.8824    1.7075 C   0  0  0  0  0  0  0  0  0  0  0  0
   -6.2210   -4.3347    0.3196 N   0  0  0  0  0  0  0  0  0  0  0  0
   -5.5283   -5.5967    0.3636 C   0  0  0  0  0  0  0  0  0  0  0  0
   -6.1750   -6.6684    0.2413 O   0  0  0  0  0  0  0  0  0  0  0  0
   -4.0250   -5.6329    0.5134 C   0  0  1  0  0  0  0  0  0  0  0  0
   -3.5750   -6.8867    1.2777 C   0  0  0  0  0  0  0  0  0  0  0  0
   -3.4138   -5.6177   -0.8174 N   0  0  0  0  0  0  0  0  0  0  0  0
   -2.6655   -4.5230   -1.3764 C   0  0  0  0  0  0  0  0  0  0  0  0
   -2.7099   -4.3428   -2.6230 O   0  0  0  0  0  0  0  0  0  0  0  0
   -1.7862   -3.6006   -0.5561 C   0  0  1  0  0  0  0  0  0  0  0  0
   -2.5725   -2.3890   -0.0120 C   0  0  0  0  0  0  0  0  0  0  0  0
   -1.4148   -1.0477    0.4617 S   0  0  0  0  0  0  0  0  0  0  0  0
   -1.3763   -0.1825   -1.1516 C   0  0  0  0  0  0  0  0  0  0  0  0
   -1.1077   -4.3231    0.5210 N   0  0  0  0  0  0  0  0  0  0  0  0
   -0.0325   -5.2268    0.2531 C   0  0  0  0  0  0  0  0  0  0  0  0
   -0.2999   -6.3969   -0.1482 O   0  0  0  0  0  0  0  0  0  0  0  0
    1.4029   -4.8651    0.5411 C   0  0  1  0  0  0  0  0  0  0  0  0
    1.6031   -3.3515    0.6682 C   0  0  0  0  0  0  0  0  0  0  0  0
    1.8423   -5.5230    1.7755 N   0  0  0  0  0  0  0  0  0  0  0  0
    3.1644   -6.0498    1.9768 C   0  0  0  0  0  0  0  0  0  0  0  0
    3.7873   -5.7303    3.0234 O   0  0  0  0  0  0  0  0  0  0  0  0
    3.8425   -6.9771    0.9913 C   0  0  1  0  0  0  0  0  0  0  0  0
    2.8594   -7.9970    0.3907 C   0  0  0  0  0  0  0  0  0  0  0  0
    4.5273   -6.2207   -0.0615 N   0  0  0  0  0  0  0  0  0  0  0  0
    5.4197   -6.8342   -0.9985 C   0  0  0  0  0  0  0  0  0  0  0  0
    5.4154   -6.4229   -2.1939 O   0  0  0  0  0  0  0  0  0  0  0  0
    6.3873   -7.9268   -0.5722 C   0  0  1  0  0  0  0  0  0  0  0  0
    7.3741   -8.3273   -1.6767 C   0  0  0  0  0  0  0  0  0  0  0  0
    7.1178   -7.5657    0.6531 N   0  0  0  0  0  0  0  0  0  0  0  0
    8.1217   -6.5401    0.7899 C   0  0  0  0  0  0  0  0  0  0  0  0
    9.0069   -6.6823    1.6729 O   0  0  0  0  0  0  0  0  0  0  0  0
    8.0863   -5.2496   -0.0015 C   0  0  1  0  0  0  0  0  0  0  0  0
    7.4718   -4.1088    0.8341 C   0  0  0  0  0  0  0  0  0  0  0  0
    9.4116   -4.8911   -0.5065 N   0  0  0  0  0  0  0  0  0  0  0  0
   10.4400   -4.2315    0.2511 C   0  0  0  0  0  0  0  0  0  0  0  0
   10.5471   -4.4274    1.4976 O   0  0  0  0  0  0  0  0  0  0  0  0
   11.4111   -3.3131   -0.4327 C   0  0  1  0  0  0  0  0  0  0  0  0
   12.4771   -4.1246   -1.1709 C   0  0  0  0  0  0  0  0  0  0  0  0
   10.6948   -2.4384   -1.3614 N   0  0  0  0  0  0  0  0  0  0  0  0
   10.6653   -1.0122   -1.2400 C   0  0  0  0  0  0  0  0  0  0  0  0
   11.1489   -0.3208   -2.1807 O   0  0  0  0  0  0  0  0  0  0  0  0
    9.8950   -0.3204   -0.1213 C   0  0  1  0  0  0  0  0  0  0  0  0
   10.3031   -0.7662    1.2860 C   0  0  0  0  0  0  0  0  0  0  0  0
   10.0016    1.1487   -0.2186 N   0  0  0  0  0  0  0  0  0  0  0  0
   11.2388    1.8603   -0.0604 C   0  0  0  0  0  0  0  0  0  0  0  0
   12.3407    1.2481   -0.1644 O   0  0  0  0  0  0  0  0  0  0  0  0
   11.2242    3.3558    0.1361 C   0  0  1  0  0  0  0  0  0  0  0  0
   12.4603    3.8269    0.9213 C   0  0  0  0  0  0  0  0  0  0  0  0
   11.1934    4.0095   -1.1760 N   0  0  0  0  0  0  0  0  0  0  0  0
   10.3078    5.0712   -1.5825 C   0  0  0  0  0  0  0  0  0  0  0  0
   10.4842    5.5820   -2.7259 O   0  0  0  0  0  0  0  0  0  0  0  0
    9.2216    5.6365   -0.6794 C   0  0  1  0  0  0  0  0  0  0  0  0
    9.8475    6.5881    0.3459 C   0  0  0  0  0  0  0  0  0  0  0  0
    8.1932    6.3524   -1.4512 N   0  0  0  0  0  0  0  0  0  0  0  0
    6.9135    6.7667   -0.9321 C   0  0  0  0  0  0  0  0  0  0  0  0
    6.2263    7.5641   -1.6227 O   0  0  0  0  0  0  0  0  0  0  0  0
    6.3445    6.2676    0.3840 C   0  0  1  0  0  0  0  0  0  0  0  0
    5.9597    7.4369    1.2987 C   0  0  0  0  0  0  0  0  0  0  0  0
    5.2327    5.3422    0.1230 N   0  0  0  0  0  0  0  0  0  0  0  0
    3.8427    5.6077    0.3780 C   0  0  0  0  0  0  0  0  0  0  0  0
    3.2246    4.8342    1.1567 O   0  0  0  0  0  0  0  0  0  0  0  0
    0.6425    9.1811    2.5981 H   0  0  0  0  0  0  0  0  0  0  0  0
    2.2410    9.0721    3.4549 H   0  0  0  0  0  0  0  0  0  0  0  0
    2.1107    9.9573    1.8864 H   0  0  0  0  0  0  0  0  0  0  0  0
    2.9648    8.7839    0.0897 H   0  0  0  0  0  0  0  0  0  0  0  0
    3.8132    7.0866   -1.1232 H   0  0  0  0  0  0  0  0  0  0  0  0
    1.4585    7.0419   -1.7535 H   0  0  0  0  0  0  0  0  0  0  0  0
    2.3151    5.4830   -1.9731 H   0  0  0  0  0  0  0  0  0  0  0  0
    0.3747    4.3450   -2.4536 H   0  0  0  0  0  0  0  0  0  0  0  0
   -0.9018    5.5540   -2.1318 H   0  0  0  0  0  0  0  0  0  0  0  0
    0.0921    2.0402   -1.8075 H   0  0  0  0  0  0  0  0  0  0  0  0
   -3.6809    0.8119   -0.1372 H   0  0  0  0  0  0  0  0  0  0  0  0
   -2.7774    4.9931   -0.5716 H   0  0  0  0  0  0  0  0  0  0  0  0
   -4.9323    2.6794    1.1632 H   0  0  0  0  0  0  0  0  0  0  0  0
   -4.8083    4.3414    0.5346 H   0  0  0  0  0  0  0  0  0  0  0  0
   -6.2337    4.2171   -2.9796 H   0  0  0  0  0  0  0  0  0  0  0  0
   -4.8582    4.7506   -1.9932 H   0  0  0  0  0  0  0  0  0  0  0  0
   -6.9869    5.2553   -0.2338 H   0  0  0  0  0  0  0  0  0  0  0  0
   -5.9033    7.0482    0.7836 H   0  0  0  0  0  0  0  0  0  0  0  0
   -5.2391    8.4126   -0.1856 H   0  0  0  0  0  0  0  0  0  0  0  0
   -8.0859    6.0216   -2.9715 H   0  0  0  0  0  0  0  0  0  0  0  0
   -8.5723    3.7235   -0.0953 H   0  0  0  0  0  0  0  0  0  0  0  0
   -9.8735    4.5898    1.8363 H   0  0  0  0  0  0  0  0  0  0  0  0
   -8.9188    5.8981    1.0361 H   0  0  0  0  0  0  0  0  0  0  0  0
  -10.7010    5.7891    0.7600 H   0  0  0  0  0  0  0  0  0  0  0  0
  -10.2501    2.2437   -0.4380 H   0  0  0  0  0  0  0  0  0  0  0  0
  -12.3414    1.8335    0.9581 H   0  0  0  0  0  0  0  0  0  0  0  0
  -14.7242    3.6313    0.2141 H   0  0  0  0  0  0  0  0  0  0  0  0
  -14.7384    2.2095    1.3291 H   0  0  0  0  0  0  0  0  0  0  0  0
  -13.7747    3.6727    1.7560 H   0  0  0  0  0  0  0  0  0  0  0  0
  -14.0063    2.0080   -1.6027 H   0  0  0  0  0  0  0  0  0  0  0  0
  -11.1878    0.2425    0.0631 H   0  0  0  0  0  0  0  0  0  0  0  0
  -13.2917   -1.9234    0.6746 H   0  0  0  0  0  0  0  0  0  0  0  0
  -13.0582   -0.3883    1.5837 H   0  0  0  0  0  0  0  0  0  0  0  0
  -11.7472   -1.6104    1.5778 H   0  0  0  0  0  0  0  0  0  0  0  0
  -10.6665   -1.0490   -1.9447 H   0  0  0  0  0  0  0  0  0  0  0  0
  -10.1727   -3.1679    0.4865 H   0  0  0  0  0  0  0  0  0  0  0  0
  -11.1671   -5.4965    1.0479 H   0  0  0  0  0  0  0  0  0  0  0  0
  -12.4291   -5.1553   -0.1769 H   0  0  0  0  0  0  0  0  0  0  0  0
  -12.2717   -4.0869    1.2686 H   0  0  0  0  0  0  0  0  0  0  0  0
  -10.2081   -5.1774   -1.8142 H   0  0  0  0  0  0  0  0  0  0  0  0
   -7.9082   -3.1092    0.5079 H   0  0  0  0  0  0  0  0  0  0  0  0
   -7.4906   -4.6672    2.5479 H   0  0  0  0  0  0  0  0  0  0  0  0
   -8.2563   -5.9881    1.5716 H   0  0  0  0  0  0  0  0  0  0  0  0
   -9.1839   -4.5042    2.0062 H   0  0  0  0  0  0  0  0  0  0  0  0
   -5.6514   -3.4634    0.3720 H   0  0  0  0  0  0  0  0  0  0  0  0
   -3.7165   -4.7568    1.1127 H   0  0  0  0  0  0  0  0  0  0  0  0
   -3.8368   -7.8038    0.7056 H   0  0  0  0  0  0  0  0  0  0  0  0
   -2.4731   -6.8621    1.4188 H   0  0  0  0  0  0  0  0  0  0  0  0
   -4.0694   -6.9207    2.2727 H   0  0  0  0  0  0  0  0  0  0  0  0
   -3.6677   -6.3953   -1.4701 H   0  0  0  0  0  0  0  0  0  0  0  0
   -1.0032   -3.1999   -1.2471 H   0  0  0  0  0  0  0  0  0  0  0  0
   -3.1417   -2.6642    0.8917 H   0  0  0  0  0  0  0  0  0  0  0  0
   -3.3249   -2.0315   -0.7423 H   0  0  0  0  0  0  0  0  0  0  0  0
   -0.3638   -0.2971   -1.5940 H   0  0  0  0  0  0  0  0  0  0  0  0
   -2.0845   -0.6192   -1.8799 H   0  0  0  0  0  0  0  0  0  0  0  0
   -1.3291   -4.1012    1.5287 H   0  0  0  0  0  0  0  0  0  0  0  0
    2.0083   -5.2110   -0.3229 H   0  0  0  0  0  0  0  0  0  0  0  0
    2.6810   -3.1298    0.8188 H   0  0  0  0  0  0  0  0  0  0  0  0
    1.2786   -2.8383   -0.2585 H   0  0  0  0  0  0  0  0  0  0  0  0
    1.0323   -2.9496    1.5301 H   0  0  0  0  0  0  0  0  0  0  0  0
    1.2774   -5.3359    2.6347 H   0  0  0  0  0  0  0  0  0  0  0  0
    4.6017   -7.5586    1.5620 H   0  0  0  0  0  0  0  0  0  0  0  0
    2.3695   -8.5763    1.1970 H   0  0  0  0  0  0  0  0  0  0  0  0
    2.0856   -7.5069   -0.2260 H   0  0  0  0  0  0  0  0  0  0  0  0
    3.3990   -8.7141   -0.2549 H   0  0  0  0  0  0  0  0  0  0  0  0
    4.2557   -5.2292   -0.2402 H   0  0  0  0  0  0  0  0  0  0  0  0
    5.7792   -8.8382   -0.3550 H   0  0  0  0  0  0  0  0  0  0  0  0
    6.8219   -8.7343   -2.5500 H   0  0  0  0  0  0  0  0  0  0  0  0
    7.9853   -7.4625   -2.0014 H   0  0  0  0  0  0  0  0  0  0  0  0
    8.0557   -9.1226   -1.3017 H   0  0  0  0  0  0  0  0  0  0  0  0
    7.0321   -8.2334    1.4526 H   0  0  0  0  0  0  0  0  0  0  0  0
    7.4378   -5.3643   -0.8898 H   0  0  0  0  0  0  0  0  0  0  0  0
    8.0160   -3.9891    1.7983 H   0  0  0  0  0  0  0  0  0  0  0  0
    7.5278   -3.1521    0.2632 H   0  0  0  0  0  0  0  0  0  0  0  0
    6.4072   -4.3334    1.0618 H   0  0  0  0  0  0  0  0  0  0  0  0
    9.6032   -5.0755   -1.5226 H   0  0  0  0  0  0  0  0  0  0  0  0
   11.9376   -2.7011    0.3291 H   0  0  0  0  0  0  0  0  0  0  0  0
   12.0141   -4.8058   -1.9163 H   0  0  0  0  0  0  0  0  0  0  0  0
   13.0618   -4.7273   -0.4489 H   0  0  0  0  0  0  0  0  0  0  0  0
   13.1775   -3.4483   -1.7058 H   0  0  0  0  0  0  0  0  0  0  0  0
   10.3924   -2.8378   -2.2818 H   0  0  0  0  0  0  0  0  0  0  0  0
    8.8270   -0.5972   -0.2537 H   0  0  0  0  0  0  0  0  0  0  0  0
    9.8132   -0.1106    2.0433 H   0  0  0  0  0  0  0  0  0  0  0  0
    9.9576   -1.8020    1.4882 H   0  0  0  0  0  0  0  0  0  0  0  0
   11.4025   -0.6985    1.4271 H   0  0  0  0  0  0  0  0  0  0  0  0
    9.1150    1.6933   -0.2428 H   0  0  0  0  0  0  0  0  0  0  0  0
   10.3307    3.6092    0.7423 H   0  0  0  0  0  0  0  0  0  0  0  0
   12.4291    4.9232    1.0646 H   0  0  0  0  0  0  0  0  0  0  0  0
   13.3972    3.5765    0.3742 H   0  0  0  0  0  0  0  0  0  0  0  0
   12.4824    3.3399    1.9204 H   0  0  0  0  0  0  0  0  0  0  0  0
   11.9291    3.7299   -1.8638 H   0  0  0  0  0  0  0  0  0  0  0  0
    8.7382    4.7824   -0.1685 H   0  0  0  0  0  0  0  0  0  0  0  0
    9.0667    7.1364    0.9089 H   0  0  0  0  0  0  0  0  0  0  0  0
   10.5022    7.3362   -0.1584 H   0  0  0  0  0  0  0  0  0  0  0  0
   10.4482    6.0250    1.0873 H   0  0  0  0  0  0  0  0  0  0  0  0
    8.4635    6.7826   -2.3666 H   0  0  0  0  0  0  0  0  0  0  0  0
    7.1071    5.7019    0.9468 H   0  0  0  0  0  0  0  0  0  0  0  0
    5.3132    8.1762    0.7786 H   0  0  0  0  0  0  0  0  0  0  0  0
    5.4314    7.0668    2.2011 H   0  0  0  0  0  0  0  0  0  0  0  0
    6.8755    7.9713    1.6367 H   0  0  0  0  0  0  0  0  0  0  0  0
    5.4890    4.3433   -0.0471 H   0  0  0  0  0  0  0  0  0  0  0  0
  1  2  1  0
  2  3  2  0
  2  4  1  0
  4  5  1  0
  5  6  1  0
  6  7  1  0
  7  8  1  0
  8  9  1  0
  9 10  1  0
 10 11  2  0
 11 12  1  0
 12 13  2  0
 13 14  1  0
 13 15  1  0
 15 16  1  0
 16 17  1  0
 17 18  1  0
 18 19  1  0
 19 20  1  0
 19 21  2  0
 18 22  1  0
 22 23  1  0
 23 24  2  0
 23 25  1  0
 25 26  1  0
 25 27  1  0
 27 28  1  0
 28 29  2  0
 28 30  1  0
 30 31  1  0
 30 32  1  0
 32 33  1  0
 33 34  2  0
 33 35  1  0
 35 36  1  0
 35 37  1  0
 37 38  1  0
 38 39  2  0
 38 40  1  0
 40 41  1  0
 40 42  1  0
 42 43  1  0
 43 44  2  0
 43 45  1  0
 45 46  1  0
 45 47  1  0
 47 48  1  0
 48 49  2  0
 48 50  1  0
 50 51  1  0
 50 52  1  0
 52 53  1  0
 53 54  2  0
 53 55  1  0
 55 56  1  0
 56 57  1  0
 57 58  1  0
 55 59  1  0
 59 60  1  0
 60 61  2  0
 60 62  1  0
 62 63  1  0
 62 64  1  0
 64 65  1  0
 65 66  2  0
 65 67  1  0
 67 68  1  0
 67 69  1  0
 69 70  1  0
 70 71  2  0
 70 72  1  0
 72 73  1  0
 72 74  1  0
 74 75  1  0
 75 76  2  0
 75 77  1  0
 77 78  1  0
 77 79  1  0
 79 80  1  0
 80 81  2  0
 80 82  1  0
 82 83  1  0
 82 84  1  0
 84 85  1  0
 85 86  2  0
 85 87  1  0
 87 88  1  0
 87 89  1  0
 89 90  1  0
 90 91  2  0
 90 92  1  0
 92 93  1  0
 92 94  1  0
 94 95  1  0
 95 96  2  0
 95 97  1  0
 97 98  1  0
 97 99  1  0
 99100  1  0
100101  2  0
100102  1  0
102103  1  0
102104  1  0
104105  1  0
105106  2  0
105  5  1  0
 14  9  2  0
 58 11  1  0
  1107  1  0
  1108  1  0
  1109  1  0
  4110  1  0
  5111  1  6
  6112  1  0
  6113  1  0
  8114  1  0
  8115  1  0
 10116  1  0
 12117  1  0
 14118  1  0
 15119  1  0
 15120  1  0
 17121  1  0
 17122  1  0
 18123  1  1
 20124  1  0
 20125  1  0
 22126  1  0
 25127  1  1
 26128  1  0
 26129  1  0
 26130  1  0
 27131  1  0
 30132  1  1
 31133  1  0
 31134  1  0
 31135  1  0
 32136  1  0
 35137  1  1
 36138  1  0
 36139  1  0
 36140  1  0
 37141  1  0
 40142  1  1
 41143  1  0
 41144  1  0
 41145  1  0
 42146  1  0
 45147  1  1
 46148  1  0
 46149  1  0
 46150  1  0
 47151  1  0
 50152  1  1
 51153  1  0
 51154  1  0
 51155  1  0
 52156  1  0
 55157  1  6
 56158  1  0
 56159  1  0
 58160  1  0
 58161  1  0
 59162  1  0
 62163  1  6
 63164  1  0
 63165  1  0
 63166  1  0
 64167  1  0
 67168  1  1
 68169  1  0
 68170  1  0
 68171  1  0
 69172  1  0
 72173  1  1
 73174  1  0
 73175  1  0
 73176  1  0
 74177  1  0
 77178  1  6
 78179  1  0
 78180  1  0
 78181  1  0
 79182  1  0
 82183  1  1
 83184  1  0
 83185  1  0
 83186  1  0
 84187  1  0
 87188  1  6
 88189  1  0
 88190  1  0
 88191  1  0
 89192  1  0
 92193  1  1
 93194  1  0
 93195  1  0
 93196  1  0
 94197  1  0
 97198  1  1
 98199  1  0
 98200  1  0
 98201  1  0
 99202  1  0
102203  1  1
103204  1  0
103205  1  0
103206  1  0
104207  1  0
M  END
