
     RDKit          3D

197199  0  0  0  0  0  0  0  0999 V2000
    1.2257   10.4972    1.8786 C   0  0  0  0  0  0  0  0  0  0  0  0
    2.2259    9.4785    1.4262 C   0  0  0  0  0  0  0  0  0  0  0  0
    3.4233    9.8350    1.2489 O   0  0  0  0  0  0  0  0  0  0  0  0
    1.8258    8.1188    1.1899 N   0  0  0  0  0  0  0  0  0  0  0  0
    2.7759    7.0854    0.7489 C   0  0  2  0  0  0  0  0  0  0  0  0
    2.0385    6.0005   -0.0500 C   0  0  0  0  0  0  0  0  0  0  0  0
    1.3567    6.7020   -1.5998 S   0  0  0  0  0  0  0  0  0  0  0  0
    1.0804    5.0969   -2.4263 C   0  0  0  0  0  0  0  0  0  0  0  0
   -0.0775    4.3645   -1.8080 C   0  0  0  0  0  0  0  0  0  0  0  0
    0.1406    3.1910   -1.0712 C   0  0  0  0  0  0  0  0  0  0  0  0
   -0.9445    2.4730   -0.5436 C   0  0  0  0  0  0  0  0  0  0  0  0
   -2.2523    2.9316   -0.7807 C   0  0  0  0  0  0  0  0  0  0  0  0
   -2.4836    4.1302   -1.4834 C   0  0  0  0  0  0  0  0  0  0  0  0
   -1.3879    4.8295   -2.0099 C   0  0  0  0  0  0  0  0  0  0  0  0
   -3.8872    4.5941   -1.8098 C   0  0  0  0  0  0  0  0  0  0  0  0
   -5.0743    4.1451   -0.5002 S   0  0  0  0  0  0  0  0  0  0  0  0
   -6.5646    4.7859   -1.3474 C   0  0  0  0  0  0  0  0  0  0  0  0
   -7.8389    4.3970   -0.5735 C   0  0  1  0  0  0  0  0  0  0  0  0
   -7.7860    4.9245    0.8414 C   0  0  0  0  0  0  0  0  0  0  0  0
   -7.8799    6.3257    1.1008 N   0  0  0  0  0  0  0  0  0  0  0  0
   -7.6392    4.1188    1.8008 O   0  0  0  0  0  0  0  0  0  0  0  0
   -9.0390    4.8944   -1.2590 N   0  0  0  0  0  0  0  0  0  0  0  0
  -10.3908    4.5677   -0.8944 C   0  0  0  0  0  0  0  0  0  0  0  0
  -11.3367    5.1401   -1.4943 O   0  0  0  0  0  0  0  0  0  0  0  0
  -10.7261    3.5663    0.1840 C   0  0  1  0  0  0  0  0  0  0  0  0
  -11.5594    4.2160    1.2916 C   0  0  0  0  0  0  0  0  0  0  0  0
  -11.4389    2.4259   -0.3905 N   0  0  0  0  0  0  0  0  0  0  0  0
  -10.7411    1.2101   -0.6638 C   0  0  0  0  0  0  0  0  0  0  0  0
   -9.8552    1.1897   -1.5589 O   0  0  0  0  0  0  0  0  0  0  0  0
  -11.0525   -0.0573    0.1003 C   0  0  1  0  0  0  0  0  0  0  0  0
  -11.4613    0.2529    1.5474 C   0  0  0  0  0  0  0  0  0  0  0  0
  -12.1052   -0.8126   -0.5802 N   0  0  0  0  0  0  0  0  0  0  0  0
  -12.3513   -2.2253   -0.4486 C   0  0  0  0  0  0  0  0  0  0  0  0
  -13.3704   -2.7096   -1.0103 O   0  0  0  0  0  0  0  0  0  0  0  0
  -11.4574   -3.1595    0.3438 C   0  0  1  0  0  0  0  0  0  0  0  0
  -12.2016   -3.6869    1.5706 C   0  0  0  0  0  0  0  0  0  0  0  0
  -11.0574   -4.2900   -0.5049 N   0  0  0  0  0  0  0  0  0  0  0  0
   -9.8141   -4.9759   -0.3135 C   0  0  0  0  0  0  0  0  0  0  0  0
   -9.8356   -6.1456    0.1620 O   0  0  0  0  0  0  0  0  0  0  0  0
   -8.4863   -4.4031   -0.7581 C   0  0  1  0  0  0  0  0  0  0  0  0
   -8.5877   -3.0540   -1.4844 C   0  0  0  0  0  0  0  0  0  0  0  0
   -7.5959   -4.2715    0.3951 N   0  0  0  0  0  0  0  0  0  0  0  0
   -6.4952   -5.1626    0.5905 C   0  0  0  0  0  0  0  0  0  0  0  0
   -6.6143   -6.1200    1.4035 O   0  0  0  0  0  0  0  0  0  0  0  0
   -5.1890   -4.9817   -0.1333 C   0  0  1  0  0  0  0  0  0  0  0  0
   -5.2564   -5.4948   -1.5697 C   0  0  0  0  0  0  0  0  0  0  0  0
   -4.7848   -3.5723   -0.1257 N   0  0  0  0  0  0  0  0  0  0  0  0
   -3.6107   -3.1493    0.5786 C   0  0  0  0  0  0  0  0  0  0  0  0
   -3.5094   -3.3832    1.8072 O   0  0  0  0  0  0  0  0  0  0  0  0
   -2.4630   -2.5391   -0.1964 C   0  0  1  0  0  0  0  0  0  0  0  0
   -1.9865   -1.2087    0.4111 C   0  0  0  0  0  0  0  0  0  0  0  0
   -1.0693   -0.2340   -0.8375 S   0  0  0  0  0  0  0  0  0  0  0  0
   -0.7332    1.2113    0.2379 C   0  0  0  0  0  0  0  0  0  0  0  0
   -1.3675   -3.5084   -0.3088 N   0  0  0  0  0  0  0  0  0  0  0  0
   -0.8373   -4.2468    0.8120 C   0  0  0  0  0  0  0  0  0  0  0  0
   -0.5622   -3.6487    1.8856 O   0  0  0  0  0  0  0  0  0  0  0  0
   -0.7160   -5.7503    0.7760 C   0  0  1  0  0  0  0  0  0  0  0  0
   -1.2658   -6.3930   -0.5055 C   0  0  0  0  0  0  0  0  0  0  0  0
    0.6671   -6.1702    1.0073 N   0  0  0  0  0  0  0  0  0  0  0  0
    1.7163   -5.9502    0.0542 C   0  0  0  0  0  0  0  0  0  0  0  0
    1.8027   -4.8368   -0.5352 O   0  0  0  0  0  0  0  0  0  0  0  0
    2.7358   -7.0315   -0.1988 C   0  0  1  0  0  0  0  0  0  0  0  0
    2.0126   -8.3631   -0.4568 C   0  0  0  0  0  0  0  0  0  0  0  0
    3.5547   -6.7080   -1.3784 N   0  0  0  0  0  0  0  0  0  0  0  0
    4.9836   -6.8758   -1.4967 C   0  0  0  0  0  0  0  0  0  0  0  0
    5.5002   -6.7562   -2.6395 O   0  0  0  0  0  0  0  0  0  0  0  0
    5.8822   -7.2162   -0.3158 C   0  0  1  0  0  0  0  0  0  0  0  0
    5.7641   -8.7069    0.0335 C   0  0  0  0  0  0  0  0  0  0  0  0
    7.2867   -6.9046   -0.6091 N   0  0  0  0  0  0  0  0  0  0  0  0
    8.2812   -6.8748    0.4226 C   0  0  0  0  0  0  0  0  0  0  0  0
    9.1329   -7.8033    0.4713 O   0  0  0  0  0  0  0  0  0  0  0  0
    8.3339   -5.7605    1.4403 C   0  0  1  0  0  0  0  0  0  0  0  0
    7.5746   -6.1451    2.7111 C   0  0  0  0  0  0  0  0  0  0  0  0
    9.7326   -5.4850    1.7915 N   0  0  0  0  0  0  0  0  0  0  0  0
   10.3984   -4.2079    1.7009 C   0  0  0  0  0  0  0  0  0  0  0  0
   11.3360   -3.9666    2.5073 O   0  0  0  0  0  0  0  0  0  0  0  0
   10.0673   -3.1650    0.6505 C   0  0  1  0  0  0  0  0  0  0  0  0
    9.9514   -3.7912   -0.7475 C   0  0  0  0  0  0  0  0  0  0  0  0
    8.8584   -2.4102    1.0168 N   0  0  0  0  0  0  0  0  0  0  0  0
    8.3545   -1.2462    0.3322 C   0  0  0  0  0  0  0  0  0  0  0  0
    7.1655   -0.8880    0.5554 O   0  0  0  0  0  0  0  0  0  0  0  0
    9.1885   -0.4271   -0.6342 C   0  0  1  0  0  0  0  0  0  0  0  0
    8.6160   -0.5349   -2.0503 C   0  0  0  0  0  0  0  0  0  0  0  0
    9.1897    0.9831   -0.2203 N   0  0  0  0  0  0  0  0  0  0  0  0
   10.2873    1.8537   -0.5340 C   0  0  0  0  0  0  0  0  0  0  0  0
   11.4687    1.4119   -0.4642 O   0  0  0  0  0  0  0  0  0  0  0  0
   10.0567    3.3101   -0.8882 C   0  0  1  0  0  0  0  0  0  0  0  0
   11.0546    3.7524   -1.9714 C   0  0  0  0  0  0  0  0  0  0  0  0
    8.6880    3.5093   -1.3836 N   0  0  0  0  0  0  0  0  0  0  0  0
    7.9610    4.7527   -1.3172 C   0  0  0  0  0  0  0  0  0  0  0  0
    7.0321    4.9482   -2.1517 O   0  0  0  0  0  0  0  0  0  0  0  0
    8.2513    5.8268   -0.2787 C   0  0  1  0  0  0  0  0  0  0  0  0
    9.4361    6.7013   -0.7054 C   0  0  0  0  0  0  0  0  0  0  0  0
    7.0790    6.6915   -0.1051 N   0  0  0  0  0  0  0  0  0  0  0  0
    6.4478    6.9010    1.1659 C   0  0  0  0  0  0  0  0  0  0  0  0
    6.1901    8.0809    1.5287 O   0  0  0  0  0  0  0  0  0  0  0  0
    5.9511    5.7377    1.9886 C   0  0  1  0  0  0  0  0  0  0  0  0
    6.2043    5.9341    3.4879 C   0  0  0  0  0  0  0  0  0  0  0  0
    4.5315    5.5037    1.7193 N   0  0  0  0  0  0  0  0  0  0  0  0
    3.5135    6.4917    1.9298 C   0  0  0  0  0  0  0  0  0  0  0  0
    3.2725    6.8949    3.0997 O   0  0  0  0  0  0  0  0  0  0  0  0
    1.1765   11.3244    1.1361 H   0  0  0  0  0  0  0  0  0  0  0  0
    1.5296   10.9183    2.8619 H   0  0  0  0  0  0  0  0  0  0  0  0
    0.2107   10.0496    1.9773 H   0  0  0  0  0  0  0  0  0  0  0  0
    0.8439    7.8419    1.4153 H   0  0  0  0  0  0  0  0  0  0  0  0
    3.5288    7.5471    0.0727 H   0  0  0  0  0  0  0  0  0  0  0  0
    2.7438    5.1826   -0.3045 H   0  0  0  0  0  0  0  0  0  0  0  0
    1.2122    5.5728    0.5624 H   0  0  0  0  0  0  0  0  0  0  0  0
    2.0110    4.4920   -2.3946 H   0  0  0  0  0  0  0  0  0  0  0  0
    0.8681    5.2840   -3.5009 H   0  0  0  0  0  0  0  0  0  0  0  0
    1.1501    2.8405   -0.8946 H   0  0  0  0  0  0  0  0  0  0  0  0
   -3.0815    2.3347   -0.4135 H   0  0  0  0  0  0  0  0  0  0  0  0
   -1.5413    5.7312   -2.5766 H   0  0  0  0  0  0  0  0  0  0  0  0
   -4.1932    4.1375   -2.7734 H   0  0  0  0  0  0  0  0  0  0  0  0
   -3.9063    5.7004   -1.9219 H   0  0  0  0  0  0  0  0  0  0  0  0
   -6.4983    5.8914   -1.4464 H   0  0  0  0  0  0  0  0  0  0  0  0
   -6.6137    4.3369   -2.3617 H   0  0  0  0  0  0  0  0  0  0  0  0
   -7.8717    3.2766   -0.5581 H   0  0  0  0  0  0  0  0  0  0  0  0
   -8.1290    6.9823    0.3331 H   0  0  0  0  0  0  0  0  0  0  0  0
   -7.7946    6.6850    2.0771 H   0  0  0  0  0  0  0  0  0  0  0  0
   -8.9073    5.5636   -2.0505 H   0  0  0  0  0  0  0  0  0  0  0  0
   -9.8100    3.1875    0.6720 H   0  0  0  0  0  0  0  0  0  0  0  0
  -12.5183    4.6083    0.8858 H   0  0  0  0  0  0  0  0  0  0  0  0
  -10.9942    5.0491    1.7537 H   0  0  0  0  0  0  0  0  0  0  0  0
  -11.7865    3.4660    2.0793 H   0  0  0  0  0  0  0  0  0  0  0  0
  -12.4811    2.4580   -0.5032 H   0  0  0  0  0  0  0  0  0  0  0  0
  -10.1125   -0.6334    0.1254 H   0  0  0  0  0  0  0  0  0  0  0  0
  -10.7042    0.9082    2.0296 H   0  0  0  0  0  0  0  0  0  0  0  0
  -11.5203   -0.6809    2.1372 H   0  0  0  0  0  0  0  0  0  0  0  0
  -12.4510    0.7542    1.5751 H   0  0  0  0  0  0  0  0  0  0  0  0
  -12.8231   -0.2682   -1.1167 H   0  0  0  0  0  0  0  0  0  0  0  0
  -10.5538   -2.6481    0.7137 H   0  0  0  0  0  0  0  0  0  0  0  0
  -12.5519   -2.8404    2.1959 H   0  0  0  0  0  0  0  0  0  0  0  0
  -13.0780   -4.2938    1.2692 H   0  0  0  0  0  0  0  0  0  0  0  0
  -11.5258   -4.3197    2.1805 H   0  0  0  0  0  0  0  0  0  0  0  0
  -11.8182   -4.8475   -0.9495 H   0  0  0  0  0  0  0  0  0  0  0  0
   -8.0648   -5.1342   -1.4823 H   0  0  0  0  0  0  0  0  0  0  0  0
   -7.6284   -2.8379   -2.0014 H   0  0  0  0  0  0  0  0  0  0  0  0
   -9.3949   -3.0833   -2.2464 H   0  0  0  0  0  0  0  0  0  0  0  0
   -8.7744   -2.2377   -0.7616 H   0  0  0  0  0  0  0  0  0  0  0  0
   -7.9321   -3.7330    1.2289 H   0  0  0  0  0  0  0  0  0  0  0  0
   -4.4212   -5.5857    0.3961 H   0  0  0  0  0  0  0  0  0  0  0  0
   -5.6286   -6.5428   -1.5913 H   0  0  0  0  0  0  0  0  0  0  0  0
   -4.2405   -5.4746   -2.0218 H   0  0  0  0  0  0  0  0  0  0  0  0
   -5.9136   -4.8449   -2.1960 H   0  0  0  0  0  0  0  0  0  0  0  0
   -5.2334   -2.9078   -0.7997 H   0  0  0  0  0  0  0  0  0  0  0  0
   -2.8356   -2.3212   -1.2225 H   0  0  0  0  0  0  0  0  0  0  0  0
   -2.8612   -0.6144    0.7436 H   0  0  0  0  0  0  0  0  0  0  0  0
   -1.3389   -1.3881    1.2922 H   0  0  0  0  0  0  0  0  0  0  0  0
   -1.4072    1.2297    1.1220 H   0  0  0  0  0  0  0  0  0  0  0  0
    0.3080    1.1579    0.6144 H   0  0  0  0  0  0  0  0  0  0  0  0
   -0.9494   -3.6828   -1.2627 H   0  0  0  0  0  0  0  0  0  0  0  0
   -1.3403   -6.1378    1.6114 H   0  0  0  0  0  0  0  0  0  0  0  0
   -2.3304   -6.1242   -0.6471 H   0  0  0  0  0  0  0  0  0  0  0  0
   -1.2064   -7.4989   -0.4206 H   0  0  0  0  0  0  0  0  0  0  0  0
   -0.6824   -6.0803   -1.3997 H   0  0  0  0  0  0  0  0  0  0  0  0
    0.8529   -6.8135    1.8091 H   0  0  0  0  0  0  0  0  0  0  0  0
    3.3613   -7.1255    0.7124 H   0  0  0  0  0  0  0  0  0  0  0  0
    1.5107   -8.7196    0.4689 H   0  0  0  0  0  0  0  0  0  0  0  0
    2.7360   -9.1410   -0.7781 H   0  0  0  0  0  0  0  0  0  0  0  0
    1.2473   -8.2467   -1.2567 H   0  0  0  0  0  0  0  0  0  0  0  0
    3.0347   -6.4785   -2.2570 H   0  0  0  0  0  0  0  0  0  0  0  0
    5.5512   -6.6093    0.5524 H   0  0  0  0  0  0  0  0  0  0  0  0
    6.0000   -9.3266   -0.8592 H   0  0  0  0  0  0  0  0  0  0  0  0
    6.4687   -8.9664    0.8478 H   0  0  0  0  0  0  0  0  0  0  0  0
    4.7485   -8.9541    0.3917 H   0  0  0  0  0  0  0  0  0  0  0  0
    7.6521   -7.1966   -1.5480 H   0  0  0  0  0  0  0  0  0  0  0  0
    7.8461   -4.8640    1.0063 H   0  0  0  0  0  0  0  0  0  0  0  0
    7.9049   -7.1409    3.0794 H   0  0  0  0  0  0  0  0  0  0  0  0
    6.4814   -6.1709    2.5300 H   0  0  0  0  0  0  0  0  0  0  0  0
    7.7694   -5.3946    3.5097 H   0  0  0  0  0  0  0  0  0  0  0  0
   10.2586   -6.2496    2.2773 H   0  0  0  0  0  0  0  0  0  0  0  0
   10.9293   -2.4646    0.6331 H   0  0  0  0  0  0  0  0  0  0  0  0
    8.9219   -4.1536   -0.9467 H   0  0  0  0  0  0  0  0  0  0  0  0
   10.6630   -4.6342   -0.8649 H   0  0  0  0  0  0  0  0  0  0  0  0
   10.2110   -3.0435   -1.5241 H   0  0  0  0  0  0  0  0  0  0  0  0
    8.2816   -2.7576    1.8205 H   0  0  0  0  0  0  0  0  0  0  0  0
   10.2296   -0.7977   -0.6604 H   0  0  0  0  0  0  0  0  0  0  0  0
    8.5363   -1.5970   -2.3622 H   0  0  0  0  0  0  0  0  0  0  0  0
    9.2838   -0.0076   -2.7653 H   0  0  0  0  0  0  0  0  0  0  0  0
    7.6049   -0.0735   -2.1031 H   0  0  0  0  0  0  0  0  0  0  0  0
    8.2809    1.4170    0.0678 H   0  0  0  0  0  0  0  0  0  0  0  0
   10.2269    3.9120    0.0307 H   0  0  0  0  0  0  0  0  0  0  0  0
   10.8182    4.7718   -2.3418 H   0  0  0  0  0  0  0  0  0  0  0  0
   11.0244    3.0608   -2.8413 H   0  0  0  0  0  0  0  0  0  0  0  0
   12.0880    3.7662   -1.5611 H   0  0  0  0  0  0  0  0  0  0  0  0
    8.3450    2.8203   -2.0931 H   0  0  0  0  0  0  0  0  0  0  0  0
    8.5113    5.3411    0.6876 H   0  0  0  0  0  0  0  0  0  0  0  0
    9.3503    6.9856   -1.7766 H   0  0  0  0  0  0  0  0  0  0  0  0
    9.4601    7.6291   -0.0980 H   0  0  0  0  0  0  0  0  0  0  0  0
   10.3997    6.1819   -0.5350 H   0  0  0  0  0  0  0  0  0  0  0  0
    6.8358    7.3581   -0.8726 H   0  0  0  0  0  0  0  0  0  0  0  0
    6.5112    4.8263    1.6875 H   0  0  0  0  0  0  0  0  0  0  0  0
    7.2958    5.9373    3.7013 H   0  0  0  0  0  0  0  0  0  0  0  0
    5.7372    5.1002    4.0520 H   0  0  0  0  0  0  0  0  0  0  0  0
    5.7680    6.8921    3.8476 H   0  0  0  0  0  0  0  0  0  0  0  0
    4.2635    4.6024    1.2661 H   0  0  0  0  0  0  0  0  0  0  0  0
  1  2  1  0
  2  3  2  0
  2  4  1  0
  4  5  1  0
  5  6  1  0
  6  7  1  0
  7  8  1  0
  8  9  1  0
  9 10  1  0
 10 11  2  0
 11 12  1  0
 12 13  2  0
 13 14  1  0
 13 15  1  0
 15 16  1  0
 16 17  1  0
 17 18  1  0
 18 19  1  0
 19 20  1  0
 19 21  2  0
 18 22  1  0
 22 23  1  0
 23 24  2  0
 23 25  1  0
 25 26  1  0
 25 27  1  0
 27 28  1  0
 28 29  2  0
 28 30  1  0
 30 31  1  0
 30 32  1  0
 32 33  1  0
 33 34  2  0
 33 35  1  0
 35 36  1  0
 35 37  1  0
 37 38  1  0
 38 39  2  0
 38 40  1  0
 40 41  1  0
 40 42  1  0
 42 43  1  0
 43 44  2  0
 43 45  1  0
 45 46  1  0
 45 47  1  0
 47 48  1  0
 48 49  2  0
 48 50  1  0
 50 51  1  0
 51 52  1  0
 52 53  1  0
 50 54  1  0
 54 55  1  0
 55 56  2  0
 55 57  1  0
 57 58  1  0
 57 59  1  0
 59 60  1  0
 60 61  2  0
 60 62  1  0
 62 63  1  0
 62 64  1  0
 64 65  1  0
 65 66  2  0
 65 67  1  0
 67 68  1  0
 67 69  1  0
 69 70  1  0
 70 71  2  0
 70 72  1  0
 72 73  1  0
 72 74  1  0
 74 75  1  0
 75 76  2  0
 75 77  1  0
 77 78  1  0
 77 79  1  0
 79 80  1  0
 80 81  2  0
 80 82  1  0
 82 83  1  0
 82 84  1  0
 84 85  1  0
 85 86  2  0
 85 87  1  0
 87 88  1  0
 87 89  1  0
 89 90  1  0
 90 91  2  0
 90 92  1  0
 92 93  1  0
 92 94  1  0
 94 95  1  0
 95 96  2  0
 95 97  1  0
 97 98  1  0
 97 99  1  0
 99100  1  0
100101  2  0
100  5  1  0
 14  9  2  0
 53 11  1  0
  1102  1  0
  1103  1  0
  1104  1  0
  4105  1  0
  5106  1  6
  6107  1  0
  6108  1  0
  8109  1  0
  8110  1  0
 10111  1  0
 12112  1  0
 14113  1  0
 15114  1  0
 15115  1  0
 17116  1  0
 17117  1  0
 18118  1  1
 20119  1  0
 20120  1  0
 22121  1  0
 25122  1  1
 26123  1  0
 26124  1  0
 26125  1  0
 27126  1  0
 30127  1  1
 31128  1  0
 31129  1  0
 31130  1  0
 32131  1  0
 35132  1  1
 36133  1  0
 36134  1  0
 36135  1  0
 37136  1  0
 40137  1  6
 41138  1  0
 41139  1  0
 41140  1  0
 42141  1  0
 45142  1  1
 46143  1  0
 46144  1  0
 46145  1  0
 47146  1  0
 50147  1  6
 51148  1  0
 51149  1  0
 53150  1  0
 53151  1  0
 54152  1  0
 57153  1  1
 58154  1  0
 58155  1  0
 58156  1  0
 59157  1  0
 62158  1  1
 63159  1  0
 63160  1  0
 63161  1  0
 64162  1  0
 67163  1  1
 68164  1  0
 68165  1  0
 68166  1  0
 69167  1  0
 72168  1  6
 73169  1  0
 73170  1  0
 73171  1  0
 74172  1  0
 77173  1  6
 78174  1  0
 78175  1  0
 78176  1  0
 79177  1  0
 82178  1  6
 83179  1  0
 83180  1  0
 83181  1  0
 84182  1  0
 87183  1  1
 88184  1  0
 88185  1  0
 88186  1  0
 89187  1  0
 92188  1  1
 93189  1  0
 93190  1  0
 93191  1  0
 94192  1  0
 97193  1  6
 98194  1  0
 98195  1  0
 98196  1  0
 99197  1  0
M  END
