
     RDKit          3D

237239  0  0  0  0  0  0  0  0999 V2000
   -4.8966    8.4200   -1.1128 C   0  0  0  0  0  0  0  0  0  0  0  0
   -4.3301    7.3205   -1.9588 C   0  0  0  0  0  0  0  0  0  0  0  0
   -3.9284    7.5954   -3.1253 O   0  0  0  0  0  0  0  0  0  0  0  0
   -4.2389    5.9620   -1.4940 N   0  0  0  0  0  0  0  0  0  0  0  0
   -4.4169    5.5692   -0.0918 C   0  0  2  0  0  0  0  0  0  0  0  0
   -3.1074    5.7455    0.6996 C   0  0  0  0  0  0  0  0  0  0  0  0
   -1.6940    4.8438   -0.0492 S   0  0  0  0  0  0  0  0  0  0  0  0
   -1.4397    3.6622    1.3271 C   0  0  0  0  0  0  0  0  0  0  0  0
   -0.2316    2.8061    1.0458 C   0  0  0  0  0  0  0  0  0  0  0  0
    0.9402    2.9578    1.8096 C   0  0  0  0  0  0  0  0  0  0  0  0
    2.1047    2.2539    1.4684 C   0  0  0  0  0  0  0  0  0  0  0  0
    2.0942    1.3897    0.3589 C   0  0  0  0  0  0  0  0  0  0  0  0
    0.9073    1.1649   -0.3563 C   0  0  0  0  0  0  0  0  0  0  0  0
   -0.2529    1.8829   -0.0126 C   0  0  0  0  0  0  0  0  0  0  0  0
    0.9037    0.2148   -1.5302 C   0  0  0  0  0  0  0  0  0  0  0  0
    1.6287   -1.4045   -1.0771 S   0  0  0  0  0  0  0  0  0  0  0  0
    0.0794   -2.2587   -0.5726 C   0  0  0  0  0  0  0  0  0  0  0  0
    0.2916   -3.1956    0.6423 C   0  0  1  0  0  0  0  0  0  0  0  0
   -0.8225   -4.1468    0.7871 N   0  0  0  0  0  0  0  0  0  0  0  0
   -2.2091   -3.8080    0.6357 C   0  0  0  0  0  0  0  0  0  0  0  0
   -2.6195   -2.6729    1.0019 O   0  0  0  0  0  0  0  0  0  0  0  0
   -3.1736   -4.7818   -0.0005 C   0  0  1  0  0  0  0  0  0  0  0  0
   -2.8044   -5.0063   -1.4684 C   0  0  0  0  0  0  0  0  0  0  0  0
   -3.1810   -6.0663    0.7147 N   0  0  0  0  0  0  0  0  0  0  0  0
   -4.2461   -7.0222    0.6062 C   0  0  0  0  0  0  0  0  0  0  0  0
   -3.9634   -8.2103    0.2859 O   0  0  0  0  0  0  0  0  0  0  0  0
   -5.6848   -6.6895    0.9145 C   0  0  1  0  0  0  0  0  0  0  0  0
   -5.8449   -5.6823    2.0557 C   0  0  0  0  0  0  0  0  0  0  0  0
   -6.3714   -6.2260   -0.2886 N   0  0  0  0  0  0  0  0  0  0  0  0
   -7.1721   -7.1220   -1.0647 C   0  0  0  0  0  0  0  0  0  0  0  0
   -6.6165   -7.8725   -1.9099 O   0  0  0  0  0  0  0  0  0  0  0  0
   -8.6534   -7.2226   -0.8437 C   0  0  1  0  0  0  0  0  0  0  0  0
   -8.9708   -8.2319    0.2660 C   0  0  0  0  0  0  0  0  0  0  0  0
   -9.2106   -5.9161   -0.4906 N   0  0  0  0  0  0  0  0  0  0  0  0
  -10.2046   -5.2946   -1.3116 C   0  0  0  0  0  0  0  0  0  0  0  0
   -9.9061   -4.9354   -2.4809 O   0  0  0  0  0  0  0  0  0  0  0  0
  -11.6324   -5.1790   -0.8418 C   0  0  1  0  0  0  0  0  0  0  0  0
  -12.4045   -6.4350   -1.2609 C   0  0  0  0  0  0  0  0  0  0  0  0
  -11.6848   -5.0248    0.6166 N   0  0  0  0  0  0  0  0  0  0  0  0
  -12.1888   -3.8735    1.3210 C   0  0  0  0  0  0  0  0  0  0  0  0
  -11.9212   -3.7666    2.5505 O   0  0  0  0  0  0  0  0  0  0  0  0
  -13.0886   -2.8387    0.6681 C   0  0  1  0  0  0  0  0  0  0  0  0
  -14.4457   -3.4624    0.3230 C   0  0  0  0  0  0  0  0  0  0  0  0
  -13.3044   -1.7070    1.5701 N   0  0  0  0  0  0  0  0  0  0  0  0
  -12.6590   -0.4399    1.3802 C   0  0  0  0  0  0  0  0  0  0  0  0
  -11.7903   -0.0764    2.2149 O   0  0  0  0  0  0  0  0  0  0  0  0
  -13.0317    0.5087    0.2558 C   0  0  1  0  0  0  0  0  0  0  0  0
  -14.2419    0.0322   -0.5595 C   0  0  0  0  0  0  0  0  0  0  0  0
  -13.3280    1.8291    0.8209 N   0  0  0  0  0  0  0  0  0  0  0  0
  -13.1479    3.0849    0.1378 C   0  0  0  0  0  0  0  0  0  0  0  0
  -13.3874    4.1509    0.7677 O   0  0  0  0  0  0  0  0  0  0  0  0
  -12.6416    3.1750   -1.2877 C   0  0  1  0  0  0  0  0  0  0  0  0
  -13.4967    4.1538   -2.1075 C   0  0  0  0  0  0  0  0  0  0  0  0
  -11.2146    3.5206   -1.2723 N   0  0  0  0  0  0  0  0  0  0  0  0
  -10.6886    4.8562   -1.3511 C   0  0  0  0  0  0  0  0  0  0  0  0
  -11.0177    5.6041   -2.3137 O   0  0  0  0  0  0  0  0  0  0  0  0
   -9.6395    5.3375   -0.3729 C   0  0  1  0  0  0  0  0  0  0  0  0
   -9.9216    6.7832    0.0537 C   0  0  0  0  0  0  0  0  0  0  0  0
   -9.6188    4.4927    0.8246 N   0  0  0  0  0  0  0  0  0  0  0  0
   -8.4235    4.0268    1.4799 C   0  0  0  0  0  0  0  0  0  0  0  0
   -8.5164    3.0400    2.2667 O   0  0  0  0  0  0  0  0  0  0  0  0
   -7.0805    4.7073    1.3201 C   0  0  1  0  0  0  0  0  0  0  0  0
   -6.5916    5.2164    2.6811 C   0  0  0  0  0  0  0  0  0  0  0  0
   -6.1048    3.7696    0.7447 N   0  0  0  0  0  0  0  0  0  0  0  0
   -4.9278    4.1425    0.0084 C   0  0  0  0  0  0  0  0  0  0  0  0
   -4.2884    3.2312   -0.5928 O   0  0  0  0  0  0  0  0  0  0  0  0
    1.5834   -3.9756    0.5112 C   0  0  0  0  0  0  0  0  0  0  0  0
    2.6332   -3.5382    1.0538 O   0  0  0  0  0  0  0  0  0  0  0  0
    1.6106   -5.1865   -0.2643 N   0  0  0  0  0  0  0  0  0  0  0  0
    2.5670   -6.2942   -0.1148 C   0  0  2  0  0  0  0  0  0  0  0  0
    1.8177   -7.6292   -0.1730 C   0  0  0  0  0  0  0  0  0  0  0  0
    3.3660   -6.2088    1.1769 C   0  0  0  0  0  0  0  0  0  0  0  0
    2.7828   -6.4401    2.2709 O   0  0  0  0  0  0  0  0  0  0  0  0
    4.7584   -5.8538    1.2023 N   0  0  0  0  0  0  0  0  0  0  0  0
    5.5277   -5.4056    0.0336 C   0  0  2  0  0  0  0  0  0  0  0  0
    6.1148   -6.6241   -0.6956 C   0  0  0  0  0  0  0  0  0  0  0  0
    6.5840   -4.4155    0.4569 C   0  0  0  0  0  0  0  0  0  0  0  0
    6.2362   -3.3752    1.0867 O   0  0  0  0  0  0  0  0  0  0  0  0
    7.9603   -4.6073    0.1139 N   0  0  0  0  0  0  0  0  0  0  0  0
    8.7544   -3.6658   -0.6895 C   0  0  2  0  0  0  0  0  0  0  0  0
    7.8866   -2.6332   -1.4361 C   0  0  0  0  0  0  0  0  0  0  0  0
    9.5791   -4.4380   -1.6859 C   0  0  0  0  0  0  0  0  0  0  0  0
    9.0033   -5.0536   -2.6234 O   0  0  0  0  0  0  0  0  0  0  0  0
   11.0101   -4.4545   -1.6209 N   0  0  0  0  0  0  0  0  0  0  0  0
   11.7728   -5.0887   -0.5359 C   0  0  2  0  0  0  0  0  0  0  0  0
   11.4136   -6.5803   -0.4343 C   0  0  0  0  0  0  0  0  0  0  0  0
   11.5944   -4.3416    0.7679 C   0  0  0  0  0  0  0  0  0  0  0  0
   11.0507   -4.9192    1.7456 O   0  0  0  0  0  0  0  0  0  0  0  0
   12.0104   -2.9718    0.9206 N   0  0  0  0  0  0  0  0  0  0  0  0
   12.8720   -2.2492   -0.0210 C   0  0  2  0  0  0  0  0  0  0  0  0
   14.3204   -2.2906    0.4660 C   0  0  0  0  0  0  0  0  0  0  0  0
   12.3933   -0.8282   -0.1666 C   0  0  0  0  0  0  0  0  0  0  0  0
   12.0480   -0.4024   -1.3026 O   0  0  0  0  0  0  0  0  0  0  0  0
   12.2800    0.0276    0.9690 N   0  0  0  0  0  0  0  0  0  0  0  0
   13.3007    1.0358    1.2639 C   0  0  2  0  0  0  0  0  0  0  0  0
   13.0863    1.6202    2.6611 C   0  0  0  0  0  0  0  0  0  0  0  0
   13.2787    2.1335    0.2314 C   0  0  0  0  0  0  0  0  0  0  0  0
   14.3759    2.6077   -0.1702 O   0  0  0  0  0  0  0  0  0  0  0  0
   12.0290    2.6582   -0.2614 N   0  0  0  0  0  0  0  0  0  0  0  0
   11.8891    3.6343   -1.3558 C   0  0  2  0  0  0  0  0  0  0  0  0
   12.6247    3.1859   -2.6238 C   0  0  0  0  0  0  0  0  0  0  0  0
   12.3226    5.0062   -0.9130 C   0  0  0  0  0  0  0  0  0  0  0  0
   13.4926    5.2033   -0.4881 O   0  0  0  0  0  0  0  0  0  0  0  0
   11.4065    6.1066   -0.9867 N   0  0  0  0  0  0  0  0  0  0  0  0
   10.6609    6.6023    0.1693 C   0  0  2  0  0  0  0  0  0  0  0  0
   11.6001    6.9343    1.3354 C   0  0  0  0  0  0  0  0  0  0  0  0
    9.5917    5.5993    0.5598 C   0  0  0  0  0  0  0  0  0  0  0  0
    9.9133    4.6294    1.2947 O   0  0  0  0  0  0  0  0  0  0  0  0
    8.2548    5.6516    0.0312 N   0  0  0  0  0  0  0  0  0  0  0  0
    7.6868    6.7826   -0.7168 C   0  0  2  0  0  0  0  0  0  0  0  0
    7.3431    7.9566    0.2093 C   0  0  0  0  0  0  0  0  0  0  0  0
    6.4949    6.3458   -1.5555 C   0  0  0  0  0  0  0  0  0  0  0  0
    6.6412    6.3166   -2.8080 O   0  0  0  0  0  0  0  0  0  0  0  0
    5.2363    5.8992   -1.0105 N   0  0  0  0  0  0  0  0  0  0  0  0
    4.8929    5.7574    0.4089 C   0  0  1  0  0  0  0  0  0  0  0  0
    4.0252    6.9144    0.8361 C   0  0  0  0  0  0  0  0  0  0  0  0
    2.7842    7.1895    0.1861 N   0  0  0  0  0  0  0  0  0  0  0  0
    4.3901    7.6310    1.8097 O   0  0  0  0  0  0  0  0  0  0  0  0
    4.1817    4.4152    0.6380 C   0  0  0  0  0  0  0  0  0  0  0  0
    3.8808    4.1563    2.4258 S   0  0  0  0  0  0  0  0  0  0  0  0
    3.3560    2.4074    2.2921 C   0  0  0  0  0  0  0  0  0  0  0  0
   -4.8727    9.3854   -1.6625 H   0  0  0  0  0  0  0  0  0  0  0  0
   -4.3023    8.5336   -0.1849 H   0  0  0  0  0  0  0  0  0  0  0  0
   -5.9563    8.1897   -0.8635 H   0  0  0  0  0  0  0  0  0  0  0  0
   -3.9072    5.2454   -2.1812 H   0  0  0  0  0  0  0  0  0  0  0  0
   -5.1524    6.2531    0.3685 H   0  0  0  0  0  0  0  0  0  0  0  0
   -3.2772    5.4491    1.7584 H   0  0  0  0  0  0  0  0  0  0  0  0
   -2.8364    6.8226    0.7053 H   0  0  0  0  0  0  0  0  0  0  0  0
   -1.2902    4.2409    2.2680 H   0  0  0  0  0  0  0  0  0  0  0  0
   -2.3388    3.0210    1.4545 H   0  0  0  0  0  0  0  0  0  0  0  0
    0.9552    3.6478    2.6439 H   0  0  0  0  0  0  0  0  0  0  0  0
    2.9991    0.8734    0.0730 H   0  0  0  0  0  0  0  0  0  0  0  0
   -1.1663    1.7404   -0.5789 H   0  0  0  0  0  0  0  0  0  0  0  0
   -0.1100    0.0826   -1.9568 H   0  0  0  0  0  0  0  0  0  0  0  0
    1.5350    0.6560   -2.3293 H   0  0  0  0  0  0  0  0  0  0  0  0
   -0.6938   -1.5096   -0.3061 H   0  0  0  0  0  0  0  0  0  0  0  0
   -0.2839   -2.8470   -1.4404 H   0  0  0  0  0  0  0  0  0  0  0  0
    0.3444   -2.5729    1.5585 H   0  0  0  0  0  0  0  0  0  0  0  0
   -0.5934   -5.1300    1.0491 H   0  0  0  0  0  0  0  0  0  0  0  0
   -4.1868   -4.3301    0.0224 H   0  0  0  0  0  0  0  0  0  0  0  0
   -3.5496   -5.6748   -1.9488 H   0  0  0  0  0  0  0  0  0  0  0  0
   -1.7976   -5.4749   -1.5489 H   0  0  0  0  0  0  0  0  0  0  0  0
   -2.7934   -4.0404   -2.0173 H   0  0  0  0  0  0  0  0  0  0  0  0
   -2.2536   -6.4938    0.9292 H   0  0  0  0  0  0  0  0  0  0  0  0
   -6.1591   -7.6326    1.2678 H   0  0  0  0  0  0  0  0  0  0  0  0
   -5.5578   -4.6555    1.7444 H   0  0  0  0  0  0  0  0  0  0  0  0
   -6.9076   -5.6545    2.3761 H   0  0  0  0  0  0  0  0  0  0  0  0
   -5.2268   -5.9883    2.9259 H   0  0  0  0  0  0  0  0  0  0  0  0
   -6.1472   -5.2927   -0.7019 H   0  0  0  0  0  0  0  0  0  0  0  0
   -9.1271   -7.5860   -1.7822 H   0  0  0  0  0  0  0  0  0  0  0  0
   -8.5756   -9.2341   -0.0064 H   0  0  0  0  0  0  0  0  0  0  0  0
  -10.0695   -8.3143    0.3991 H   0  0  0  0  0  0  0  0  0  0  0  0
   -8.5266   -7.9116    1.2302 H   0  0  0  0  0  0  0  0  0  0  0  0
   -9.0101   -5.5138    0.4531 H   0  0  0  0  0  0  0  0  0  0  0  0
  -12.0934   -4.3109   -1.3570 H   0  0  0  0  0  0  0  0  0  0  0  0
  -12.4728   -6.4934   -2.3667 H   0  0  0  0  0  0  0  0  0  0  0  0
  -11.9006   -7.3503   -0.8865 H   0  0  0  0  0  0  0  0  0  0  0  0
  -13.4356   -6.4123   -0.8502 H   0  0  0  0  0  0  0  0  0  0  0  0
  -11.2890   -5.7978    1.2010 H   0  0  0  0  0  0  0  0  0  0  0  0
  -12.5991   -2.4767   -0.2598 H   0  0  0  0  0  0  0  0  0  0  0  0
  -15.1255   -2.6970   -0.1063 H   0  0  0  0  0  0  0  0  0  0  0  0
  -14.3332   -4.2690   -0.4234 H   0  0  0  0  0  0  0  0  0  0  0  0
  -14.9230   -3.8789    1.2370 H   0  0  0  0  0  0  0  0  0  0  0  0
  -13.7243   -1.8900    2.5120 H   0  0  0  0  0  0  0  0  0  0  0  0
  -12.1438    0.5715   -0.4099 H   0  0  0  0  0  0  0  0  0  0  0  0
  -14.5807    0.8288   -1.2501 H   0  0  0  0  0  0  0  0  0  0  0  0
  -13.9743   -0.8452   -1.1780 H   0  0  0  0  0  0  0  0  0  0  0  0
  -15.0896   -0.2198    0.1140 H   0  0  0  0  0  0  0  0  0  0  0  0
  -13.7851    1.8666    1.7631 H   0  0  0  0  0  0  0  0  0  0  0  0
  -12.7461    2.2004   -1.7967 H   0  0  0  0  0  0  0  0  0  0  0  0
  -13.4883    5.1717   -1.6649 H   0  0  0  0  0  0  0  0  0  0  0  0
  -13.1191    4.2015   -3.1518 H   0  0  0  0  0  0  0  0  0  0  0  0
  -14.5486    3.7984   -2.1383 H   0  0  0  0  0  0  0  0  0  0  0  0
  -10.5680    2.7793   -0.9095 H   0  0  0  0  0  0  0  0  0  0  0  0
   -8.6662    5.2987   -0.9090 H   0  0  0  0  0  0  0  0  0  0  0  0
  -10.9551    6.8744    0.4554 H   0  0  0  0  0  0  0  0  0  0  0  0
   -9.2053    7.0901    0.8451 H   0  0  0  0  0  0  0  0  0  0  0  0
   -9.8010    7.4729   -0.8066 H   0  0  0  0  0  0  0  0  0  0  0  0
  -10.5312    4.2048    1.2434 H   0  0  0  0  0  0  0  0  0  0  0  0
   -7.1947    5.5826    0.6567 H   0  0  0  0  0  0  0  0  0  0  0  0
   -6.4563    4.3778    3.3977 H   0  0  0  0  0  0  0  0  0  0  0  0
   -7.3288    5.9384    3.0948 H   0  0  0  0  0  0  0  0  0  0  0  0
   -5.6198    5.7406    2.5773 H   0  0  0  0  0  0  0  0  0  0  0  0
   -6.2834    2.7432    0.8485 H   0  0  0  0  0  0  0  0  0  0  0  0
    0.8864   -5.2877   -1.0113 H   0  0  0  0  0  0  0  0  0  0  0  0
    3.2339   -6.2750   -0.9959 H   0  0  0  0  0  0  0  0  0  0  0  0
    1.3337   -7.7464   -1.1655 H   0  0  0  0  0  0  0  0  0  0  0  0
    1.0283   -7.6664    0.6091 H   0  0  0  0  0  0  0  0  0  0  0  0
    2.5245   -8.4754   -0.0223 H   0  0  0  0  0  0  0  0  0  0  0  0
    5.2599   -5.9418    2.1161 H   0  0  0  0  0  0  0  0  0  0  0  0
    4.8635   -4.8529   -0.6604 H   0  0  0  0  0  0  0  0  0  0  0  0
    6.6886   -6.2968   -1.5870 H   0  0  0  0  0  0  0  0  0  0  0  0
    5.3029   -7.2994   -1.0399 H   0  0  0  0  0  0  0  0  0  0  0  0
    6.7779   -7.2005   -0.0177 H   0  0  0  0  0  0  0  0  0  0  0  0
    8.4338   -5.4622    0.4889 H   0  0  0  0  0  0  0  0  0  0  0  0
    9.4222   -3.0956   -0.0090 H   0  0  0  0  0  0  0  0  0  0  0  0
    7.1099   -3.1425   -2.0459 H   0  0  0  0  0  0  0  0  0  0  0  0
    8.5280   -2.0155   -2.0997 H   0  0  0  0  0  0  0  0  0  0  0  0
    7.3970   -1.9487   -0.7140 H   0  0  0  0  0  0  0  0  0  0  0  0
   11.5223   -4.2606   -2.5126 H   0  0  0  0  0  0  0  0  0  0  0  0
   12.8526   -5.0516   -0.7934 H   0  0  0  0  0  0  0  0  0  0  0  0
   11.5827   -7.0754   -1.4144 H   0  0  0  0  0  0  0  0  0  0  0  0
   10.3528   -6.7236   -0.1455 H   0  0  0  0  0  0  0  0  0  0  0  0
   12.0640   -7.0748    0.3192 H   0  0  0  0  0  0  0  0  0  0  0  0
   11.8295   -2.5270    1.8512 H   0  0  0  0  0  0  0  0  0  0  0  0
   12.8421   -2.7189   -1.0219 H   0  0  0  0  0  0  0  0  0  0  0  0
   14.9708   -1.6968   -0.2143 H   0  0  0  0  0  0  0  0  0  0  0  0
   14.6817   -3.3410    0.4673 H   0  0  0  0  0  0  0  0  0  0  0  0
   14.3960   -1.8872    1.4954 H   0  0  0  0  0  0  0  0  0  0  0  0
   11.3268    0.1279    1.4026 H   0  0  0  0  0  0  0  0  0  0  0  0
   14.2991    0.5476    1.2560 H   0  0  0  0  0  0  0  0  0  0  0  0
   13.9089    2.3266    2.9114 H   0  0  0  0  0  0  0  0  0  0  0  0
   13.0886    0.8051    3.4178 H   0  0  0  0  0  0  0  0  0  0  0  0
   12.1138    2.1591    2.7246 H   0  0  0  0  0  0  0  0  0  0  0  0
   11.1463    2.2640    0.1351 H   0  0  0  0  0  0  0  0  0  0  0  0
   10.8115    3.6922   -1.6186 H   0  0  0  0  0  0  0  0  0  0  0  0
   13.7300    3.2314   -2.5015 H   0  0  0  0  0  0  0  0  0  0  0  0
   12.3353    2.1435   -2.8797 H   0  0  0  0  0  0  0  0  0  0  0  0
   12.3410    3.8443   -3.4704 H   0  0  0  0  0  0  0  0  0  0  0  0
   11.2403    6.5401   -1.9219 H   0  0  0  0  0  0  0  0  0  0  0  0
   10.1949    7.5627   -0.1175 H   0  0  0  0  0  0  0  0  0  0  0  0
   12.3899    7.6401    0.9923 H   0  0  0  0  0  0  0  0  0  0  0  0
   12.0923    6.0162    1.7259 H   0  0  0  0  0  0  0  0  0  0  0  0
   11.0354    7.4132    2.1612 H   0  0  0  0  0  0  0  0  0  0  0  0
    7.6881    4.7739    0.1272 H   0  0  0  0  0  0  0  0  0  0  0  0
    8.4502    7.1347   -1.4435 H   0  0  0  0  0  0  0  0  0  0  0  0
    8.2424    8.5731    0.4035 H   0  0  0  0  0  0  0  0  0  0  0  0
    6.9746    7.6092    1.1935 H   0  0  0  0  0  0  0  0  0  0  0  0
    6.5786    8.6188   -0.2518 H   0  0  0  0  0  0  0  0  0  0  0  0
    4.4814    5.6870   -1.7073 H   0  0  0  0  0  0  0  0  0  0  0  0
    5.8094    5.7339    1.0272 H   0  0  0  0  0  0  0  0  0  0  0  0
    2.1739    7.9644    0.5324 H   0  0  0  0  0  0  0  0  0  0  0  0
    2.4758    6.6377   -0.6435 H   0  0  0  0  0  0  0  0  0  0  0  0
    4.8341    3.5987    0.2574 H   0  0  0  0  0  0  0  0  0  0  0  0
    3.2198    4.3852    0.0829 H   0  0  0  0  0  0  0  0  0  0  0  0
    3.1576    2.0246    3.3154 H   0  0  0  0  0  0  0  0  0  0  0  0
    4.1917    1.8054    1.8791 H   0  0  0  0  0  0  0  0  0  0  0  0
  1  2  1  0
  2  3  2  0
  2  4  1  0
  4  5  1  0
  5  6  1  0
  6  7  1  0
  7  8  1  0
  8  9  1  0
  9 10  2  0
 10 11  1  0
 11 12  2  0
 12 13  1  0
 13 14  2  0
 13 15  1  0
 15 16  1  0
 16 17  1  0
 17 18  1  0
 18 19  1  0
 19 20  1  0
 20 21  2  0
 20 22  1  0
 22 23  1  0
 22 24  1  0
 24 25  1  0
 25 26  2  0
 25 27  1  0
 27 28  1  0
 27 29  1  0
 29 30  1  0
 30 31  2  0
 30 32  1  0
 32 33  1  0
 32 34  1  0
 34 35  1  0
 35 36  2  0
 35 37  1  0
 37 38  1  0
 37 39  1  0
 39 40  1  0
 40 41  2  0
 40 42  1  0
 42 43  1  0
 42 44  1  0
 44 45  1  0
 45 46  2  0
 45 47  1  0
 47 48  1  0
 47 49  1  0
 49 50  1  0
 50 51  2  0
 50 52  1  0
 52 53  1  0
 52 54  1  0
 54 55  1  0
 55 56  2  0
 55 57  1  0
 57 58  1  0
 57 59  1  0
 59 60  1  0
 60 61  2  0
 60 62  1  0
 62 63  1  0
 62 64  1  0
 64 65  1  0
 65 66  2  0
 18 67  1  0
 67 68  2  0
 67 69  1  0
 69 70  1  0
 70 71  1  0
 70 72  1  0
 72 73  2  0
 72 74  1  0
 74 75  1  0
 75 76  1  0
 75 77  1  0
 77 78  2  0
 77 79  1  0
 79 80  1  0
 80 81  1  0
 80 82  1  0
 82 83  2  0
 82 84  1  0
 84 85  1  0
 85 86  1  0
 85 87  1  0
 87 88  2  0
 87 89  1  0
 89 90  1  0
 90 91  1  0
 90 92  1  0
 92 93  2  0
 92 94  1  0
 94 95  1  0
 95 96  1  0
 95 97  1  0
 97 98  2  0
 97 99  1  0
 99100  1  0
100101  1  0
100102  1  0
102103  2  0
102104  1  0
104105  1  0
105106  1  0
105107  1  0
107108  2  0
107109  1  0
109110  1  0
110111  1  0
110112  1  0
112113  2  0
112114  1  0
114115  1  0
115116  1  0
116117  1  0
116118  2  0
115119  1  0
119120  1  0
120121  1  0
 65  5  1  0
 14  9  1  0
121 11  1  0
  1122  1  0
  1123  1  0
  1124  1  0
  4125  1  0
  5126  1  1
  6127  1  0
  6128  1  0
  8129  1  0
  8130  1  0
 10131  1  0
 12132  1  0
 14133  1  0
 15134  1  0
 15135  1  0
 17136  1  0
 17137  1  0
 18138  1  1
 19139  1  0
 22140  1  6
 23141  1  0
 23142  1  0
 23143  1  0
 24144  1  0
 27145  1  1
 28146  1  0
 28147  1  0
 28148  1  0
 29149  1  0
 32150  1  6
 33151  1  0
 33152  1  0
 33153  1  0
 34154  1  0
 37155  1  6
 38156  1  0
 38157  1  0
 38158  1  0
 39159  1  0
 42160  1  6
 43161  1  0
 43162  1  0
 43163  1  0
 44164  1  0
 47165  1  6
 48166  1  0
 48167  1  0
 48168  1  0
 49169  1  0
 52170  1  6
 53171  1  0
 53172  1  0
 53173  1  0
 54174  1  0
 57175  1  6
 58176  1  0
 58177  1  0
 58178  1  0
 59179  1  0
 62180  1  6
 63181  1  0
 63182  1  0
 63183  1  0
 64184  1  0
 69185  1  0
 70186  1  6
 71187  1  0
 71188  1  0
 71189  1  0
 74190  1  0
 75191  1  6
 76192  1  0
 76193  1  0
 76194  1  0
 79195  1  0
 80196  1  1
 81197  1  0
 81198  1  0
 81199  1  0
 84200  1  0
 85201  1  6
 86202  1  0
 86203  1  0
 86204  1  0
 89205  1  0
 90206  1  6
 91207  1  0
 91208  1  0
 91209  1  0
 94210  1  0
 95211  1  1
 96212  1  0
 96213  1  0
 96214  1  0
 99215  1  0
100216  1  6
101217  1  0
101218  1  0
101219  1  0
104220  1  0
105221  1  6
106222  1  0
106223  1  0
106224  1  0
109225  1  0
110226  1  6
111227  1  0
111228  1  0
111229  1  0
114230  1  0
115231  1  1
117232  1  0
117233  1  0
119234  1  0
119235  1  0
121236  1  0
121237  1  0
M  END
