
     RDKit          3D

227229  0  0  0  0  0  0  0  0999 V2000
   -3.9115   -8.2684   -2.7866 C   0  0  0  0  0  0  0  0  0  0  0  0
   -3.5646   -7.9895   -1.3636 C   0  0  0  0  0  0  0  0  0  0  0  0
   -3.3537   -8.9578   -0.5746 O   0  0  0  0  0  0  0  0  0  0  0  0
   -3.4083   -6.6334   -0.9151 N   0  0  0  0  0  0  0  0  0  0  0  0
   -3.3487   -6.2287    0.4951 C   0  0  2  0  0  0  0  0  0  0  0  0
   -2.0757   -6.7599    1.1810 C   0  0  0  0  0  0  0  0  0  0  0  0
   -0.5861   -6.2298    0.2620 S   0  0  0  0  0  0  0  0  0  0  0  0
   -0.2602   -4.6737    1.1735 C   0  0  0  0  0  0  0  0  0  0  0  0
    0.0082   -3.5232    0.2307 C   0  0  0  0  0  0  0  0  0  0  0  0
   -0.5834   -2.2671    0.4558 C   0  0  0  0  0  0  0  0  0  0  0  0
   -0.2023   -1.1480   -0.3090 C   0  0  0  0  0  0  0  0  0  0  0  0
    0.7346   -1.3050   -1.3405 C   0  0  0  0  0  0  0  0  0  0  0  0
    1.2910   -2.5685   -1.6167 C   0  0  0  0  0  0  0  0  0  0  0  0
    0.9415   -3.6646   -0.8125 C   0  0  0  0  0  0  0  0  0  0  0  0
    2.3203   -2.7296   -2.7055 C   0  0  0  0  0  0  0  0  0  0  0  0
    4.0007   -2.6174   -1.9933 S   0  0  0  0  0  0  0  0  0  0  0  0
    4.3489   -4.4225   -1.9214 C   0  0  0  0  0  0  0  0  0  0  0  0
    5.1661   -4.7570   -0.6692 C   0  0  1  0  0  0  0  0  0  0  0  0
    4.3663   -4.4938    0.5815 C   0  0  0  0  0  0  0  0  0  0  0  0
    4.6581   -3.3634    1.4010 N   0  0  0  0  0  0  0  0  0  0  0  0
    3.4198   -5.2645    0.8985 O   0  0  0  0  0  0  0  0  0  0  0  0
    5.5597   -6.1760   -0.7068 N   0  0  0  0  0  0  0  0  0  0  0  0
    6.9016   -6.6909   -0.5985 C   0  0  0  0  0  0  0  0  0  0  0  0
    7.0472   -7.9101   -0.3006 O   0  0  0  0  0  0  0  0  0  0  0  0
    8.1474   -5.8619   -0.8294 C   0  0  1  0  0  0  0  0  0  0  0  0
    8.1585   -5.2583   -2.2389 C   0  0  0  0  0  0  0  0  0  0  0  0
    8.3088   -4.8464    0.2199 N   0  0  0  0  0  0  0  0  0  0  0  0
    9.3187   -3.8272    0.1865 C   0  0  0  0  0  0  0  0  0  0  0  0
    8.9716   -2.6398   -0.0566 O   0  0  0  0  0  0  0  0  0  0  0  0
   10.7650   -4.0985    0.5397 C   0  0  1  0  0  0  0  0  0  0  0  0
   11.0328   -5.5346    1.0027 C   0  0  0  0  0  0  0  0  0  0  0  0
   11.6221   -3.7840   -0.6073 N   0  0  0  0  0  0  0  0  0  0  0  0
   12.8075   -2.9648   -0.5648 C   0  0  0  0  0  0  0  0  0  0  0  0
   13.6559   -3.0913   -1.4903 O   0  0  0  0  0  0  0  0  0  0  0  0
   13.0910   -1.9829    0.5532 C   0  0  1  0  0  0  0  0  0  0  0  0
   13.9465   -2.6494    1.6331 C   0  0  0  0  0  0  0  0  0  0  0  0
   13.7942   -0.8104    0.0239 N   0  0  0  0  0  0  0  0  0  0  0  0
   13.3198    0.5517    0.0531 C   0  0  0  0  0  0  0  0  0  0  0  0
   14.0283    1.4396   -0.5059 O   0  0  0  0  0  0  0  0  0  0  0  0
   12.0508    0.9680    0.7617 C   0  0  1  0  0  0  0  0  0  0  0  0
   12.2970    0.9982    2.2821 C   0  0  0  0  0  0  0  0  0  0  0  0
   11.5919    2.2669    0.2420 N   0  0  0  0  0  0  0  0  0  0  0  0
   11.0550    3.3069    1.0642 C   0  0  0  0  0  0  0  0  0  0  0  0
   11.8024    4.2604    1.4190 O   0  0  0  0  0  0  0  0  0  0  0  0
    9.6043    3.2519    1.4805 C   0  0  1  0  0  0  0  0  0  0  0  0
    9.2301    4.2609    2.5779 C   0  0  0  0  0  0  0  0  0  0  0  0
    8.7066    3.3462    0.3237 N   0  0  0  0  0  0  0  0  0  0  0  0
    8.7465    4.3258   -0.7367 C   0  0  0  0  0  0  0  0  0  0  0  0
    8.2157    4.0314   -1.8414 O   0  0  0  0  0  0  0  0  0  0  0  0
    9.3200    5.7143   -0.5546 C   0  0  1  0  0  0  0  0  0  0  0  0
   10.0212    6.1758   -1.8379 C   0  0  0  0  0  0  0  0  0  0  0  0
    8.2955    6.7047   -0.1824 N   0  0  0  0  0  0  0  0  0  0  0  0
    7.0640    6.3922    0.4901 C   0  0  0  0  0  0  0  0  0  0  0  0
    7.0025    6.5090    1.7446 O   0  0  0  0  0  0  0  0  0  0  0  0
    5.8200    5.9914   -0.2749 C   0  0  1  0  0  0  0  0  0  0  0  0
    5.8105    6.6217   -1.6748 C   0  0  0  0  0  0  0  0  0  0  0  0
    5.7203    4.5336   -0.3294 N   0  0  0  0  0  0  0  0  0  0  0  0
    4.8548    3.8444   -1.2344 C   0  0  0  0  0  0  0  0  0  0  0  0
    5.3572    3.0539   -2.0811 O   0  0  0  0  0  0  0  0  0  0  0  0
    3.3614    3.9369   -1.0858 C   0  0  1  0  0  0  0  0  0  0  0  0
    2.6590    3.9815   -2.4433 C   0  0  0  0  0  0  0  0  0  0  0  0
    2.8958    2.7836   -0.3169 N   0  0  0  0  0  0  0  0  0  0  0  0
    2.1101    2.9447    0.8619 C   0  0  0  0  0  0  0  0  0  0  0  0
    2.6438    2.7666    1.9912 O   0  0  0  0  0  0  0  0  0  0  0  0
    0.6501    3.3120    0.7509 C   0  0  1  0  0  0  0  0  0  0  0  0
   -0.2407    2.4631    1.6748 C   0  0  0  0  0  0  0  0  0  0  0  0
    0.1823    0.6761    1.6533 S   0  0  0  0  0  0  0  0  0  0  0  0
   -0.6697    0.2254    0.1046 C   0  0  0  0  0  0  0  0  0  0  0  0
    0.4948    4.7312    1.0686 N   0  0  0  0  0  0  0  0  0  0  0  0
    0.1115    5.6823    0.0697 C   0  0  0  0  0  0  0  0  0  0  0  0
    0.9849    6.4492   -0.4059 O   0  0  0  0  0  0  0  0  0  0  0  0
   -1.3143    5.7263   -0.4260 C   0  0  1  0  0  0  0  0  0  0  0  0
   -1.6818    7.1371   -0.9066 C   0  0  0  0  0  0  0  0  0  0  0  0
   -1.4984    4.7610   -1.5138 N   0  0  0  0  0  0  0  0  0  0  0  0
   -2.6424    3.9036   -1.6379 C   0  0  0  0  0  0  0  0  0  0  0  0
   -2.5127    2.8028   -2.2391 O   0  0  0  0  0  0  0  0  0  0  0  0
   -4.0206    4.3248   -1.1734 C   0  0  1  0  0  0  0  0  0  0  0  0
   -4.9131    4.5959   -2.3826 C   0  0  0  0  0  0  0  0  0  0  0  0
   -4.6141    3.2789   -0.3403 N   0  0  0  0  0  0  0  0  0  0  0  0
   -5.0297    3.5009    1.0167 C   0  0  0  0  0  0  0  0  0  0  0  0
   -4.4944    2.8168    1.9326 O   0  0  0  0  0  0  0  0  0  0  0  0
   -6.1763    4.4223    1.3661 C   0  0  1  0  0  0  0  0  0  0  0  0
   -5.8394    5.9026    1.1312 C   0  0  0  0  0  0  0  0  0  0  0  0
   -7.3877    4.0365    0.6376 N   0  0  0  0  0  0  0  0  0  0  0  0
   -8.6770    4.5128    1.0474 C   0  0  0  0  0  0  0  0  0  0  0  0
   -9.0023    5.7055    0.7953 O   0  0  0  0  0  0  0  0  0  0  0  0
   -9.6120    3.6144    1.8167 C   0  0  1  0  0  0  0  0  0  0  0  0
   -9.3535    3.7427    3.3215 C   0  0  0  0  0  0  0  0  0  0  0  0
  -11.0014    3.9606    1.5254 N   0  0  0  0  0  0  0  0  0  0  0  0
  -11.9705    2.9666    1.1841 C   0  0  0  0  0  0  0  0  0  0  0  0
  -12.4379    2.2232    2.0865 O   0  0  0  0  0  0  0  0  0  0  0  0
  -12.3948    2.7550   -0.2421 C   0  0  1  0  0  0  0  0  0  0  0  0
  -12.3191    4.0424   -1.0661 C   0  0  0  0  0  0  0  0  0  0  0  0
  -11.5365    1.7308   -0.8485 N   0  0  0  0  0  0  0  0  0  0  0  0
  -11.9496    0.4048   -1.2287 C   0  0  0  0  0  0  0  0  0  0  0  0
  -11.1438   -0.2987   -1.8948 O   0  0  0  0  0  0  0  0  0  0  0  0
  -13.3272   -0.1480   -0.9197 C   0  0  1  0  0  0  0  0  0  0  0  0
  -14.2615    0.1031   -2.1013 C   0  0  0  0  0  0  0  0  0  0  0  0
  -13.2400   -1.5866   -0.6537 N   0  0  0  0  0  0  0  0  0  0  0  0
  -13.2272   -2.0684    0.6910 C   0  0  0  0  0  0  0  0  0  0  0  0
  -14.3086   -2.4271    1.2306 O   0  0  0  0  0  0  0  0  0  0  0  0
  -11.9226   -2.1771    1.4307 C   0  0  1  0  0  0  0  0  0  0  0  0
  -12.0284   -1.5708    2.8311 C   0  0  0  0  0  0  0  0  0  0  0  0
  -11.4945   -3.5741    1.4936 N   0  0  0  0  0  0  0  0  0  0  0  0
  -11.2445   -4.3377    0.3134 C   0  0  0  0  0  0  0  0  0  0  0  0
  -12.2053   -4.9071   -0.2754 O   0  0  0  0  0  0  0  0  0  0  0  0
   -9.8342   -4.5639   -0.1619 C   0  0  1  0  0  0  0  0  0  0  0  0
   -9.1691   -3.2166   -0.4784 C   0  0  0  0  0  0  0  0  0  0  0  0
   -9.1013   -5.3545    0.8430 N   0  0  0  0  0  0  0  0  0  0  0  0
   -7.7445   -5.1329    1.2462 C   0  0  0  0  0  0  0  0  0  0  0  0
   -7.4845   -4.9641    2.4700 O   0  0  0  0  0  0  0  0  0  0  0  0
   -6.6155   -5.2765    0.2583 C   0  0  1  0  0  0  0  0  0  0  0  0
   -5.7199   -4.0269    0.2843 C   0  0  0  0  0  0  0  0  0  0  0  0
   -5.8931   -6.5285    0.5299 N   0  0  0  0  0  0  0  0  0  0  0  0
   -4.6221   -6.6443    1.1936 C   0  0  0  0  0  0  0  0  0  0  0  0
   -4.5775   -7.2041    2.3262 O   0  0  0  0  0  0  0  0  0  0  0  0
   -3.9424   -9.3621   -2.9762 H   0  0  0  0  0  0  0  0  0  0  0  0
   -3.1512   -7.8051   -3.4481 H   0  0  0  0  0  0  0  0  0  0  0  0
   -4.9107   -7.8383   -3.0106 H   0  0  0  0  0  0  0  0  0  0  0  0
   -3.4535   -5.8791   -1.6391 H   0  0  0  0  0  0  0  0  0  0  0  0
   -3.2783   -5.1276    0.5342 H   0  0  0  0  0  0  0  0  0  0  0  0
   -2.0320   -6.4126    2.2380 H   0  0  0  0  0  0  0  0  0  0  0  0
   -2.0765   -7.8690    1.2201 H   0  0  0  0  0  0  0  0  0  0  0  0
   -1.0980   -4.4178    1.8550 H   0  0  0  0  0  0  0  0  0  0  0  0
    0.6455   -4.8371    1.7970 H   0  0  0  0  0  0  0  0  0  0  0  0
   -1.2704   -2.1361    1.2827 H   0  0  0  0  0  0  0  0  0  0  0  0
    1.0487   -0.4442   -1.9259 H   0  0  0  0  0  0  0  0  0  0  0  0
    1.4053   -4.6287   -0.9854 H   0  0  0  0  0  0  0  0  0  0  0  0
    2.2115   -1.9137   -3.4492 H   0  0  0  0  0  0  0  0  0  0  0  0
    2.1595   -3.6770   -3.2585 H   0  0  0  0  0  0  0  0  0  0  0  0
    4.9326   -4.6859   -2.8258 H   0  0  0  0  0  0  0  0  0  0  0  0
    3.4251   -5.0371   -1.9348 H   0  0  0  0  0  0  0  0  0  0  0  0
    6.0511   -4.0992   -0.6587 H   0  0  0  0  0  0  0  0  0  0  0  0
    5.4180   -2.6909    1.1402 H   0  0  0  0  0  0  0  0  0  0  0  0
    4.0694   -3.1570    2.2367 H   0  0  0  0  0  0  0  0  0  0  0  0
    4.7904   -6.8790   -0.7110 H   0  0  0  0  0  0  0  0  0  0  0  0
    9.0168   -6.5511   -0.7754 H   0  0  0  0  0  0  0  0  0  0  0  0
    9.1547   -4.8138   -2.4484 H   0  0  0  0  0  0  0  0  0  0  0  0
    7.4003   -4.4642   -2.3675 H   0  0  0  0  0  0  0  0  0  0  0  0
    7.9805   -6.0545   -2.9889 H   0  0  0  0  0  0  0  0  0  0  0  0
    7.6004   -4.7790    0.9885 H   0  0  0  0  0  0  0  0  0  0  0  0
   11.0021   -3.4542    1.4086 H   0  0  0  0  0  0  0  0  0  0  0  0
   11.0308   -6.2371    0.1447 H   0  0  0  0  0  0  0  0  0  0  0  0
   10.2828   -5.8513    1.7568 H   0  0  0  0  0  0  0  0  0  0  0  0
   12.0376   -5.5863    1.4747 H   0  0  0  0  0  0  0  0  0  0  0  0
   11.4402   -4.3058   -1.4938 H   0  0  0  0  0  0  0  0  0  0  0  0
   12.1375   -1.6743    1.0124 H   0  0  0  0  0  0  0  0  0  0  0  0
   13.4269   -3.5370    2.0534 H   0  0  0  0  0  0  0  0  0  0  0  0
   14.1416   -1.9356    2.4607 H   0  0  0  0  0  0  0  0  0  0  0  0
   14.9233   -2.9767    1.2117 H   0  0  0  0  0  0  0  0  0  0  0  0
   14.7346   -0.9683   -0.4116 H   0  0  0  0  0  0  0  0  0  0  0  0
   11.2475    0.2372    0.5356 H   0  0  0  0  0  0  0  0  0  0  0  0
   11.3630    1.2371    2.8285 H   0  0  0  0  0  0  0  0  0  0  0  0
   13.0751    1.7532    2.5331 H   0  0  0  0  0  0  0  0  0  0  0  0
   12.6441    0.0111    2.6440 H   0  0  0  0  0  0  0  0  0  0  0  0
   11.4705    2.3752   -0.7920 H   0  0  0  0  0  0  0  0  0  0  0  0
    9.4510    2.2505    1.9394 H   0  0  0  0  0  0  0  0  0  0  0  0
    8.1747    4.0976    2.8782 H   0  0  0  0  0  0  0  0  0  0  0  0
    9.8733    4.0978    3.4704 H   0  0  0  0  0  0  0  0  0  0  0  0
    9.3469    5.3115    2.2567 H   0  0  0  0  0  0  0  0  0  0  0  0
    8.0856    2.5225    0.1636 H   0  0  0  0  0  0  0  0  0  0  0  0
   10.0941    5.7122    0.2275 H   0  0  0  0  0  0  0  0  0  0  0  0
   10.5466    7.1409   -1.6630 H   0  0  0  0  0  0  0  0  0  0  0  0
   10.7715    5.4242   -2.1587 H   0  0  0  0  0  0  0  0  0  0  0  0
    9.2811    6.3243   -2.6555 H   0  0  0  0  0  0  0  0  0  0  0  0
    8.6333    7.6884   -0.0584 H   0  0  0  0  0  0  0  0  0  0  0  0
    4.9390    6.3832    0.2794 H   0  0  0  0  0  0  0  0  0  0  0  0
    4.8333    6.4511   -2.1681 H   0  0  0  0  0  0  0  0  0  0  0  0
    6.6114    6.1871   -2.3075 H   0  0  0  0  0  0  0  0  0  0  0  0
    5.9672    7.7197   -1.6048 H   0  0  0  0  0  0  0  0  0  0  0  0
    6.0486    3.9788    0.4964 H   0  0  0  0  0  0  0  0  0  0  0  0
    3.1192    4.8749   -0.5425 H   0  0  0  0  0  0  0  0  0  0  0  0
    2.8565    3.0508   -3.0185 H   0  0  0  0  0  0  0  0  0  0  0  0
    1.5661    4.0740   -2.2955 H   0  0  0  0  0  0  0  0  0  0  0  0
    3.0076    4.8559   -3.0305 H   0  0  0  0  0  0  0  0  0  0  0  0
    3.2309    1.8234   -0.5565 H   0  0  0  0  0  0  0  0  0  0  0  0
    0.3288    3.1252   -0.2948 H   0  0  0  0  0  0  0  0  0  0  0  0
   -0.1191    2.8233    2.7223 H   0  0  0  0  0  0  0  0  0  0  0  0
   -1.3079    2.5992    1.3989 H   0  0  0  0  0  0  0  0  0  0  0  0
   -1.7632    0.2045    0.2873 H   0  0  0  0  0  0  0  0  0  0  0  0
   -0.4591    0.9718   -0.6900 H   0  0  0  0  0  0  0  0  0  0  0  0
    0.9014    5.0974    1.9579 H   0  0  0  0  0  0  0  0  0  0  0  0
   -1.9708    5.4708    0.4321 H   0  0  0  0  0  0  0  0  0  0  0  0
   -2.7498    7.1786   -1.2047 H   0  0  0  0  0  0  0  0  0  0  0  0
   -1.5201    7.8739   -0.0880 H   0  0  0  0  0  0  0  0  0  0  0  0
   -1.0630    7.4297   -1.7820 H   0  0  0  0  0  0  0  0  0  0  0  0
   -0.7184    4.6209   -2.1938 H   0  0  0  0  0  0  0  0  0  0  0  0
   -3.9455    5.2611   -0.5960 H   0  0  0  0  0  0  0  0  0  0  0  0
   -5.0457    3.6715   -2.9898 H   0  0  0  0  0  0  0  0  0  0  0  0
   -5.9138    4.9416   -2.0451 H   0  0  0  0  0  0  0  0  0  0  0  0
   -4.4721    5.3943   -3.0140 H   0  0  0  0  0  0  0  0  0  0  0  0
   -4.5700    2.2878   -0.6695 H   0  0  0  0  0  0  0  0  0  0  0  0
   -6.3730    4.3069    2.4552 H   0  0  0  0  0  0  0  0  0  0  0  0
   -4.8171    6.1326    1.4948 H   0  0  0  0  0  0  0  0  0  0  0  0
   -5.9293    6.1617    0.0579 H   0  0  0  0  0  0  0  0  0  0  0  0
   -6.5542    6.5378    1.6915 H   0  0  0  0  0  0  0  0  0  0  0  0
   -7.3069    3.6549   -0.3340 H   0  0  0  0  0  0  0  0  0  0  0  0
   -9.4164    2.5599    1.5151 H   0  0  0  0  0  0  0  0  0  0  0  0
   -9.5376    4.7841    3.6599 H   0  0  0  0  0  0  0  0  0  0  0  0
  -10.0300    3.0586    3.8725 H   0  0  0  0  0  0  0  0  0  0  0  0
   -8.3070    3.4620    3.5597 H   0  0  0  0  0  0  0  0  0  0  0  0
  -11.3320    4.9473    1.6391 H   0  0  0  0  0  0  0  0  0  0  0  0
  -13.4584    2.4512   -0.2511 H   0  0  0  0  0  0  0  0  0  0  0  0
  -12.9607    4.8303   -0.6134 H   0  0  0  0  0  0  0  0  0  0  0  0
  -11.2731    4.4133   -1.1334 H   0  0  0  0  0  0  0  0  0  0  0  0
  -12.6879    3.8443   -2.0963 H   0  0  0  0  0  0  0  0  0  0  0  0
  -10.5332    1.9831   -1.0056 H   0  0  0  0  0  0  0  0  0  0  0  0
  -13.7495    0.3457   -0.0216 H   0  0  0  0  0  0  0  0  0  0  0  0
  -14.2780    1.1839   -2.3544 H   0  0  0  0  0  0  0  0  0  0  0  0
  -13.9221   -0.4710   -2.9898 H   0  0  0  0  0  0  0  0  0  0  0  0
  -15.2891   -0.2174   -1.8396 H   0  0  0  0  0  0  0  0  0  0  0  0
  -12.8757   -2.2221   -1.3941 H   0  0  0  0  0  0  0  0  0  0  0  0
  -11.1552   -1.5945    0.8729 H   0  0  0  0  0  0  0  0  0  0  0  0
  -11.0218   -1.5479    3.3009 H   0  0  0  0  0  0  0  0  0  0  0  0
  -12.4105   -0.5300    2.7707 H   0  0  0  0  0  0  0  0  0  0  0  0
  -12.7083   -2.1722    3.4698 H   0  0  0  0  0  0  0  0  0  0  0  0
  -11.2989   -4.0254    2.4231 H   0  0  0  0  0  0  0  0  0  0  0  0
   -9.8716   -5.1598   -1.1047 H   0  0  0  0  0  0  0  0  0  0  0  0
   -9.8545   -2.5844   -1.0788 H   0  0  0  0  0  0  0  0  0  0  0  0
   -8.9094   -2.6757    0.4575 H   0  0  0  0  0  0  0  0  0  0  0  0
   -8.2616   -3.3652   -1.0924 H   0  0  0  0  0  0  0  0  0  0  0  0
   -9.6121   -6.1398    1.3194 H   0  0  0  0  0  0  0  0  0  0  0  0
   -7.0416   -5.3531   -0.7654 H   0  0  0  0  0  0  0  0  0  0  0  0
   -5.0017   -4.0675   -0.5578 H   0  0  0  0  0  0  0  0  0  0  0  0
   -5.1814   -3.9340    1.2498 H   0  0  0  0  0  0  0  0  0  0  0  0
   -6.3275   -3.1094    0.1519 H   0  0  0  0  0  0  0  0  0  0  0  0
   -6.4591   -7.4083    0.4740 H   0  0  0  0  0  0  0  0  0  0  0  0
  1  2  1  0
  2  3  2  0
  2  4  1  0
  4  5  1  0
  5  6  1  0
  6  7  1  0
  7  8  1  0
  8  9  1  0
  9 10  1  0
 10 11  2  0
 11 12  1  0
 12 13  2  0
 13 14  1  0
 13 15  1  0
 15 16  1  0
 16 17  1  0
 17 18  1  0
 18 19  1  0
 19 20  1  0
 19 21  2  0
 18 22  1  0
 22 23  1  0
 23 24  2  0
 23 25  1  0
 25 26  1  0
 25 27  1  0
 27 28  1  0
 28 29  2  0
 28 30  1  0
 30 31  1  0
 30 32  1  0
 32 33  1  0
 33 34  2  0
 33 35  1  0
 35 36  1  0
 35 37  1  0
 37 38  1  0
 38 39  2  0
 38 40  1  0
 40 41  1  0
 40 42  1  0
 42 43  1  0
 43 44  2  0
 43 45  1  0
 45 46  1  0
 45 47  1  0
 47 48  1  0
 48 49  2  0
 48 50  1  0
 50 51  1  0
 50 52  1  0
 52 53  1  0
 53 54  2  0
 53 55  1  0
 55 56  1  0
 55 57  1  0
 57 58  1  0
 58 59  2  0
 58 60  1  0
 60 61  1  0
 60 62  1  0
 62 63  1  0
 63 64  2  0
 63 65  1  0
 65 66  1  0
 66 67  1  0
 67 68  1  0
 65 69  1  0
 69 70  1  0
 70 71  2  0
 70 72  1  0
 72 73  1  0
 72 74  1  0
 74 75  1  0
 75 76  2  0
 75 77  1  0
 77 78  1  0
 77 79  1  0
 79 80  1  0
 80 81  2  0
 80 82  1  0
 82 83  1  0
 82 84  1  0
 84 85  1  0
 85 86  2  0
 85 87  1  0
 87 88  1  0
 87 89  1  0
 89 90  1  0
 90 91  2  0
 90 92  1  0
 92 93  1  0
 92 94  1  0
 94 95  1  0
 95 96  2  0
 95 97  1  0
 97 98  1  0
 97 99  1  0
 99100  1  0
100101  2  0
100102  1  0
102103  1  0
102104  1  0
104105  1  0
105106  2  0
105107  1  0
107108  1  0
107109  1  0
109110  1  0
110111  2  0
110112  1  0
112113  1  0
112114  1  0
114115  1  0
115116  2  0
115  5  1  0
 14  9  2  0
 68 11  1  0
  1117  1  0
  1118  1  0
  1119  1  0
  4120  1  0
  5121  1  6
  6122  1  0
  6123  1  0
  8124  1  0
  8125  1  0
 10126  1  0
 12127  1  0
 14128  1  0
 15129  1  0
 15130  1  0
 17131  1  0
 17132  1  0
 18133  1  1
 20134  1  0
 20135  1  0
 22136  1  0
 25137  1  6
 26138  1  0
 26139  1  0
 26140  1  0
 27141  1  0
 30142  1  1
 31143  1  0
 31144  1  0
 31145  1  0
 32146  1  0
 35147  1  1
 36148  1  0
 36149  1  0
 36150  1  0
 37151  1  0
 40152  1  1
 41153  1  0
 41154  1  0
 41155  1  0
 42156  1  0
 45157  1  1
 46158  1  0
 46159  1  0
 46160  1  0
 47161  1  0
 50162  1  1
 51163  1  0
 51164  1  0
 51165  1  0
 52166  1  0
 55167  1  1
 56168  1  0
 56169  1  0
 56170  1  0
 57171  1  0
 60172  1  1
 61173  1  0
 61174  1  0
 61175  1  0
 62176  1  0
 65177  1  6
 66178  1  0
 66179  1  0
 68180  1  0
 68181  1  0
 69182  1  0
 72183  1  1
 73184  1  0
 73185  1  0
 73186  1  0
 74187  1  0
 77188  1  1
 78189  1  0
 78190  1  0
 78191  1  0
 79192  1  0
 82193  1  1
 83194  1  0
 83195  1  0
 83196  1  0
 84197  1  0
 87198  1  6
 88199  1  0
 88200  1  0
 88201  1  0
 89202  1  0
 92203  1  1
 93204  1  0
 93205  1  0
 93206  1  0
 94207  1  0
 97208  1  1
 98209  1  0
 98210  1  0
 98211  1  0
 99212  1  0
102213  1  6
103214  1  0
103215  1  0
103216  1  0
104217  1  0
107218  1  6
108219  1  0
108220  1  0
108221  1  0
109222  1  0
112223  1  6
113224  1  0
113225  1  0
113226  1  0
114227  1  0
M  END
