
     RDKit          3D

237239  0  0  0  0  0  0  0  0999 V2000
   -5.0010   -8.8199    1.9680 C   0  0  0  0  0  0  0  0  0  0  0  0
   -4.8344   -8.7636    0.4800 C   0  0  0  0  0  0  0  0  0  0  0  0
   -5.1353   -9.7762   -0.2085 O   0  0  0  0  0  0  0  0  0  0  0  0
   -4.3510   -7.5825   -0.1808 N   0  0  0  0  0  0  0  0  0  0  0  0
   -4.2978   -6.2601    0.4571 C   0  0  1  0  0  0  0  0  0  0  0  0
   -3.0547   -5.4689    0.0152 C   0  0  0  0  0  0  0  0  0  0  0  0
   -2.9051   -5.2789   -1.8028 S   0  0  0  0  0  0  0  0  0  0  0  0
   -1.0914   -5.5267   -1.8782 C   0  0  0  0  0  0  0  0  0  0  0  0
   -0.3542   -4.4219   -1.1565 C   0  0  0  0  0  0  0  0  0  0  0  0
   -0.3405   -3.1287   -1.6875 C   0  0  0  0  0  0  0  0  0  0  0  0
    0.2813   -2.0756   -0.9956 C   0  0  0  0  0  0  0  0  0  0  0  0
    0.9176   -2.3328    0.2285 C   0  0  0  0  0  0  0  0  0  0  0  0
    0.9371   -3.6318    0.7544 C   0  0  0  0  0  0  0  0  0  0  0  0
    0.2983   -4.6734    0.0607 C   0  0  0  0  0  0  0  0  0  0  0  0
    1.6373   -3.9010    2.0669 C   0  0  0  0  0  0  0  0  0  0  0  0
    3.4104   -3.4669    1.9830 S   0  0  0  0  0  0  0  0  0  0  0  0
    3.9294   -4.9754    1.0726 C   0  0  0  0  0  0  0  0  0  0  0  0
    5.4363   -4.9870    0.7670 C   0  0  1  0  0  0  0  0  0  0  0  0
    5.8132   -3.8149   -0.1063 C   0  0  0  0  0  0  0  0  0  0  0  0
    6.2233   -2.5693    0.4645 N   0  0  0  0  0  0  0  0  0  0  0  0
    5.7445   -3.9222   -1.3554 O   0  0  0  0  0  0  0  0  0  0  0  0
    6.2318   -5.0018    2.0053 N   0  0  0  0  0  0  0  0  0  0  0  0
    7.6594   -5.1794    2.0432 C   0  0  0  0  0  0  0  0  0  0  0  0
    8.3270   -4.4735    2.8470 O   0  0  0  0  0  0  0  0  0  0  0  0
    8.3865   -6.2387    1.2478 C   0  0  1  0  0  0  0  0  0  0  0  0
    7.7870   -7.6274    1.4904 C   0  0  0  0  0  0  0  0  0  0  0  0
    8.4083   -5.9229   -0.1809 N   0  0  0  0  0  0  0  0  0  0  0  0
    9.6413   -5.7591   -0.8878 C   0  0  0  0  0  0  0  0  0  0  0  0
   10.1013   -6.7289   -1.5507 O   0  0  0  0  0  0  0  0  0  0  0  0
   10.3728   -4.4423   -0.9039 C   0  0  1  0  0  0  0  0  0  0  0  0
    9.4179   -3.2743   -1.1660 C   0  0  0  0  0  0  0  0  0  0  0  0
   11.0685   -4.2363    0.3668 N   0  0  0  0  0  0  0  0  0  0  0  0
   12.4925   -4.2062    0.5777 C   0  0  0  0  0  0  0  0  0  0  0  0
   12.9199   -4.2227    1.7669 O   0  0  0  0  0  0  0  0  0  0  0  0
   13.5159   -4.1168   -0.5320 C   0  0  1  0  0  0  0  0  0  0  0  0
   13.7790   -5.5078   -1.1245 C   0  0  0  0  0  0  0  0  0  0  0  0
   13.1370   -3.1564   -1.5796 N   0  0  0  0  0  0  0  0  0  0  0  0
   13.2235   -1.7262   -1.4507 C   0  0  0  0  0  0  0  0  0  0  0  0
   13.4401   -1.0437   -2.4844 O   0  0  0  0  0  0  0  0  0  0  0  0
   13.1320   -1.0196   -0.1117 C   0  0  1  0  0  0  0  0  0  0  0  0
   14.5211   -0.6069    0.3756 C   0  0  0  0  0  0  0  0  0  0  0  0
   12.2099    0.1228   -0.1972 N   0  0  0  0  0  0  0  0  0  0  0  0
   12.5323    1.3599   -0.8524 C   0  0  0  0  0  0  0  0  0  0  0  0
   12.0569    1.5891   -1.9988 O   0  0  0  0  0  0  0  0  0  0  0  0
   13.2437    2.4593   -0.1149 C   0  0  1  0  0  0  0  0  0  0  0  0
   14.2474    3.1583   -1.0417 C   0  0  0  0  0  0  0  0  0  0  0  0
   12.2344    3.3640    0.4657 N   0  0  0  0  0  0  0  0  0  0  0  0
   12.1702    4.7864    0.2857 C   0  0  0  0  0  0  0  0  0  0  0  0
   13.2124    5.4911    0.3526 O   0  0  0  0  0  0  0  0  0  0  0  0
   10.8413    5.4575    0.0681 C   0  0  1  0  0  0  0  0  0  0  0  0
   10.0389    4.7220   -1.0028 C   0  0  0  0  0  0  0  0  0  0  0  0
   10.0890    5.5210    1.3207 N   0  0  0  0  0  0  0  0  0  0  0  0
    9.1208    6.5453    1.5350 C   0  0  0  0  0  0  0  0  0  0  0  0
    9.4946    7.6757    1.9544 O   0  0  0  0  0  0  0  0  0  0  0  0
    7.6691    6.2953    1.2104 C   0  0  1  0  0  0  0  0  0  0  0  0
    6.7788    6.7690    2.3700 C   0  0  0  0  0  0  0  0  0  0  0  0
    7.3138    6.9761   -0.0402 N   0  0  0  0  0  0  0  0  0  0  0  0
    6.3307    6.4634   -0.9475 C   0  0  0  0  0  0  0  0  0  0  0  0
    6.6686    6.1980   -2.1366 O   0  0  0  0  0  0  0  0  0  0  0  0
    4.9023    6.2656   -0.5102 C   0  0  1  0  0  0  0  0  0  0  0  0
    3.9185    6.7930   -1.5696 C   0  0  0  0  0  0  0  0  0  0  0  0
    4.6778    4.8575   -0.1508 N   0  0  0  0  0  0  0  0  0  0  0  0
    3.6007    4.0471   -0.6471 C   0  0  0  0  0  0  0  0  0  0  0  0
    3.5087    3.8365   -1.8852 O   0  0  0  0  0  0  0  0  0  0  0  0
    2.6090    3.3924    0.2778 C   0  0  1  0  0  0  0  0  0  0  0  0
    2.8278    3.7579    1.7561 C   0  0  0  0  0  0  0  0  0  0  0  0
    1.2646    3.7899   -0.1161 N   0  0  0  0  0  0  0  0  0  0  0  0
    0.3484    2.8726   -0.7192 C   0  0  0  0  0  0  0  0  0  0  0  0
    0.6125    2.3980   -1.8562 O   0  0  0  0  0  0  0  0  0  0  0  0
   -0.9469    2.5121   -0.0344 C   0  0  1  0  0  0  0  0  0  0  0  0
   -1.0066    1.0085    0.2886 C   0  0  0  0  0  0  0  0  0  0  0  0
   -1.4416    0.0263   -1.2015 S   0  0  0  0  0  0  0  0  0  0  0  0
    0.2105   -0.6797   -1.5331 C   0  0  0  0  0  0  0  0  0  0  0  0
   -1.0826    3.2809    1.2096 N   0  0  0  0  0  0  0  0  0  0  0  0
   -2.1420    4.2183    1.4311 C   0  0  0  0  0  0  0  0  0  0  0  0
   -2.9897    3.9687    2.3305 O   0  0  0  0  0  0  0  0  0  0  0  0
   -2.1441    5.5664    0.7256 C   0  0  1  0  0  0  0  0  0  0  0  0
   -2.2610    5.4575   -0.7942 C   0  0  0  0  0  0  0  0  0  0  0  0
   -3.1451    6.5004    1.2695 N   0  0  0  0  0  0  0  0  0  0  0  0
   -4.5256    6.1910    1.5384 C   0  0  0  0  0  0  0  0  0  0  0  0
   -4.9127    6.1784    2.7388 O   0  0  0  0  0  0  0  0  0  0  0  0
   -5.5523    5.9674    0.4486 C   0  0  1  0  0  0  0  0  0  0  0  0
   -5.3435    6.9081   -0.7534 C   0  0  0  0  0  0  0  0  0  0  0  0
   -5.5803    4.5573    0.0398 N   0  0  0  0  0  0  0  0  0  0  0  0
   -6.7440    3.8823   -0.4704 C   0  0  0  0  0  0  0  0  0  0  0  0
   -6.8070    2.6233   -0.3688 O   0  0  0  0  0  0  0  0  0  0  0  0
   -7.8450    4.6023   -1.2081 C   0  0  1  0  0  0  0  0  0  0  0  0
   -7.4984    4.7080   -2.6950 C   0  0  0  0  0  0  0  0  0  0  0  0
   -9.1141    3.8879   -1.0608 N   0  0  0  0  0  0  0  0  0  0  0  0
  -10.3363    4.5248   -0.6433 C   0  0  0  0  0  0  0  0  0  0  0  0
  -11.4075    4.2398   -1.2454 O   0  0  0  0  0  0  0  0  0  0  0  0
  -10.3746    5.4781    0.5317 C   0  0  1  0  0  0  0  0  0  0  0  0
  -10.9769    6.8266    0.1177 C   0  0  0  0  0  0  0  0  0  0  0  0
  -11.1197    4.9035    1.6577 N   0  0  0  0  0  0  0  0  0  0  0  0
  -12.4436    4.3752    1.5378 C   0  0  0  0  0  0  0  0  0  0  0  0
  -13.4282    5.1593    1.5811 O   0  0  0  0  0  0  0  0  0  0  0  0
  -12.6586    2.8860    1.4528 C   0  0  1  0  0  0  0  0  0  0  0  0
  -13.2916    2.3810    2.7555 C   0  0  0  0  0  0  0  0  0  0  0  0
  -13.5105    2.5508    0.3103 N   0  0  0  0  0  0  0  0  0  0  0  0
  -13.7620    1.2086   -0.1390 C   0  0  0  0  0  0  0  0  0  0  0  0
  -14.9413    0.8862   -0.4393 O   0  0  0  0  0  0  0  0  0  0  0  0
  -12.6581    0.1893   -0.3763 C   0  0  1  0  0  0  0  0  0  0  0  0
  -11.5110    0.7722   -1.2050 C   0  0  0  0  0  0  0  0  0  0  0  0
  -12.1512   -0.3571    0.8866 N   0  0  0  0  0  0  0  0  0  0  0  0
  -12.5701   -1.5825    1.5203 C   0  0  0  0  0  0  0  0  0  0  0  0
  -12.3381   -1.7235    2.7535 O   0  0  0  0  0  0  0  0  0  0  0  0
  -13.2457   -2.7286    0.7974 C   0  0  1  0  0  0  0  0  0  0  0  0
  -14.7377   -2.4505    0.5954 C   0  0  0  0  0  0  0  0  0  0  0  0
  -12.5866   -3.0445   -0.4774 N   0  0  0  0  0  0  0  0  0  0  0  0
  -11.3365   -3.7565   -0.6084 C   0  0  0  0  0  0  0  0  0  0  0  0
  -10.9742   -4.1224   -1.7581 O   0  0  0  0  0  0  0  0  0  0  0  0
  -10.4705   -4.1117    0.5821 C   0  0  1  0  0  0  0  0  0  0  0  0
  -10.6086   -5.5928    0.9417 C   0  0  0  0  0  0  0  0  0  0  0  0
   -9.0667   -3.7236    0.3648 N   0  0  0  0  0  0  0  0  0  0  0  0
   -8.2504   -4.1357   -0.7459 C   0  0  0  0  0  0  0  0  0  0  0  0
   -7.8077   -3.2584   -1.5363 O   0  0  0  0  0  0  0  0  0  0  0  0
   -7.8159   -5.5675   -0.9295 C   0  0  1  0  0  0  0  0  0  0  0  0
   -8.4045   -6.1575   -2.2162 C   0  0  0  0  0  0  0  0  0  0  0  0
   -6.3462   -5.6503   -0.9573 N   0  0  0  0  0  0  0  0  0  0  0  0
   -5.5751   -5.4959    0.2421 C   0  0  0  0  0  0  0  0  0  0  0  0
   -6.0080   -4.7675    1.1739 O   0  0  0  0  0  0  0  0  0  0  0  0
   -5.7229   -8.0438    2.3016 H   0  0  0  0  0  0  0  0  0  0  0  0
   -4.0187   -8.6590    2.4571 H   0  0  0  0  0  0  0  0  0  0  0  0
   -5.3873   -9.8096    2.2797 H   0  0  0  0  0  0  0  0  0  0  0  0
   -4.2184   -7.6554   -1.2162 H   0  0  0  0  0  0  0  0  0  0  0  0
   -4.1715   -6.3910    1.5536 H   0  0  0  0  0  0  0  0  0  0  0  0
   -2.1747   -6.0021    0.4240 H   0  0  0  0  0  0  0  0  0  0  0  0
   -3.0675   -4.4555    0.4755 H   0  0  0  0  0  0  0  0  0  0  0  0
   -0.8533   -6.5189   -1.4447 H   0  0  0  0  0  0  0  0  0  0  0  0
   -0.7727   -5.5482   -2.9403 H   0  0  0  0  0  0  0  0  0  0  0  0
   -0.8383   -2.9375   -2.6258 H   0  0  0  0  0  0  0  0  0  0  0  0
    1.3970   -1.5267    0.7747 H   0  0  0  0  0  0  0  0  0  0  0  0
    0.2852   -5.6670    0.4821 H   0  0  0  0  0  0  0  0  0  0  0  0
    1.1719   -3.2749    2.8539 H   0  0  0  0  0  0  0  0  0  0  0  0
    1.5167   -4.9543    2.3921 H   0  0  0  0  0  0  0  0  0  0  0  0
    3.6736   -5.8756    1.6762 H   0  0  0  0  0  0  0  0  0  0  0  0
    3.3601   -5.0495    0.1184 H   0  0  0  0  0  0  0  0  0  0  0  0
    5.6188   -5.9287    0.2161 H   0  0  0  0  0  0  0  0  0  0  0  0
    6.3324   -2.4509    1.4948 H   0  0  0  0  0  0  0  0  0  0  0  0
    6.5216   -1.7892   -0.1567 H   0  0  0  0  0  0  0  0  0  0  0  0
    5.7872   -4.6481    2.8845 H   0  0  0  0  0  0  0  0  0  0  0  0
    9.4349   -6.2847    1.6211 H   0  0  0  0  0  0  0  0  0  0  0  0
    7.8485   -7.8850    2.5715 H   0  0  0  0  0  0  0  0  0  0  0  0
    6.7250   -7.6877    1.1713 H   0  0  0  0  0  0  0  0  0  0  0  0
    8.3639   -8.3860    0.9236 H   0  0  0  0  0  0  0  0  0  0  0  0
    7.5802   -6.1621   -0.7670 H   0  0  0  0  0  0  0  0  0  0  0  0
   11.0821   -4.4741   -1.7543 H   0  0  0  0  0  0  0  0  0  0  0  0
   10.0028   -2.3363   -1.2880 H   0  0  0  0  0  0  0  0  0  0  0  0
    8.7205   -3.1515   -0.3133 H   0  0  0  0  0  0  0  0  0  0  0  0
    8.8289   -3.4497   -2.0937 H   0  0  0  0  0  0  0  0  0  0  0  0
   10.4704   -4.1478    1.2213 H   0  0  0  0  0  0  0  0  0  0  0  0
   14.4845   -3.7862   -0.1009 H   0  0  0  0  0  0  0  0  0  0  0  0
   14.5416   -5.4522   -1.9299 H   0  0  0  0  0  0  0  0  0  0  0  0
   12.8598   -5.9528   -1.5468 H   0  0  0  0  0  0  0  0  0  0  0  0
   14.1571   -6.1932   -0.3363 H   0  0  0  0  0  0  0  0  0  0  0  0
   13.0288   -3.5161   -2.5550 H   0  0  0  0  0  0  0  0  0  0  0  0
   12.7220   -1.7030    0.6493 H   0  0  0  0  0  0  0  0  0  0  0  0
   15.0220    0.0751   -0.3459 H   0  0  0  0  0  0  0  0  0  0  0  0
   14.4511   -0.1197    1.3676 H   0  0  0  0  0  0  0  0  0  0  0  0
   15.1603   -1.5053    0.4976 H   0  0  0  0  0  0  0  0  0  0  0  0
   11.1918   -0.1298   -0.2025 H   0  0  0  0  0  0  0  0  0  0  0  0
   13.8153    2.0190    0.7262 H   0  0  0  0  0  0  0  0  0  0  0  0
   14.9310    3.8058   -0.4585 H   0  0  0  0  0  0  0  0  0  0  0  0
   13.7204    3.7684   -1.8059 H   0  0  0  0  0  0  0  0  0  0  0  0
   14.8646    2.3991   -1.5756 H   0  0  0  0  0  0  0  0  0  0  0  0
   11.4633    2.9095    1.0085 H   0  0  0  0  0  0  0  0  0  0  0  0
   11.0349    6.4937   -0.2982 H   0  0  0  0  0  0  0  0  0  0  0  0
    9.6766    3.7409   -0.6197 H   0  0  0  0  0  0  0  0  0  0  0  0
    9.1631    5.3274   -1.3053 H   0  0  0  0  0  0  0  0  0  0  0  0
   10.6597    4.5477   -1.9074 H   0  0  0  0  0  0  0  0  0  0  0  0
   10.3918    4.9592    2.1515 H   0  0  0  0  0  0  0  0  0  0  0  0
    7.5311    5.1964    1.0923 H   0  0  0  0  0  0  0  0  0  0  0  0
    6.6738    7.8729    2.3546 H   0  0  0  0  0  0  0  0  0  0  0  0
    5.7739    6.3003    2.3133 H   0  0  0  0  0  0  0  0  0  0  0  0
    7.2199    6.4703    3.3481 H   0  0  0  0  0  0  0  0  0  0  0  0
    7.9824    7.6817   -0.4379 H   0  0  0  0  0  0  0  0  0  0  0  0
    4.7242    6.8818    0.4022 H   0  0  0  0  0  0  0  0  0  0  0  0
    2.8759    6.6970   -1.2032 H   0  0  0  0  0  0  0  0  0  0  0  0
    4.1196    7.8696   -1.7634 H   0  0  0  0  0  0  0  0  0  0  0  0
    4.0234    6.2445   -2.5297 H   0  0  0  0  0  0  0  0  0  0  0  0
    5.2219    4.4772    0.6559 H   0  0  0  0  0  0  0  0  0  0  0  0
    2.7187    2.2830    0.1869 H   0  0  0  0  0  0  0  0  0  0  0  0
    3.7836    3.3326    2.1323 H   0  0  0  0  0  0  0  0  0  0  0  0
    2.8326    4.8645    1.8953 H   0  0  0  0  0  0  0  0  0  0  0  0
    2.0078    3.3359    2.3739 H   0  0  0  0  0  0  0  0  0  0  0  0
    0.9601    4.7860    0.0107 H   0  0  0  0  0  0  0  0  0  0  0  0
   -1.7972    2.7523   -0.7066 H   0  0  0  0  0  0  0  0  0  0  0  0
   -1.8264    0.8386    1.0138 H   0  0  0  0  0  0  0  0  0  0  0  0
   -0.0654    0.6683    0.7798 H   0  0  0  0  0  0  0  0  0  0  0  0
    1.0218   -0.0547   -1.1164 H   0  0  0  0  0  0  0  0  0  0  0  0
    0.3590   -0.6857   -2.6289 H   0  0  0  0  0  0  0  0  0  0  0  0
   -0.5104    2.9841    2.0312 H   0  0  0  0  0  0  0  0  0  0  0  0
   -1.1405    6.0137    0.9130 H   0  0  0  0  0  0  0  0  0  0  0  0
   -2.3962    6.4674   -1.2297 H   0  0  0  0  0  0  0  0  0  0  0  0
   -3.1069    4.8060   -1.0836 H   0  0  0  0  0  0  0  0  0  0  0  0
   -1.3295    5.0481   -1.2331 H   0  0  0  0  0  0  0  0  0  0  0  0
   -2.7607    7.3300    1.7848 H   0  0  0  0  0  0  0  0  0  0  0  0
   -6.5397    6.2268    0.8937 H   0  0  0  0  0  0  0  0  0  0  0  0
   -4.7300    6.4339   -1.5423 H   0  0  0  0  0  0  0  0  0  0  0  0
   -6.3150    7.1838   -1.2074 H   0  0  0  0  0  0  0  0  0  0  0  0
   -4.8582    7.8558   -0.4403 H   0  0  0  0  0  0  0  0  0  0  0  0
   -4.7893    3.9388    0.3327 H   0  0  0  0  0  0  0  0  0  0  0  0
   -7.9479    5.6326   -0.8269 H   0  0  0  0  0  0  0  0  0  0  0  0
   -7.4266    3.6973   -3.1541 H   0  0  0  0  0  0  0  0  0  0  0  0
   -8.2920    5.2807   -3.2222 H   0  0  0  0  0  0  0  0  0  0  0  0
   -6.5336    5.2371   -2.8378 H   0  0  0  0  0  0  0  0  0  0  0  0
   -9.2033    2.9561   -1.5242 H   0  0  0  0  0  0  0  0  0  0  0  0
   -9.3391    5.6700    0.8871 H   0  0  0  0  0  0  0  0  0  0  0  0
  -12.0162    6.7005   -0.2498 H   0  0  0  0  0  0  0  0  0  0  0  0
  -10.9904    7.5186    0.9915 H   0  0  0  0  0  0  0  0  0  0  0  0
  -10.3619    7.2917   -0.6822 H   0  0  0  0  0  0  0  0  0  0  0  0
  -10.8250    5.1893    2.6214 H   0  0  0  0  0  0  0  0  0  0  0  0
  -11.6704    2.4145    1.3289 H   0  0  0  0  0  0  0  0  0  0  0  0
  -13.4498    1.2847    2.7165 H   0  0  0  0  0  0  0  0  0  0  0  0
  -14.2723    2.8658    2.9244 H   0  0  0  0  0  0  0  0  0  0  0  0
  -12.6248    2.6024    3.6123 H   0  0  0  0  0  0  0  0  0  0  0  0
  -14.2171    3.2643    0.0074 H   0  0  0  0  0  0  0  0  0  0  0  0
  -13.0814   -0.6179   -0.9926 H   0  0  0  0  0  0  0  0  0  0  0  0
  -10.9638    1.5497   -0.6425 H   0  0  0  0  0  0  0  0  0  0  0  0
  -10.7954   -0.0361   -1.4755 H   0  0  0  0  0  0  0  0  0  0  0  0
  -11.9014    1.2192   -2.1425 H   0  0  0  0  0  0  0  0  0  0  0  0
  -11.4745    0.2212    1.4277 H   0  0  0  0  0  0  0  0  0  0  0  0
  -13.1921   -3.6300    1.4489 H   0  0  0  0  0  0  0  0  0  0  0  0
  -14.9117   -1.7011   -0.2011 H   0  0  0  0  0  0  0  0  0  0  0  0
  -15.2557   -3.3867    0.2905 H   0  0  0  0  0  0  0  0  0  0  0  0
  -15.1991   -2.0875    1.5388 H   0  0  0  0  0  0  0  0  0  0  0  0
  -13.1119   -2.8775   -1.3661 H   0  0  0  0  0  0  0  0  0  0  0  0
  -10.8164   -3.5505    1.4703 H   0  0  0  0  0  0  0  0  0  0  0  0
   -9.8744   -5.8693    1.7263 H   0  0  0  0  0  0  0  0  0  0  0  0
  -11.6257   -5.7902    1.3421 H   0  0  0  0  0  0  0  0  0  0  0  0
  -10.4647   -6.2386    0.0510 H   0  0  0  0  0  0  0  0  0  0  0  0
   -8.7312   -2.8829    0.8924 H   0  0  0  0  0  0  0  0  0  0  0  0
   -8.1697   -6.1828   -0.0755 H   0  0  0  0  0  0  0  0  0  0  0  0
   -9.5126   -6.2168   -2.1501 H   0  0  0  0  0  0  0  0  0  0  0  0
   -8.1212   -5.5351   -3.0908 H   0  0  0  0  0  0  0  0  0  0  0  0
   -8.0117   -7.1860   -2.3705 H   0  0  0  0  0  0  0  0  0  0  0  0
   -5.8786   -6.0610   -1.7939 H   0  0  0  0  0  0  0  0  0  0  0  0
  1  2  1  0
  2  3  2  0
  2  4  1  0
  4  5  1  0
  5  6  1  0
  6  7  1  0
  7  8  1  0
  8  9  1  0
  9 10  2  0
 10 11  1  0
 11 12  2  0
 12 13  1  0
 13 14  2  0
 13 15  1  0
 15 16  1  0
 16 17  1  0
 17 18  1  0
 18 19  1  0
 19 20  1  0
 19 21  2  0
 18 22  1  0
 22 23  1  0
 23 24  2  0
 23 25  1  0
 25 26  1  0
 25 27  1  0
 27 28  1  0
 28 29  2  0
 28 30  1  0
 30 31  1  0
 30 32  1  0
 32 33  1  0
 33 34  2  0
 33 35  1  0
 35 36  1  0
 35 37  1  0
 37 38  1  0
 38 39  2  0
 38 40  1  0
 40 41  1  0
 40 42  1  0
 42 43  1  0
 43 44  2  0
 43 45  1  0
 45 46  1  0
 45 47  1  0
 47 48  1  0
 48 49  2  0
 48 50  1  0
 50 51  1  0
 50 52  1  0
 52 53  1  0
 53 54  2  0
 53 55  1  0
 55 56  1  0
 55 57  1  0
 57 58  1  0
 58 59  2  0
 58 60  1  0
 60 61  1  0
 60 62  1  0
 62 63  1  0
 63 64  2  0
 63 65  1  0
 65 66  1  0
 65 67  1  0
 67 68  1  0
 68 69  2  0
 68 70  1  0
 70 71  1  0
 71 72  1  0
 72 73  1  0
 70 74  1  0
 74 75  1  0
 75 76  2  0
 75 77  1  0
 77 78  1  0
 77 79  1  0
 79 80  1  0
 80 81  2  0
 80 82  1  0
 82 83  1  0
 82 84  1  0
 84 85  1  0
 85 86  2  0
 85 87  1  0
 87 88  1  0
 87 89  1  0
 89 90  1  0
 90 91  2  0
 90 92  1  0
 92 93  1  0
 92 94  1  0
 94 95  1  0
 95 96  2  0
 95 97  1  0
 97 98  1  0
 97 99  1  0
 99100  1  0
100101  2  0
100102  1  0
102103  1  0
102104  1  0
104105  1  0
105106  2  0
105107  1  0
107108  1  0
107109  1  0
109110  1  0
110111  2  0
110112  1  0
112113  1  0
112114  1  0
114115  1  0
115116  2  0
115117  1  0
117118  1  0
117119  1  0
119120  1  0
120121  2  0
120  5  1  0
 14  9  1  0
 73 11  1  0
  1122  1  0
  1123  1  0
  1124  1  0
  4125  1  0
  5126  1  1
  6127  1  0
  6128  1  0
  8129  1  0
  8130  1  0
 10131  1  0
 12132  1  0
 14133  1  0
 15134  1  0
 15135  1  0
 17136  1  0
 17137  1  0
 18138  1  6
 20139  1  0
 20140  1  0
 22141  1  0
 25142  1  1
 26143  1  0
 26144  1  0
 26145  1  0
 27146  1  0
 30147  1  6
 31148  1  0
 31149  1  0
 31150  1  0
 32151  1  0
 35152  1  1
 36153  1  0
 36154  1  0
 36155  1  0
 37156  1  0
 40157  1  1
 41158  1  0
 41159  1  0
 41160  1  0
 42161  1  0
 45162  1  1
 46163  1  0
 46164  1  0
 46165  1  0
 47166  1  0
 50167  1  6
 51168  1  0
 51169  1  0
 51170  1  0
 52171  1  0
 55172  1  6
 56173  1  0
 56174  1  0
 56175  1  0
 57176  1  0
 60177  1  1
 61178  1  0
 61179  1  0
 61180  1  0
 62181  1  0
 65182  1  1
 66183  1  0
 66184  1  0
 66185  1  0
 67186  1  0
 70187  1  6
 71188  1  0
 71189  1  0
 73190  1  0
 73191  1  0
 74192  1  0
 77193  1  6
 78194  1  0
 78195  1  0
 78196  1  0
 79197  1  0
 82198  1  1
 83199  1  0
 83200  1  0
 83201  1  0
 84202  1  0
 87203  1  1
 88204  1  0
 88205  1  0
 88206  1  0
 89207  1  0
 92208  1  1
 93209  1  0
 93210  1  0
 93211  1  0
 94212  1  0
 97213  1  6
 98214  1  0
 98215  1  0
 98216  1  0
 99217  1  0
102218  1  6
103219  1  0
103220  1  0
103221  1  0
104222  1  0
107223  1  1
108224  1  0
108225  1  0
108226  1  0
109227  1  0
112228  1  1
113229  1  0
113230  1  0
113231  1  0
114232  1  0
117233  1  1
118234  1  0
118235  1  0
118236  1  0
119237  1  0
M  END
