
     RDKit          3D

217219  0  0  0  0  0  0  0  0999 V2000
    0.7078    8.5343    0.6717 C   0  0  0  0  0  0  0  0  0  0  0  0
    1.5533    7.8719    1.7173 C   0  0  0  0  0  0  0  0  0  0  0  0
    1.3226    8.1485    2.9218 O   0  0  0  0  0  0  0  0  0  0  0  0
    2.5665    6.8911    1.4134 N   0  0  0  0  0  0  0  0  0  0  0  0
    3.3637    6.7676    0.1788 C   0  0  1  0  0  0  0  0  0  0  0  0
    2.6043    6.0981   -0.9911 C   0  0  0  0  0  0  0  0  0  0  0  0
    1.4225    4.8123   -0.4278 S   0  0  0  0  0  0  0  0  0  0  0  0
    1.1186    4.1560   -2.1092 C   0  0  0  0  0  0  0  0  0  0  0  0
   -0.0613    3.2182   -2.1240 C   0  0  0  0  0  0  0  0  0  0  0  0
   -0.0518    2.0513   -1.3415 C   0  0  0  0  0  0  0  0  0  0  0  0
   -1.1368    1.1572   -1.3685 C   0  0  0  0  0  0  0  0  0  0  0  0
   -2.2527    1.4541   -2.1748 C   0  0  0  0  0  0  0  0  0  0  0  0
   -2.2756    2.6190   -2.9550 C   0  0  0  0  0  0  0  0  0  0  0  0
   -1.1734    3.4848   -2.9353 C   0  0  0  0  0  0  0  0  0  0  0  0
   -3.4827    2.9522   -3.7957 C   0  0  0  0  0  0  0  0  0  0  0  0
   -5.0149    3.0955   -2.7992 S   0  0  0  0  0  0  0  0  0  0  0  0
   -4.3942    4.3041   -1.5549 C   0  0  0  0  0  0  0  0  0  0  0  0
   -5.3779    5.4568   -1.3004 C   0  0  1  0  0  0  0  0  0  0  0  0
   -5.2622    6.4969   -2.3840 C   0  0  0  0  0  0  0  0  0  0  0  0
   -4.8365    7.8262   -2.0710 N   0  0  0  0  0  0  0  0  0  0  0  0
   -5.5526    6.2069   -3.5760 O   0  0  0  0  0  0  0  0  0  0  0  0
   -6.7643    5.0021   -1.1738 N   0  0  0  0  0  0  0  0  0  0  0  0
   -7.2131    4.2412   -0.0425 C   0  0  0  0  0  0  0  0  0  0  0  0
   -6.5789    3.2129    0.3078 O   0  0  0  0  0  0  0  0  0  0  0  0
   -8.3801    4.7075    0.7917 C   0  0  1  0  0  0  0  0  0  0  0  0
   -8.0209    6.0196    1.4965 C   0  0  0  0  0  0  0  0  0  0  0  0
   -9.5765    4.9067   -0.0320 N   0  0  0  0  0  0  0  0  0  0  0  0
  -10.9132    4.7386    0.4633 C   0  0  0  0  0  0  0  0  0  0  0  0
  -11.8106    5.5179    0.0456 O   0  0  0  0  0  0  0  0  0  0  0  0
  -11.2832    3.6506    1.4457 C   0  0  1  0  0  0  0  0  0  0  0  0
  -11.2906    4.2096    2.8737 C   0  0  0  0  0  0  0  0  0  0  0  0
  -12.6121    3.1333    1.1125 N   0  0  0  0  0  0  0  0  0  0  0  0
  -12.8868    1.7578    0.8144 C   0  0  0  0  0  0  0  0  0  0  0  0
  -13.8166    1.1809    1.4456 O   0  0  0  0  0  0  0  0  0  0  0  0
  -12.1601    0.9603   -0.2538 C   0  0  1  0  0  0  0  0  0  0  0  0
  -11.1869    1.7579   -1.1281 C   0  0  0  0  0  0  0  0  0  0  0  0
  -11.4561   -0.1641    0.3733 N   0  0  0  0  0  0  0  0  0  0  0  0
  -11.7078   -1.5271    0.0037 C   0  0  0  0  0  0  0  0  0  0  0  0
  -12.2918   -1.7887   -1.0836 O   0  0  0  0  0  0  0  0  0  0  0  0
  -11.3498   -2.6441    0.9446 C   0  0  1  0  0  0  0  0  0  0  0  0
  -12.5869   -3.0796    1.7338 C   0  0  0  0  0  0  0  0  0  0  0  0
  -10.8035   -3.7832    0.2011 N   0  0  0  0  0  0  0  0  0  0  0  0
   -9.4555   -3.7769   -0.2774 C   0  0  0  0  0  0  0  0  0  0  0  0
   -9.2348   -3.4996   -1.4879 O   0  0  0  0  0  0  0  0  0  0  0  0
   -8.3110   -4.2392    0.5916 C   0  0  1  0  0  0  0  0  0  0  0  0
   -8.1009   -3.3309    1.7997 C   0  0  0  0  0  0  0  0  0  0  0  0
   -8.5497   -5.6209    1.0380 N   0  0  0  0  0  0  0  0  0  0  0  0
   -7.6154   -6.6911    0.8567 C   0  0  0  0  0  0  0  0  0  0  0  0
   -8.0586   -7.8649    0.7087 O   0  0  0  0  0  0  0  0  0  0  0  0
   -6.1271   -6.4398    0.8132 C   0  0  1  0  0  0  0  0  0  0  0  0
   -5.3441   -7.6050    1.4359 C   0  0  0  0  0  0  0  0  0  0  0  0
   -5.6951   -6.1827   -0.5596 N   0  0  0  0  0  0  0  0  0  0  0  0
   -4.3736   -5.7209   -0.8457 C   0  0  0  0  0  0  0  0  0  0  0  0
   -3.3835   -6.4789   -0.6211 O   0  0  0  0  0  0  0  0  0  0  0  0
   -4.1561   -4.3217   -1.3551 C   0  0  1  0  0  0  0  0  0  0  0  0
   -4.1267   -3.3600   -0.1561 C   0  0  0  0  0  0  0  0  0  0  0  0
   -2.9068   -4.2578   -2.1339 N   0  0  0  0  0  0  0  0  0  0  0  0
   -2.1031   -3.0794   -2.2521 C   0  0  0  0  0  0  0  0  0  0  0  0
   -2.6167   -2.0192   -2.7001 O   0  0  0  0  0  0  0  0  0  0  0  0
   -0.6249   -3.1834   -1.9662 C   0  0  1  0  0  0  0  0  0  0  0  0
    0.1439   -1.8312   -2.0352 C   0  0  0  0  0  0  0  0  0  0  0  0
    0.3624   -0.9838   -0.4174 S   0  0  0  0  0  0  0  0  0  0  0  0
   -1.1926   -0.0174   -0.4194 C   0  0  0  0  0  0  0  0  0  0  0  0
   -0.4341   -3.8351   -0.6608 N   0  0  0  0  0  0  0  0  0  0  0  0
    0.3886   -4.9879   -0.4225 C   0  0  0  0  0  0  0  0  0  0  0  0
    0.9670   -5.0855    0.6921 O   0  0  0  0  0  0  0  0  0  0  0  0
    0.4979   -6.1156   -1.4279 C   0  0  1  0  0  0  0  0  0  0  0  0
    1.6713   -5.9544   -2.4045 C   0  0  0  0  0  0  0  0  0  0  0  0
    0.5063   -7.4266   -0.7598 N   0  0  0  0  0  0  0  0  0  0  0  0
    1.5255   -8.0028    0.0807 C   0  0  0  0  0  0  0  0  0  0  0  0
    1.2730   -9.1062    0.6435 O   0  0  0  0  0  0  0  0  0  0  0  0
    2.9216   -7.4252    0.2454 C   0  0  1  0  0  0  0  0  0  0  0  0
    3.3646   -7.5468    1.7144 C   0  0  0  0  0  0  0  0  0  0  0  0
    3.8457   -8.1388   -0.6477 N   0  0  0  0  0  0  0  0  0  0  0  0
    5.2724   -7.9801   -0.7879 C   0  0  0  0  0  0  0  0  0  0  0  0
    5.9246   -8.9478   -1.2756 O   0  0  0  0  0  0  0  0  0  0  0  0
    6.0806   -6.7450   -0.4188 C   0  0  1  0  0  0  0  0  0  0  0  0
    5.3517   -5.4033   -0.5791 C   0  0  0  0  0  0  0  0  0  0  0  0
    6.6614   -6.8724    0.9198 N   0  0  0  0  0  0  0  0  0  0  0  0
    7.6571   -5.9698    1.4244 C   0  0  0  0  0  0  0  0  0  0  0  0
    7.3902   -5.2724    2.4400 O   0  0  0  0  0  0  0  0  0  0  0  0
    9.0358   -5.8645    0.8068 C   0  0  1  0  0  0  0  0  0  0  0  0
    9.5464   -7.2295    0.3329 C   0  0  0  0  0  0  0  0  0  0  0  0
    9.0452   -4.9060   -0.3009 N   0  0  0  0  0  0  0  0  0  0  0  0
   10.0117   -3.8574   -0.4662 C   0  0  0  0  0  0  0  0  0  0  0  0
   10.3052   -3.4860   -1.6348 O   0  0  0  0  0  0  0  0  0  0  0  0
   10.6962   -3.1979    0.7098 C   0  0  1  0  0  0  0  0  0  0  0  0
   12.0892   -3.8113    0.9229 C   0  0  0  0  0  0  0  0  0  0  0  0
   10.8297   -1.7530    0.4947 N   0  0  0  0  0  0  0  0  0  0  0  0
   10.8622   -0.8229    1.5892 C   0  0  0  0  0  0  0  0  0  0  0  0
   10.3351   -1.1339    2.6931 O   0  0  0  0  0  0  0  0  0  0  0  0
   11.5393    0.5152    1.4531 C   0  0  1  0  0  0  0  0  0  0  0  0
   13.0183    0.3319    1.0908 C   0  0  0  0  0  0  0  0  0  0  0  0
   10.8721    1.3534    0.4545 N   0  0  0  0  0  0  0  0  0  0  0  0
   11.1320    2.7571    0.3637 C   0  0  0  0  0  0  0  0  0  0  0  0
   11.6087    3.2335   -0.7042 O   0  0  0  0  0  0  0  0  0  0  0  0
   10.8384    3.6773    1.5220 C   0  0  1  0  0  0  0  0  0  0  0  0
   12.1018    3.9071    2.3650 C   0  0  0  0  0  0  0  0  0  0  0  0
   10.3400    4.9784    1.0402 N   0  0  0  0  0  0  0  0  0  0  0  0
    9.2442    5.1171    0.1216 C   0  0  0  0  0  0  0  0  0  0  0  0
    9.4407    5.7536   -0.9530 O   0  0  0  0  0  0  0  0  0  0  0  0
    7.8761    4.5175    0.3979 C   0  0  1  0  0  0  0  0  0  0  0  0
    7.4431    4.6661    1.8645 C   0  0  0  0  0  0  0  0  0  0  0  0
    6.8592    5.0699   -0.5151 N   0  0  0  0  0  0  0  0  0  0  0  0
    6.6195    6.4722   -0.7472 C   0  0  0  0  0  0  0  0  0  0  0  0
    6.5756    6.8897   -1.9395 O   0  0  0  0  0  0  0  0  0  0  0  0
    6.3985    7.4604    0.3771 C   0  0  1  0  0  0  0  0  0  0  0  0
    7.7020    8.2065    0.6972 C   0  0  0  0  0  0  0  0  0  0  0  0
    5.3550    8.4244   -0.0017 N   0  0  0  0  0  0  0  0  0  0  0  0
    3.9716    8.0957   -0.2306 C   0  0  0  0  0  0  0  0  0  0  0  0
    3.2435    8.9623   -0.7884 O   0  0  0  0  0  0  0  0  0  0  0  0
    0.8421    8.0931   -0.3248 H   0  0  0  0  0  0  0  0  0  0  0  0
   -0.3627    8.4192    0.9501 H   0  0  0  0  0  0  0  0  0  0  0  0
    0.9526    9.6161    0.6277 H   0  0  0  0  0  0  0  0  0  0  0  0
    2.9232    6.3536    2.2351 H   0  0  0  0  0  0  0  0  0  0  0  0
    4.1812    6.0566    0.4169 H   0  0  0  0  0  0  0  0  0  0  0  0
    2.0583    6.8384   -1.6101 H   0  0  0  0  0  0  0  0  0  0  0  0
    3.3575    5.6274   -1.6646 H   0  0  0  0  0  0  0  0  0  0  0  0
    2.0226    3.6218   -2.4622 H   0  0  0  0  0  0  0  0  0  0  0  0
    0.9343    5.0053   -2.7947 H   0  0  0  0  0  0  0  0  0  0  0  0
    0.7976    1.8461   -0.6969 H   0  0  0  0  0  0  0  0  0  0  0  0
   -3.1140    0.7968   -2.1822 H   0  0  0  0  0  0  0  0  0  0  0  0
   -1.1858    4.3814   -3.5455 H   0  0  0  0  0  0  0  0  0  0  0  0
   -3.6316    2.1404   -4.5378 H   0  0  0  0  0  0  0  0  0  0  0  0
   -3.3395    3.9016   -4.3579 H   0  0  0  0  0  0  0  0  0  0  0  0
   -3.4106    4.7362   -1.8465 H   0  0  0  0  0  0  0  0  0  0  0  0
   -4.2170    3.7498   -0.6062 H   0  0  0  0  0  0  0  0  0  0  0  0
   -5.0855    5.9322   -0.3341 H   0  0  0  0  0  0  0  0  0  0  0  0
   -4.7497    8.5420   -2.8292 H   0  0  0  0  0  0  0  0  0  0  0  0
   -4.5750    8.0947   -1.0985 H   0  0  0  0  0  0  0  0  0  0  0  0
   -7.4888    5.4364   -1.7895 H   0  0  0  0  0  0  0  0  0  0  0  0
   -8.5733    3.9427    1.5717 H   0  0  0  0  0  0  0  0  0  0  0  0
   -7.1095    5.8836    2.1182 H   0  0  0  0  0  0  0  0  0  0  0  0
   -8.8520    6.3349    2.1630 H   0  0  0  0  0  0  0  0  0  0  0  0
   -7.8370    6.8271    0.7590 H   0  0  0  0  0  0  0  0  0  0  0  0
   -9.4857    5.5185   -0.8752 H   0  0  0  0  0  0  0  0  0  0  0  0
  -10.5431    2.8290    1.4130 H   0  0  0  0  0  0  0  0  0  0  0  0
  -11.6172    3.4177    3.5788 H   0  0  0  0  0  0  0  0  0  0  0  0
  -10.2716    4.5377    3.1705 H   0  0  0  0  0  0  0  0  0  0  0  0
  -11.9809    5.0739    2.9562 H   0  0  0  0  0  0  0  0  0  0  0  0
  -13.4327    3.7393    1.3230 H   0  0  0  0  0  0  0  0  0  0  0  0
  -12.9518    0.5818   -0.9389 H   0  0  0  0  0  0  0  0  0  0  0  0
  -11.6485    2.7027   -1.4795 H   0  0  0  0  0  0  0  0  0  0  0  0
  -10.2427    1.9770   -0.5944 H   0  0  0  0  0  0  0  0  0  0  0  0
  -10.9154    1.1574   -2.0195 H   0  0  0  0  0  0  0  0  0  0  0  0
  -10.8890    0.0280    1.2221 H   0  0  0  0  0  0  0  0  0  0  0  0
  -10.5983   -2.2755    1.6698 H   0  0  0  0  0  0  0  0  0  0  0  0
  -12.9512   -2.2384    2.3672 H   0  0  0  0  0  0  0  0  0  0  0  0
  -12.3312   -3.9375    2.3952 H   0  0  0  0  0  0  0  0  0  0  0  0
  -13.4029   -3.3876    1.0468 H   0  0  0  0  0  0  0  0  0  0  0  0
  -11.4812   -4.3630   -0.3461 H   0  0  0  0  0  0  0  0  0  0  0  0
   -7.3863   -4.1949   -0.0235 H   0  0  0  0  0  0  0  0  0  0  0  0
   -7.1206   -3.5511    2.2679 H   0  0  0  0  0  0  0  0  0  0  0  0
   -8.8921   -3.4977    2.5617 H   0  0  0  0  0  0  0  0  0  0  0  0
   -8.0987   -2.2637    1.4851 H   0  0  0  0  0  0  0  0  0  0  0  0
   -9.4844   -5.8527    1.4388 H   0  0  0  0  0  0  0  0  0  0  0  0
   -5.9173   -5.5364    1.4301 H   0  0  0  0  0  0  0  0  0  0  0  0
   -5.7792   -7.8720    2.4225 H   0  0  0  0  0  0  0  0  0  0  0  0
   -4.2877   -7.3139    1.6074 H   0  0  0  0  0  0  0  0  0  0  0  0
   -5.3764   -8.4900    0.7664 H   0  0  0  0  0  0  0  0  0  0  0  0
   -6.3630   -6.3065   -1.3586 H   0  0  0  0  0  0  0  0  0  0  0  0
   -5.0013   -4.0416   -2.0178 H   0  0  0  0  0  0  0  0  0  0  0  0
   -4.0757   -2.3059   -0.4972 H   0  0  0  0  0  0  0  0  0  0  0  0
   -5.0540   -3.4679    0.4443 H   0  0  0  0  0  0  0  0  0  0  0  0
   -3.2562   -3.5735    0.5049 H   0  0  0  0  0  0  0  0  0  0  0  0
   -2.5274   -5.1321   -2.5613 H   0  0  0  0  0  0  0  0  0  0  0  0
   -0.2144   -3.8161   -2.7710 H   0  0  0  0  0  0  0  0  0  0  0  0
   -0.2967   -1.1411   -2.7845 H   0  0  0  0  0  0  0  0  0  0  0  0
    1.1748   -2.0427   -2.3933 H   0  0  0  0  0  0  0  0  0  0  0  0
   -2.0469   -0.6868   -0.6417 H   0  0  0  0  0  0  0  0  0  0  0  0
   -1.3530    0.3707    0.6085 H   0  0  0  0  0  0  0  0  0  0  0  0
   -0.8416   -3.3725    0.1813 H   0  0  0  0  0  0  0  0  0  0  0  0
   -0.4288   -6.0829   -2.0412 H   0  0  0  0  0  0  0  0  0  0  0  0
    2.5312   -5.4381   -1.9377 H   0  0  0  0  0  0  0  0  0  0  0  0
    1.9938   -6.9376   -2.8023 H   0  0  0  0  0  0  0  0  0  0  0  0
    1.3676   -5.3349   -3.2708 H   0  0  0  0  0  0  0  0  0  0  0  0
   -0.3780   -7.9818   -0.8474 H   0  0  0  0  0  0  0  0  0  0  0  0
    2.8978   -6.3593   -0.0082 H   0  0  0  0  0  0  0  0  0  0  0  0
    4.1635   -6.8205    1.9392 H   0  0  0  0  0  0  0  0  0  0  0  0
    3.7130   -8.5790    1.9349 H   0  0  0  0  0  0  0  0  0  0  0  0
    2.5230   -7.3049    2.4014 H   0  0  0  0  0  0  0  0  0  0  0  0
    3.4519   -8.9359   -1.2034 H   0  0  0  0  0  0  0  0  0  0  0  0
    6.9124   -6.7166   -1.1509 H   0  0  0  0  0  0  0  0  0  0  0  0
    4.7089   -5.1866    0.2935 H   0  0  0  0  0  0  0  0  0  0  0  0
    6.0923   -4.5817   -0.6396 H   0  0  0  0  0  0  0  0  0  0  0  0
    4.7628   -5.3951   -1.5190 H   0  0  0  0  0  0  0  0  0  0  0  0
    6.2529   -7.5527    1.5984 H   0  0  0  0  0  0  0  0  0  0  0  0
    9.7292   -5.5434    1.6088 H   0  0  0  0  0  0  0  0  0  0  0  0
   10.5848   -7.1246   -0.0406 H   0  0  0  0  0  0  0  0  0  0  0  0
    8.9203   -7.6408   -0.4827 H   0  0  0  0  0  0  0  0  0  0  0  0
    9.5468   -7.9590    1.1716 H   0  0  0  0  0  0  0  0  0  0  0  0
    8.4638   -5.1280   -1.1421 H   0  0  0  0  0  0  0  0  0  0  0  0
   10.0842   -3.3676    1.6217 H   0  0  0  0  0  0  0  0  0  0  0  0
   12.7179   -3.6564    0.0213 H   0  0  0  0  0  0  0  0  0  0  0  0
   12.5881   -3.3321    1.7848 H   0  0  0  0  0  0  0  0  0  0  0  0
   12.0087   -4.9009    1.1164 H   0  0  0  0  0  0  0  0  0  0  0  0
   11.0414   -1.3963   -0.4724 H   0  0  0  0  0  0  0  0  0  0  0  0
   11.4828    1.0153    2.4449 H   0  0  0  0  0  0  0  0  0  0  0  0
   13.5045   -0.3806    1.7916 H   0  0  0  0  0  0  0  0  0  0  0  0
   13.1202   -0.0505    0.0531 H   0  0  0  0  0  0  0  0  0  0  0  0
   13.5494    1.3007    1.1672 H   0  0  0  0  0  0  0  0  0  0  0  0
   10.5512    0.8886   -0.4264 H   0  0  0  0  0  0  0  0  0  0  0  0
   10.0713    3.2136    2.1712 H   0  0  0  0  0  0  0  0  0  0  0  0
   11.8610    4.5595    3.2371 H   0  0  0  0  0  0  0  0  0  0  0  0
   12.5139    2.9594    2.7596 H   0  0  0  0  0  0  0  0  0  0  0  0
   12.8892    4.4094    1.7587 H   0  0  0  0  0  0  0  0  0  0  0  0
   10.9586    5.8193    1.1362 H   0  0  0  0  0  0  0  0  0  0  0  0
    7.9584    3.4260    0.1963 H   0  0  0  0  0  0  0  0  0  0  0  0
    7.7296    5.6516    2.2832 H   0  0  0  0  0  0  0  0  0  0  0  0
    6.3437    4.5337    1.9555 H   0  0  0  0  0  0  0  0  0  0  0  0
    7.9194    3.8869    2.4932 H   0  0  0  0  0  0  0  0  0  0  0  0
    6.4762    4.4121   -1.2303 H   0  0  0  0  0  0  0  0  0  0  0  0
    6.0700    6.9388    1.2963 H   0  0  0  0  0  0  0  0  0  0  0  0
    7.5217    8.9617    1.4906 H   0  0  0  0  0  0  0  0  0  0  0  0
    8.0848    8.7300   -0.2089 H   0  0  0  0  0  0  0  0  0  0  0  0
    8.4790    7.5084    1.0646 H   0  0  0  0  0  0  0  0  0  0  0  0
    5.6407    9.4027   -0.2289 H   0  0  0  0  0  0  0  0  0  0  0  0
  1  2  1  0
  2  3  2  0
  2  4  1  0
  4  5  1  0
  5  6  1  0
  6  7  1  0
  7  8  1  0
  8  9  1  0
  9 10  1  0
 10 11  2  0
 11 12  1  0
 12 13  2  0
 13 14  1  0
 13 15  1  0
 15 16  1  0
 16 17  1  0
 17 18  1  0
 18 19  1  0
 19 20  1  0
 19 21  2  0
 18 22  1  0
 22 23  1  0
 23 24  2  0
 23 25  1  0
 25 26  1  0
 25 27  1  0
 27 28  1  0
 28 29  2  0
 28 30  1  0
 30 31  1  0
 30 32  1  0
 32 33  1  0
 33 34  2  0
 33 35  1  0
 35 36  1  0
 35 37  1  0
 37 38  1  0
 38 39  2  0
 38 40  1  0
 40 41  1  0
 40 42  1  0
 42 43  1  0
 43 44  2  0
 43 45  1  0
 45 46  1  0
 45 47  1  0
 47 48  1  0
 48 49  2  0
 48 50  1  0
 50 51  1  0
 50 52  1  0
 52 53  1  0
 53 54  2  0
 53 55  1  0
 55 56  1  0
 55 57  1  0
 57 58  1  0
 58 59  2  0
 58 60  1  0
 60 61  1  0
 61 62  1  0
 62 63  1  0
 60 64  1  0
 64 65  1  0
 65 66  2  0
 65 67  1  0
 67 68  1  0
 67 69  1  0
 69 70  1  0
 70 71  2  0
 70 72  1  0
 72 73  1  0
 72 74  1  0
 74 75  1  0
 75 76  2  0
 75 77  1  0
 77 78  1  0
 77 79  1  0
 79 80  1  0
 80 81  2  0
 80 82  1  0
 82 83  1  0
 82 84  1  0
 84 85  1  0
 85 86  2  0
 85 87  1  0
 87 88  1  0
 87 89  1  0
 89 90  1  0
 90 91  2  0
 90 92  1  0
 92 93  1  0
 92 94  1  0
 94 95  1  0
 95 96  2  0
 95 97  1  0
 97 98  1  0
 97 99  1  0
 99100  1  0
100101  2  0
100102  1  0
102103  1  0
102104  1  0
104105  1  0
105106  2  0
105107  1  0
107108  1  0
107109  1  0
109110  1  0
110111  2  0
110  5  1  0
 14  9  2  0
 63 11  1  0
  1112  1  0
  1113  1  0
  1114  1  0
  4115  1  0
  5116  1  1
  6117  1  0
  6118  1  0
  8119  1  0
  8120  1  0
 10121  1  0
 12122  1  0
 14123  1  0
 15124  1  0
 15125  1  0
 17126  1  0
 17127  1  0
 18128  1  1
 20129  1  0
 20130  1  0
 22131  1  0
 25132  1  1
 26133  1  0
 26134  1  0
 26135  1  0
 27136  1  0
 30137  1  1
 31138  1  0
 31139  1  0
 31140  1  0
 32141  1  0
 35142  1  6
 36143  1  0
 36144  1  0
 36145  1  0
 37146  1  0
 40147  1  1
 41148  1  0
 41149  1  0
 41150  1  0
 42151  1  0
 45152  1  6
 46153  1  0
 46154  1  0
 46155  1  0
 47156  1  0
 50157  1  1
 51158  1  0
 51159  1  0
 51160  1  0
 52161  1  0
 55162  1  6
 56163  1  0
 56164  1  0
 56165  1  0
 57166  1  0
 60167  1  6
 61168  1  0
 61169  1  0
 63170  1  0
 63171  1  0
 64172  1  0
 67173  1  6
 68174  1  0
 68175  1  0
 68176  1  0
 69177  1  0
 72178  1  6
 73179  1  0
 73180  1  0
 73181  1  0
 74182  1  0
 77183  1  6
 78184  1  0
 78185  1  0
 78186  1  0
 79187  1  0
 82188  1  1
 83189  1  0
 83190  1  0
 83191  1  0
 84192  1  0
 87193  1  1
 88194  1  0
 88195  1  0
 88196  1  0
 89197  1  0
 92198  1  1
 93199  1  0
 93200  1  0
 93201  1  0
 94202  1  0
 97203  1  1
 98204  1  0
 98205  1  0
 98206  1  0
 99207  1  0
102208  1  6
103209  1  0
103210  1  0
103211  1  0
104212  1  0
107213  1  1
108214  1  0
108215  1  0
108216  1  0
109217  1  0
M  END
