
     RDKit          3D

247249  0  0  0  0  0  0  0  0999 V2000
    4.3110   -8.1695   -4.6708 C   0  0  0  0  0  0  0  0  0  0  0  0
    5.1104   -7.3172   -3.7368 C   0  0  0  0  0  0  0  0  0  0  0  0
    6.2162   -6.8309   -4.1145 O   0  0  0  0  0  0  0  0  0  0  0  0
    4.6490   -7.1059   -2.3965 N   0  0  0  0  0  0  0  0  0  0  0  0
    4.8269   -5.8464   -1.6690 C   0  0  2  0  0  0  0  0  0  0  0  0
    4.0248   -4.7299   -2.3699 C   0  0  0  0  0  0  0  0  0  0  0  0
    3.7476   -3.3175   -1.2355 S   0  0  0  0  0  0  0  0  0  0  0  0
    2.6833   -2.3549   -2.3738 C   0  0  0  0  0  0  0  0  0  0  0  0
    1.3024   -2.2430   -1.7879 C   0  0  0  0  0  0  0  0  0  0  0  0
    0.8774   -1.0451   -1.1783 C   0  0  0  0  0  0  0  0  0  0  0  0
   -0.4004   -0.9459   -0.6050 C   0  0  0  0  0  0  0  0  0  0  0  0
   -1.2877   -2.0277   -0.7067 C   0  0  0  0  0  0  0  0  0  0  0  0
   -0.8848   -3.2210   -1.3290 C   0  0  0  0  0  0  0  0  0  0  0  0
    0.4209   -3.3362   -1.8351 C   0  0  0  0  0  0  0  0  0  0  0  0
   -1.8325   -4.3850   -1.4041 C   0  0  0  0  0  0  0  0  0  0  0  0
   -1.8061   -5.2979    0.1742 S   0  0  0  0  0  0  0  0  0  0  0  0
   -3.0381   -6.5496   -0.3630 C   0  0  0  0  0  0  0  0  0  0  0  0
   -3.3120   -7.6173    0.7162 C   0  0  1  0  0  0  0  0  0  0  0  0
   -2.0379   -8.2670    1.1890 C   0  0  0  0  0  0  0  0  0  0  0  0
   -1.3192   -9.1444    0.3283 N   0  0  0  0  0  0  0  0  0  0  0  0
   -1.5886   -8.0283    2.3450 O   0  0  0  0  0  0  0  0  0  0  0  0
   -4.0531   -7.0307    1.8418 N   0  0  0  0  0  0  0  0  0  0  0  0
   -5.3904   -7.3847    2.2491 C   0  0  0  0  0  0  0  0  0  0  0  0
   -5.8117   -6.9262    3.3459 O   0  0  0  0  0  0  0  0  0  0  0  0
   -6.3206   -8.2284    1.3960 C   0  0  1  0  0  0  0  0  0  0  0  0
   -7.5378   -8.7304    2.1891 C   0  0  0  0  0  0  0  0  0  0  0  0
   -6.6996   -7.4806    0.1867 N   0  0  0  0  0  0  0  0  0  0  0  0
   -8.0529   -7.2027   -0.2144 C   0  0  0  0  0  0  0  0  0  0  0  0
   -8.5962   -7.9457   -1.0750 O   0  0  0  0  0  0  0  0  0  0  0  0
   -8.8357   -6.0421    0.3626 C   0  0  1  0  0  0  0  0  0  0  0  0
   -7.9253   -5.0123    1.0377 C   0  0  0  0  0  0  0  0  0  0  0  0
   -9.6058   -5.3791   -0.6933 N   0  0  0  0  0  0  0  0  0  0  0  0
  -11.0339   -5.4625   -0.7798 C   0  0  0  0  0  0  0  0  0  0  0  0
  -11.5424   -6.1361   -1.7172 O   0  0  0  0  0  0  0  0  0  0  0  0
  -11.9464   -4.6794    0.1345 C   0  0  1  0  0  0  0  0  0  0  0  0
  -11.9777   -5.2561    1.5489 C   0  0  0  0  0  0  0  0  0  0  0  0
  -11.5424   -3.2667    0.1735 N   0  0  0  0  0  0  0  0  0  0  0  0
  -12.2785   -2.2379   -0.5035 C   0  0  0  0  0  0  0  0  0  0  0  0
  -11.7928   -1.7288   -1.5452 O   0  0  0  0  0  0  0  0  0  0  0  0
  -13.5745   -1.6917    0.0509 C   0  0  1  0  0  0  0  0  0  0  0  0
  -14.7634   -2.5945   -0.2983 C   0  0  0  0  0  0  0  0  0  0  0  0
  -13.4848   -1.5413    1.5041 N   0  0  0  0  0  0  0  0  0  0  0  0
  -13.7756   -0.3462    2.2548 C   0  0  0  0  0  0  0  0  0  0  0  0
  -13.9261   -0.4528    3.4993 O   0  0  0  0  0  0  0  0  0  0  0  0
  -13.9226    1.0221    1.6072 C   0  0  1  0  0  0  0  0  0  0  0  0
  -15.3669    1.2278    1.1435 C   0  0  0  0  0  0  0  0  0  0  0  0
  -13.5745    2.0775    2.5676 N   0  0  0  0  0  0  0  0  0  0  0  0
  -12.7016    3.1862    2.2969 C   0  0  0  0  0  0  0  0  0  0  0  0
  -12.0427    3.6789    3.2525 O   0  0  0  0  0  0  0  0  0  0  0  0
  -12.7141    3.9090    0.9661 C   0  0  1  0  0  0  0  0  0  0  0  0
  -13.7758    5.0195    1.0337 C   0  0  0  0  0  0  0  0  0  0  0  0
  -11.3909    4.4846    0.6729 N   0  0  0  0  0  0  0  0  0  0  0  0
  -11.1047    5.2279   -0.5258 C   0  0  0  0  0  0  0  0  0  0  0  0
  -11.8554    5.0941   -1.5309 O   0  0  0  0  0  0  0  0  0  0  0  0
   -9.8859    6.1191   -0.6233 C   0  0  1  0  0  0  0  0  0  0  0  0
  -10.2287    7.4351   -1.3293 C   0  0  0  0  0  0  0  0  0  0  0  0
   -9.3501    6.4233    0.7100 N   0  0  0  0  0  0  0  0  0  0  0  0
   -8.0255    6.0678    1.1143 C   0  0  0  0  0  0  0  0  0  0  0  0
   -7.8678    5.4445    2.1939 O   0  0  0  0  0  0  0  0  0  0  0  0
   -6.8209    6.5385    0.3324 C   0  0  1  0  0  0  0  0  0  0  0  0
   -6.3422    7.8872    0.8770 C   0  0  0  0  0  0  0  0  0  0  0  0
   -5.7424    5.5395    0.4169 N   0  0  0  0  0  0  0  0  0  0  0  0
   -5.3408    4.7065   -0.6849 C   0  0  0  0  0  0  0  0  0  0  0  0
   -5.2257    3.4656   -0.4910 O   0  0  0  0  0  0  0  0  0  0  0  0
   -4.9691    5.2632   -2.0416 C   0  0  1  0  0  0  0  0  0  0  0  0
   -6.1645    5.2290   -3.0041 C   0  0  0  0  0  0  0  0  0  0  0  0
   -4.4197    6.6157   -1.9198 N   0  0  0  0  0  0  0  0  0  0  0  0
   -3.1491    6.9377   -1.3182 C   0  0  0  0  0  0  0  0  0  0  0  0
   -3.0050    8.0752   -0.7838 O   0  0  0  0  0  0  0  0  0  0  0  0
   -1.9579    6.0053   -1.3611 C   0  0  1  0  0  0  0  0  0  0  0  0
   -0.8372    6.6198   -2.2052 C   0  0  0  0  0  0  0  0  0  0  0  0
   -1.4613    5.7489   -0.0053 N   0  0  0  0  0  0  0  0  0  0  0  0
   -1.4932    4.4412    0.5646 C   0  0  0  0  0  0  0  0  0  0  0  0
   -2.5882    3.9696    0.9617 O   0  0  0  0  0  0  0  0  0  0  0  0
   -0.2545    3.5680    0.6168 C   0  0  1  0  0  0  0  0  0  0  0  0
   -0.0474    2.8080   -0.7166 C   0  0  0  0  0  0  0  0  0  0  0  0
   -1.3780    1.5881   -1.0384 S   0  0  0  0  0  0  0  0  0  0  0  0
   -0.8052    0.3006    0.1309 C   0  0  0  0  0  0  0  0  0  0  0  0
    0.9338    4.3326    1.0184 N   0  0  0  0  0  0  0  0  0  0  0  0
    1.7418    5.1203    0.1363 C   0  0  0  0  0  0  0  0  0  0  0  0
    1.5110    6.3497    0.0034 O   0  0  0  0  0  0  0  0  0  0  0  0
    2.9342    4.5087   -0.5544 C   0  0  1  0  0  0  0  0  0  0  0  0
    2.9252    4.8280   -2.0588 C   0  0  0  0  0  0  0  0  0  0  0  0
    4.1802    4.9130    0.1117 N   0  0  0  0  0  0  0  0  0  0  0  0
    4.8705    6.1403   -0.1455 C   0  0  0  0  0  0  0  0  0  0  0  0
    4.6776    7.1250    0.6179 O   0  0  0  0  0  0  0  0  0  0  0  0
    5.9216    6.2041   -1.2303 C   0  0  1  0  0  0  0  0  0  0  0  0
    6.4771    7.6184   -1.4678 C   0  0  0  0  0  0  0  0  0  0  0  0
    6.9824    5.2154   -1.0058 N   0  0  0  0  0  0  0  0  0  0  0  0
    7.7744    5.0558    0.1876 C   0  0  0  0  0  0  0  0  0  0  0  0
    8.1306    3.8869    0.5144 O   0  0  0  0  0  0  0  0  0  0  0  0
    8.2652    6.2332    1.0032 C   0  0  1  0  0  0  0  0  0  0  0  0
    8.8703    5.8145    2.3492 C   0  0  0  0  0  0  0  0  0  0  0  0
    9.2377    7.0323    0.2448 N   0  0  0  0  0  0  0  0  0  0  0  0
   10.1854    6.4756   -0.6745 C   0  0  0  0  0  0  0  0  0  0  0  0
    9.8667    6.3348   -1.8836 O   0  0  0  0  0  0  0  0  0  0  0  0
   11.5734    6.0660   -0.2358 C   0  0  1  0  0  0  0  0  0  0  0  0
   12.1371    7.0606    0.7939 C   0  0  0  0  0  0  0  0  0  0  0  0
   11.5507    4.6792    0.2634 N   0  0  0  0  0  0  0  0  0  0  0  0
   12.6751    4.0743    0.9216 C   0  0  0  0  0  0  0  0  0  0  0  0
   13.1456    4.6081    1.9652 O   0  0  0  0  0  0  0  0  0  0  0  0
   13.2176    2.7445    0.4534 C   0  0  1  0  0  0  0  0  0  0  0  0
   13.4380    2.7446   -1.0634 C   0  0  0  0  0  0  0  0  0  0  0  0
   14.4953    2.4582    1.1127 N   0  0  0  0  0  0  0  0  0  0  0  0
   14.6889    1.3289    1.9743 C   0  0  0  0  0  0  0  0  0  0  0  0
   15.2560    1.5025    3.0853 O   0  0  0  0  0  0  0  0  0  0  0  0
   14.3165   -0.0677    1.5373 C   0  0  1  0  0  0  0  0  0  0  0  0
   15.6006   -0.8990    1.4120 C   0  0  0  0  0  0  0  0  0  0  0  0
   13.3905   -0.6731    2.5131 N   0  0  0  0  0  0  0  0  0  0  0  0
   12.5075   -1.7723    2.2469 C   0  0  0  0  0  0  0  0  0  0  0  0
   11.5267   -1.9565    3.0229 O   0  0  0  0  0  0  0  0  0  0  0  0
   12.7551   -2.7824    1.1422 C   0  0  1  0  0  0  0  0  0  0  0  0
   13.6754   -3.8834    1.6890 C   0  0  0  0  0  0  0  0  0  0  0  0
   11.4825   -3.3577    0.6892 N   0  0  0  0  0  0  0  0  0  0  0  0
   11.4106   -4.5656   -0.0847 C   0  0  0  0  0  0  0  0  0  0  0  0
   12.1825   -4.7181   -1.0687 O   0  0  0  0  0  0  0  0  0  0  0  0
   10.4860   -5.6884    0.3155 C   0  0  1  0  0  0  0  0  0  0  0  0
   11.2833   -6.8110    0.9869 C   0  0  0  0  0  0  0  0  0  0  0  0
    9.4451   -5.2158    1.2349 N   0  0  0  0  0  0  0  0  0  0  0  0
    8.0423   -5.4383    1.0294 C   0  0  0  0  0  0  0  0  0  0  0  0
    7.2252   -4.5532    1.4107 O   0  0  0  0  0  0  0  0  0  0  0  0
    7.5252   -6.7128    0.4025 C   0  0  1  0  0  0  0  0  0  0  0  0
    6.3214   -7.2762    1.1689 C   0  0  0  0  0  0  0  0  0  0  0  0
    7.2065   -6.5084   -1.0111 N   0  0  0  0  0  0  0  0  0  0  0  0
    6.2949   -5.5114   -1.4802 C   0  0  0  0  0  0  0  0  0  0  0  0
    6.7387   -4.3691   -1.7781 O   0  0  0  0  0  0  0  0  0  0  0  0
    4.8203   -8.2687   -5.6488 H   0  0  0  0  0  0  0  0  0  0  0  0
    3.3133   -7.6997   -4.8261 H   0  0  0  0  0  0  0  0  0  0  0  0
    4.1718   -9.1776   -4.2338 H   0  0  0  0  0  0  0  0  0  0  0  0
    4.0032   -7.8121   -1.9804 H   0  0  0  0  0  0  0  0  0  0  0  0
    4.3846   -5.9725   -0.6611 H   0  0  0  0  0  0  0  0  0  0  0  0
    4.5479   -4.3846   -3.2903 H   0  0  0  0  0  0  0  0  0  0  0  0
    3.0306   -5.1347   -2.6634 H   0  0  0  0  0  0  0  0  0  0  0  0
    2.6167   -2.7919   -3.3984 H   0  0  0  0  0  0  0  0  0  0  0  0
    3.1370   -1.3487   -2.4884 H   0  0  0  0  0  0  0  0  0  0  0  0
    1.5426   -0.1888   -1.1454 H   0  0  0  0  0  0  0  0  0  0  0  0
   -2.2901   -1.9440   -0.2922 H   0  0  0  0  0  0  0  0  0  0  0  0
    0.7426   -4.2621   -2.2926 H   0  0  0  0  0  0  0  0  0  0  0  0
   -2.8621   -4.0153   -1.5947 H   0  0  0  0  0  0  0  0  0  0  0  0
   -1.5550   -5.0626   -2.2382 H   0  0  0  0  0  0  0  0  0  0  0  0
   -3.9862   -6.0287   -0.6036 H   0  0  0  0  0  0  0  0  0  0  0  0
   -2.6746   -7.0484   -1.2869 H   0  0  0  0  0  0  0  0  0  0  0  0
   -3.9115   -8.4119    0.2319 H   0  0  0  0  0  0  0  0  0  0  0  0
   -0.3869   -9.5120    0.6270 H   0  0  0  0  0  0  0  0  0  0  0  0
   -1.6485   -9.3462   -0.6441 H   0  0  0  0  0  0  0  0  0  0  0  0
   -3.5596   -6.3172    2.4185 H   0  0  0  0  0  0  0  0  0  0  0  0
   -5.7744   -9.1465    1.0816 H   0  0  0  0  0  0  0  0  0  0  0  0
   -7.2008   -9.3628    3.0393 H   0  0  0  0  0  0  0  0  0  0  0  0
   -8.1943   -9.3489    1.5403 H   0  0  0  0  0  0  0  0  0  0  0  0
   -8.1278   -7.8837    2.5949 H   0  0  0  0  0  0  0  0  0  0  0  0
   -5.9750   -7.4018   -0.5632 H   0  0  0  0  0  0  0  0  0  0  0  0
   -9.5228   -6.4623    1.1220 H   0  0  0  0  0  0  0  0  0  0  0  0
   -7.1417   -4.6607    0.3270 H   0  0  0  0  0  0  0  0  0  0  0  0
   -7.4410   -5.4572    1.9309 H   0  0  0  0  0  0  0  0  0  0  0  0
   -8.5193   -4.1355    1.3733 H   0  0  0  0  0  0  0  0  0  0  0  0
   -9.0911   -5.0485   -1.5427 H   0  0  0  0  0  0  0  0  0  0  0  0
  -12.9727   -4.7572   -0.2789 H   0  0  0  0  0  0  0  0  0  0  0  0
  -11.0453   -5.0208    2.1001 H   0  0  0  0  0  0  0  0  0  0  0  0
  -12.8245   -4.8192    2.1120 H   0  0  0  0  0  0  0  0  0  0  0  0
  -12.1212   -6.3560    1.5135 H   0  0  0  0  0  0  0  0  0  0  0  0
  -10.5713   -3.0370    0.4792 H   0  0  0  0  0  0  0  0  0  0  0  0
  -13.7649   -0.7170   -0.4413 H   0  0  0  0  0  0  0  0  0  0  0  0
  -15.7137   -2.0594   -0.0854 H   0  0  0  0  0  0  0  0  0  0  0  0
  -14.7594   -3.5190    0.3171 H   0  0  0  0  0  0  0  0  0  0  0  0
  -14.7463   -2.8647   -1.3760 H   0  0  0  0  0  0  0  0  0  0  0  0
  -13.2947   -2.4045    2.0653 H   0  0  0  0  0  0  0  0  0  0  0  0
  -13.2398    1.0766    0.7368 H   0  0  0  0  0  0  0  0  0  0  0  0
  -16.0640    1.1667    2.0045 H   0  0  0  0  0  0  0  0  0  0  0  0
  -15.4698    2.2262    0.6704 H   0  0  0  0  0  0  0  0  0  0  0  0
  -15.6565    0.4607    0.3979 H   0  0  0  0  0  0  0  0  0  0  0  0
  -13.9652    2.0207    3.5371 H   0  0  0  0  0  0  0  0  0  0  0  0
  -12.9872    3.2154    0.1440 H   0  0  0  0  0  0  0  0  0  0  0  0
  -14.7609    4.5866    1.3051 H   0  0  0  0  0  0  0  0  0  0  0  0
  -13.5017    5.7790    1.7931 H   0  0  0  0  0  0  0  0  0  0  0  0
  -13.8937    5.5178    0.0509 H   0  0  0  0  0  0  0  0  0  0  0  0
  -10.5818    4.2598    1.3018 H   0  0  0  0  0  0  0  0  0  0  0  0
   -9.1211    5.5823   -1.2239 H   0  0  0  0  0  0  0  0  0  0  0  0
   -9.3422    8.0956   -1.3569 H   0  0  0  0  0  0  0  0  0  0  0  0
  -10.5509    7.2376   -2.3752 H   0  0  0  0  0  0  0  0  0  0  0  0
  -11.0547    7.9612   -0.7989 H   0  0  0  0  0  0  0  0  0  0  0  0
  -10.0149    6.7559    1.4486 H   0  0  0  0  0  0  0  0  0  0  0  0
   -7.1106    6.6982   -0.7157 H   0  0  0  0  0  0  0  0  0  0  0  0
   -5.4231    8.2140    0.3478 H   0  0  0  0  0  0  0  0  0  0  0  0
   -7.1288    8.6558    0.7100 H   0  0  0  0  0  0  0  0  0  0  0  0
   -6.1275    7.8213    1.9641 H   0  0  0  0  0  0  0  0  0  0  0  0
   -5.4141    5.2612    1.3663 H   0  0  0  0  0  0  0  0  0  0  0  0
   -4.2153    4.5996   -2.5006 H   0  0  0  0  0  0  0  0  0  0  0  0
   -6.9599    5.9427   -2.7206 H   0  0  0  0  0  0  0  0  0  0  0  0
   -5.8227    5.4940   -4.0272 H   0  0  0  0  0  0  0  0  0  0  0  0
   -6.6041    4.2093   -3.0400 H   0  0  0  0  0  0  0  0  0  0  0  0
   -5.0636    7.4221   -2.1128 H   0  0  0  0  0  0  0  0  0  0  0  0
   -2.2264    5.0415   -1.8354 H   0  0  0  0  0  0  0  0  0  0  0  0
   -0.5227    7.5993   -1.7841 H   0  0  0  0  0  0  0  0  0  0  0  0
   -1.1884    6.7707   -3.2521 H   0  0  0  0  0  0  0  0  0  0  0  0
    0.0517    5.9475   -2.2140 H   0  0  0  0  0  0  0  0  0  0  0  0
   -1.1231    6.5465    0.5809 H   0  0  0  0  0  0  0  0  0  0  0  0
   -0.4360    2.8185    1.4132 H   0  0  0  0  0  0  0  0  0  0  0  0
   -0.0421    3.5238   -1.5613 H   0  0  0  0  0  0  0  0  0  0  0  0
    0.9249    2.2759   -0.7132 H   0  0  0  0  0  0  0  0  0  0  0  0
   -1.6473    0.0796    0.8293 H   0  0  0  0  0  0  0  0  0  0  0  0
    0.0512    0.6481    0.7618 H   0  0  0  0  0  0  0  0  0  0  0  0
    1.2716    4.2263    2.0063 H   0  0  0  0  0  0  0  0  0  0  0  0
    2.8653    3.4033   -0.4679 H   0  0  0  0  0  0  0  0  0  0  0  0
    3.0094    5.9200   -2.2327 H   0  0  0  0  0  0  0  0  0  0  0  0
    3.7749    4.3119   -2.5584 H   0  0  0  0  0  0  0  0  0  0  0  0
    1.9819    4.4784   -2.5381 H   0  0  0  0  0  0  0  0  0  0  0  0
    4.3447    4.4936    1.0593 H   0  0  0  0  0  0  0  0  0  0  0  0
    5.4189    5.9346   -2.1871 H   0  0  0  0  0  0  0  0  0  0  0  0
    5.6865    8.2666   -1.9014 H   0  0  0  0  0  0  0  0  0  0  0  0
    7.3268    7.5754   -2.1816 H   0  0  0  0  0  0  0  0  0  0  0  0
    6.8174    8.1028   -0.5395 H   0  0  0  0  0  0  0  0  0  0  0  0
    7.0139    4.4173   -1.6853 H   0  0  0  0  0  0  0  0  0  0  0  0
    7.3970    6.8768    1.2506 H   0  0  0  0  0  0  0  0  0  0  0  0
    9.1511    6.7148    2.9368 H   0  0  0  0  0  0  0  0  0  0  0  0
    9.7737    5.1924    2.1988 H   0  0  0  0  0  0  0  0  0  0  0  0
    8.1248    5.2395    2.9369 H   0  0  0  0  0  0  0  0  0  0  0  0
    9.1218    8.0693    0.2290 H   0  0  0  0  0  0  0  0  0  0  0  0
   12.2450    6.0961   -1.1224 H   0  0  0  0  0  0  0  0  0  0  0  0
   13.2342    6.9225    0.8987 H   0  0  0  0  0  0  0  0  0  0  0  0
   11.9793    8.1022    0.4393 H   0  0  0  0  0  0  0  0  0  0  0  0
   11.6531    6.9323    1.7839 H   0  0  0  0  0  0  0  0  0  0  0  0
   10.8804    4.0234   -0.1958 H   0  0  0  0  0  0  0  0  0  0  0  0
   12.4657    1.9593    0.6977 H   0  0  0  0  0  0  0  0  0  0  0  0
   14.1256    3.5663   -1.3599 H   0  0  0  0  0  0  0  0  0  0  0  0
   12.4766    2.8677   -1.6030 H   0  0  0  0  0  0  0  0  0  0  0  0
   13.8896    1.7790   -1.3817 H   0  0  0  0  0  0  0  0  0  0  0  0
   15.2434    3.1908    1.1031 H   0  0  0  0  0  0  0  0  0  0  0  0
   13.8226   -0.0147    0.5450 H   0  0  0  0  0  0  0  0  0  0  0  0
   16.0034   -1.1503    2.4146 H   0  0  0  0  0  0  0  0  0  0  0  0
   15.4210   -1.8300    0.8431 H   0  0  0  0  0  0  0  0  0  0  0  0
   16.3765   -0.3281    0.8571 H   0  0  0  0  0  0  0  0  0  0  0  0
   13.2630   -0.1926    3.4347 H   0  0  0  0  0  0  0  0  0  0  0  0
   13.2424   -2.2901    0.2732 H   0  0  0  0  0  0  0  0  0  0  0  0
   14.0516   -4.5201    0.8611 H   0  0  0  0  0  0  0  0  0  0  0  0
   13.1284   -4.5184    2.4148 H   0  0  0  0  0  0  0  0  0  0  0  0
   14.5569   -3.4574    2.2104 H   0  0  0  0  0  0  0  0  0  0  0  0
   10.6113   -2.7786    0.7392 H   0  0  0  0  0  0  0  0  0  0  0  0
   10.0234   -6.0931   -0.6116 H   0  0  0  0  0  0  0  0  0  0  0  0
   11.7585   -6.4501    1.9257 H   0  0  0  0  0  0  0  0  0  0  0  0
   10.6096   -7.6555    1.2378 H   0  0  0  0  0  0  0  0  0  0  0  0
   12.0743   -7.1851    0.3058 H   0  0  0  0  0  0  0  0  0  0  0  0
    9.7274   -4.6476    2.0673 H   0  0  0  0  0  0  0  0  0  0  0  0
    8.3208   -7.4844    0.4714 H   0  0  0  0  0  0  0  0  0  0  0  0
    5.5118   -6.5275    1.2597 H   0  0  0  0  0  0  0  0  0  0  0  0
    5.9279   -8.1717    0.6439 H   0  0  0  0  0  0  0  0  0  0  0  0
    6.6300   -7.5720    2.1954 H   0  0  0  0  0  0  0  0  0  0  0  0
    7.7989   -6.9995   -1.7238 H   0  0  0  0  0  0  0  0  0  0  0  0
  1  2  1  0
  2  3  2  0
  2  4  1  0
  4  5  1  0
  5  6  1  0
  6  7  1  0
  7  8  1  0
  8  9  1  0
  9 10  1  0
 10 11  2  0
 11 12  1  0
 12 13  2  0
 13 14  1  0
 13 15  1  0
 15 16  1  0
 16 17  1  0
 17 18  1  0
 18 19  1  0
 19 20  1  0
 19 21  2  0
 18 22  1  0
 22 23  1  0
 23 24  2  0
 23 25  1  0
 25 26  1  0
 25 27  1  0
 27 28  1  0
 28 29  2  0
 28 30  1  0
 30 31  1  0
 30 32  1  0
 32 33  1  0
 33 34  2  0
 33 35  1  0
 35 36  1  0
 35 37  1  0
 37 38  1  0
 38 39  2  0
 38 40  1  0
 40 41  1  0
 40 42  1  0
 42 43  1  0
 43 44  2  0
 43 45  1  0
 45 46  1  0
 45 47  1  0
 47 48  1  0
 48 49  2  0
 48 50  1  0
 50 51  1  0
 50 52  1  0
 52 53  1  0
 53 54  2  0
 53 55  1  0
 55 56  1  0
 55 57  1  0
 57 58  1  0
 58 59  2  0
 58 60  1  0
 60 61  1  0
 60 62  1  0
 62 63  1  0
 63 64  2  0
 63 65  1  0
 65 66  1  0
 65 67  1  0
 67 68  1  0
 68 69  2  0
 68 70  1  0
 70 71  1  0
 70 72  1  0
 72 73  1  0
 73 74  2  0
 73 75  1  0
 75 76  1  0
 76 77  1  0
 77 78  1  0
 75 79  1  0
 79 80  1  0
 80 81  2  0
 80 82  1  0
 82 83  1  0
 82 84  1  0
 84 85  1  0
 85 86  2  0
 85 87  1  0
 87 88  1  0
 87 89  1  0
 89 90  1  0
 90 91  2  0
 90 92  1  0
 92 93  1  0
 92 94  1  0
 94 95  1  0
 95 96  2  0
 95 97  1  0
 97 98  1  0
 97 99  1  0
 99100  1  0
100101  2  0
100102  1  0
102103  1  0
102104  1  0
104105  1  0
105106  2  0
105107  1  0
107108  1  0
107109  1  0
109110  1  0
110111  2  0
110112  1  0
112113  1  0
112114  1  0
114115  1  0
115116  2  0
115117  1  0
117118  1  0
117119  1  0
119120  1  0
120121  2  0
120122  1  0
122123  1  0
122124  1  0
124125  1  0
125126  2  0
125  5  1  0
 14  9  2  0
 78 11  1  0
  1127  1  0
  1128  1  0
  1129  1  0
  4130  1  0
  5131  1  1
  6132  1  0
  6133  1  0
  8134  1  0
  8135  1  0
 10136  1  0
 12137  1  0
 14138  1  0
 15139  1  0
 15140  1  0
 17141  1  0
 17142  1  0
 18143  1  6
 20144  1  0
 20145  1  0
 22146  1  0
 25147  1  6
 26148  1  0
 26149  1  0
 26150  1  0
 27151  1  0
 30152  1  1
 31153  1  0
 31154  1  0
 31155  1  0
 32156  1  0
 35157  1  6
 36158  1  0
 36159  1  0
 36160  1  0
 37161  1  0
 40162  1  6
 41163  1  0
 41164  1  0
 41165  1  0
 42166  1  0
 45167  1  6
 46168  1  0
 46169  1  0
 46170  1  0
 47171  1  0
 50172  1  6
 51173  1  0
 51174  1  0
 51175  1  0
 52176  1  0
 55177  1  6
 56178  1  0
 56179  1  0
 56180  1  0
 57181  1  0
 60182  1  6
 61183  1  0
 61184  1  0
 61185  1  0
 62186  1  0
 65187  1  6
 66188  1  0
 66189  1  0
 66190  1  0
 67191  1  0
 70192  1  6
 71193  1  0
 71194  1  0
 71195  1  0
 72196  1  0
 75197  1  1
 76198  1  0
 76199  1  0
 78200  1  0
 78201  1  0
 79202  1  0
 82203  1  6
 83204  1  0
 83205  1  0
 83206  1  0
 84207  1  0
 87208  1  6
 88209  1  0
 88210  1  0
 88211  1  0
 89212  1  0
 92213  1  1
 93214  1  0
 93215  1  0
 93216  1  0
 94217  1  0
 97218  1  6
 98219  1  0
 98220  1  0
 98221  1  0
 99222  1  0
102223  1  6
103224  1  0
103225  1  0
103226  1  0
104227  1  0
107228  1  6
108229  1  0
108230  1  0
108231  1  0
109232  1  0
112233  1  6
113234  1  0
113235  1  0
113236  1  0
114237  1  0
117238  1  6
118239  1  0
118240  1  0
118241  1  0
119242  1  0
122243  1  6
123244  1  0
123245  1  0
123246  1  0
124247  1  0
M  END
