
     RDKit          3D

147149  0  0  0  0  0  0  0  0999 V2000
   12.0686    0.0772    0.8517 C   0  0  0  0  0  0  0  0  0  0  0  0
   11.4167   -0.4470   -0.3955 C   0  0  0  0  0  0  0  0  0  0  0  0
   12.0601   -0.4230   -1.4757 O   0  0  0  0  0  0  0  0  0  0  0  0
   10.0942   -1.0107   -0.3836 N   0  0  0  0  0  0  0  0  0  0  0  0
    9.2148   -1.0204    0.7909 C   0  0  2  0  0  0  0  0  0  0  0  0
    8.4291   -2.3387    0.8700 C   0  0  0  0  0  0  0  0  0  0  0  0
    7.1589   -2.4840   -0.4421 S   0  0  0  0  0  0  0  0  0  0  0  0
    6.3669   -3.9919    0.2363 C   0  0  0  0  0  0  0  0  0  0  0  0
    4.8745   -3.9230    0.0384 C   0  0  0  0  0  0  0  0  0  0  0  0
    4.2112   -4.9122   -0.7020 C   0  0  0  0  0  0  0  0  0  0  0  0
    2.8243   -4.8466   -0.8952 C   0  0  0  0  0  0  0  0  0  0  0  0
    2.1019   -3.7659   -0.3663 C   0  0  0  0  0  0  0  0  0  0  0  0
    2.7553   -2.7616    0.3689 C   0  0  0  0  0  0  0  0  0  0  0  0
    4.1382   -2.8573    0.5851 C   0  0  0  0  0  0  0  0  0  0  0  0
    1.9988   -1.5482    0.8330 C   0  0  0  0  0  0  0  0  0  0  0  0
    1.8038   -0.3967   -0.5742 S   0  0  0  0  0  0  0  0  0  0  0  0
    3.2383    0.6691   -0.1569 C   0  0  0  0  0  0  0  0  0  0  0  0
    3.6776    1.5241   -1.3613 C   0  0  2  0  0  0  0  0  0  0  0  0
    4.8414    2.3847   -1.0856 N   0  0  0  0  0  0  0  0  0  0  0  0
    5.8424    2.1241   -0.0868 C   0  0  0  0  0  0  0  0  0  0  0  0
    5.5003    1.8807    1.1022 O   0  0  0  0  0  0  0  0  0  0  0  0
    7.3093    2.2112   -0.4415 C   0  0  1  0  0  0  0  0  0  0  0  0
    8.0586    3.2268    0.4355 C   0  0  0  0  0  0  0  0  0  0  0  0
    7.9466    0.8829   -0.3993 N   0  0  0  0  0  0  0  0  0  0  0  0
    8.2905    0.1765    0.8121 C   0  0  0  0  0  0  0  0  0  0  0  0
    7.7781    0.5217    1.9131 O   0  0  0  0  0  0  0  0  0  0  0  0
    2.5296    2.3543   -1.8974 C   0  0  0  0  0  0  0  0  0  0  0  0
    2.1816    2.2234   -3.1013 O   0  0  0  0  0  0  0  0  0  0  0  0
    1.7539    3.1996   -1.0399 N   0  0  0  0  0  0  0  0  0  0  0  0
    2.2442    4.4954   -0.5589 C   0  0  2  0  0  0  0  0  0  0  0  0
    2.7041    4.3677    0.8959 C   0  0  0  0  0  0  0  0  0  0  0  0
    1.1770    5.5510   -0.7625 C   0  0  0  0  0  0  0  0  0  0  0  0
    0.9758    5.9879   -1.9286 O   0  0  0  0  0  0  0  0  0  0  0  0
    0.3758    6.0469    0.3260 N   0  0  0  0  0  0  0  0  0  0  0  0
   -0.4494    7.2606    0.2161 C   0  0  2  0  0  0  0  0  0  0  0  0
    0.4537    8.4932    0.0526 C   0  0  0  0  0  0  0  0  0  0  0  0
   -1.3138    7.4053    1.4543 C   0  0  0  0  0  0  0  0  0  0  0  0
   -0.7752    7.8090    2.5188 O   0  0  0  0  0  0  0  0  0  0  0  0
   -2.7064    7.0401    1.4961 N   0  0  0  0  0  0  0  0  0  0  0  0
   -3.5315    6.6269    0.3547 C   0  0  2  0  0  0  0  0  0  0  0  0
   -4.2542    7.8479   -0.2209 C   0  0  0  0  0  0  0  0  0  0  0  0
   -4.5220    5.5848    0.8044 C   0  0  0  0  0  0  0  0  0  0  0  0
   -5.3411    5.8523    1.7272 O   0  0  0  0  0  0  0  0  0  0  0  0
   -4.5025    4.2639    0.2496 N   0  0  0  0  0  0  0  0  0  0  0  0
   -5.1227    3.9119   -1.0324 C   0  0  2  0  0  0  0  0  0  0  0  0
   -4.3771    4.5340   -2.2156 C   0  0  0  0  0  0  0  0  0  0  0  0
   -6.5817    4.2866   -1.0439 C   0  0  0  0  0  0  0  0  0  0  0  0
   -6.9291    5.4963   -0.9682 O   0  0  0  0  0  0  0  0  0  0  0  0
   -7.5823    3.2726   -1.1663 N   0  0  0  0  0  0  0  0  0  0  0  0
   -8.2434    2.6655   -0.0104 C   0  0  2  0  0  0  0  0  0  0  0  0
   -8.8428    3.7360    0.9130 C   0  0  0  0  0  0  0  0  0  0  0  0
   -7.2932    1.7366    0.7071 C   0  0  0  0  0  0  0  0  0  0  0  0
   -6.9171    1.9824    1.8890 O   0  0  0  0  0  0  0  0  0  0  0  0
   -6.7767    0.5867    0.0292 N   0  0  0  0  0  0  0  0  0  0  0  0
   -7.3003   -0.7711    0.1905 C   0  0  2  0  0  0  0  0  0  0  0  0
   -8.8232   -0.8120    0.0275 C   0  0  0  0  0  0  0  0  0  0  0  0
   -6.8924   -1.3538    1.5224 C   0  0  0  0  0  0  0  0  0  0  0  0
   -7.1729   -0.7411    2.5861 O   0  0  0  0  0  0  0  0  0  0  0  0
   -6.1633   -2.5868    1.6120 N   0  0  0  0  0  0  0  0  0  0  0  0
   -6.4476   -3.7614    0.7804 C   0  0  2  0  0  0  0  0  0  0  0  0
   -7.2463   -4.7778    1.6045 C   0  0  0  0  0  0  0  0  0  0  0  0
   -5.1487   -4.2938    0.2118 C   0  0  0  0  0  0  0  0  0  0  0  0
   -4.5176   -3.5698   -0.6043 O   0  0  0  0  0  0  0  0  0  0  0  0
   -4.6112   -5.5817    0.5742 N   0  0  0  0  0  0  0  0  0  0  0  0
   -3.4064   -6.1322   -0.0601 C   0  0  2  0  0  0  0  0  0  0  0  0
   -3.7455   -6.6502   -1.4606 C   0  0  0  0  0  0  0  0  0  0  0  0
   -2.8325   -7.2505    0.7766 C   0  0  0  0  0  0  0  0  0  0  0  0
   -3.5985   -8.1329    1.2581 O   0  0  0  0  0  0  0  0  0  0  0  0
   -1.4230   -7.3316    1.0335 N   0  0  0  0  0  0  0  0  0  0  0  0
   -0.4614   -7.4274   -0.0672 C   0  0  2  0  0  0  0  0  0  0  0  0
   -0.6098   -8.7681   -0.7394 C   0  0  0  0  0  0  0  0  0  0  0  0
   -0.4704   -9.9778    0.0078 N   0  0  0  0  0  0  0  0  0  0  0  0
   -0.8386   -8.8261   -1.9761 O   0  0  0  0  0  0  0  0  0  0  0  0
    0.9739   -7.2206    0.4464 C   0  0  0  0  0  0  0  0  0  0  0  0
    2.2401   -7.5317   -0.8469 S   0  0  0  0  0  0  0  0  0  0  0  0
    2.1308   -5.9125   -1.6914 C   0  0  0  0  0  0  0  0  0  0  0  0
   12.1922   -0.7458    1.5853 H   0  0  0  0  0  0  0  0  0  0  0  0
   13.0769    0.4862    0.6244 H   0  0  0  0  0  0  0  0  0  0  0  0
   11.4479    0.8847    1.2945 H   0  0  0  0  0  0  0  0  0  0  0  0
    9.7195   -1.3582   -1.2965 H   0  0  0  0  0  0  0  0  0  0  0  0
    9.8319   -0.9784    1.7131 H   0  0  0  0  0  0  0  0  0  0  0  0
    9.1349   -3.1933    0.7762 H   0  0  0  0  0  0  0  0  0  0  0  0
    7.9509   -2.4024    1.8724 H   0  0  0  0  0  0  0  0  0  0  0  0
    6.7993   -4.8718   -0.2937 H   0  0  0  0  0  0  0  0  0  0  0  0
    6.5634   -4.1155    1.3213 H   0  0  0  0  0  0  0  0  0  0  0  0
    4.7753   -5.7348   -1.1274 H   0  0  0  0  0  0  0  0  0  0  0  0
    1.0372   -3.6919   -0.5359 H   0  0  0  0  0  0  0  0  0  0  0  0
    4.6485   -2.0918    1.1559 H   0  0  0  0  0  0  0  0  0  0  0  0
    2.5139   -1.0639    1.6794 H   0  0  0  0  0  0  0  0  0  0  0  0
    0.9945   -1.8517    1.1889 H   0  0  0  0  0  0  0  0  0  0  0  0
    2.9633    1.3170    0.7029 H   0  0  0  0  0  0  0  0  0  0  0  0
    4.0851    0.0135    0.1317 H   0  0  0  0  0  0  0  0  0  0  0  0
    3.9817    0.8169   -2.1636 H   0  0  0  0  0  0  0  0  0  0  0  0
    5.1145    3.0321   -1.8589 H   0  0  0  0  0  0  0  0  0  0  0  0
    7.3822    2.5834   -1.4850 H   0  0  0  0  0  0  0  0  0  0  0  0
    7.6536    4.2512    0.2615 H   0  0  0  0  0  0  0  0  0  0  0  0
    9.1369    3.2288    0.1692 H   0  0  0  0  0  0  0  0  0  0  0  0
    7.9553    2.9987    1.5143 H   0  0  0  0  0  0  0  0  0  0  0  0
    8.2192    0.4676   -1.3137 H   0  0  0  0  0  0  0  0  0  0  0  0
    0.7285    2.9942   -0.9649 H   0  0  0  0  0  0  0  0  0  0  0  0
    3.1299    4.8035   -1.1602 H   0  0  0  0  0  0  0  0  0  0  0  0
    2.9108    5.3692    1.3280 H   0  0  0  0  0  0  0  0  0  0  0  0
    3.6391    3.7777    0.9419 H   0  0  0  0  0  0  0  0  0  0  0  0
    1.9391    3.8463    1.5105 H   0  0  0  0  0  0  0  0  0  0  0  0
    0.3413    5.4990    1.2168 H   0  0  0  0  0  0  0  0  0  0  0  0
   -1.0723    7.2024   -0.6954 H   0  0  0  0  0  0  0  0  0  0  0  0
    1.1854    8.5560    0.8855 H   0  0  0  0  0  0  0  0  0  0  0  0
   -0.1629    9.4176    0.0492 H   0  0  0  0  0  0  0  0  0  0  0  0
    1.0071    8.4549   -0.9082 H   0  0  0  0  0  0  0  0  0  0  0  0
   -3.1955    7.2106    2.4069 H   0  0  0  0  0  0  0  0  0  0  0  0
   -2.9064    6.1625   -0.4328 H   0  0  0  0  0  0  0  0  0  0  0  0
   -3.5058    8.5896   -0.5843 H   0  0  0  0  0  0  0  0  0  0  0  0
   -4.8874    8.3289    0.5540 H   0  0  0  0  0  0  0  0  0  0  0  0
   -4.8958    7.5562   -1.0736 H   0  0  0  0  0  0  0  0  0  0  0  0
   -4.3016    3.4791    0.9139 H   0  0  0  0  0  0  0  0  0  0  0  0
   -5.0487    2.8115   -1.1576 H   0  0  0  0  0  0  0  0  0  0  0  0
   -3.2945    4.3008   -2.1512 H   0  0  0  0  0  0  0  0  0  0  0  0
   -4.5077    5.6349   -2.2484 H   0  0  0  0  0  0  0  0  0  0  0  0
   -4.7718    4.1142   -3.1663 H   0  0  0  0  0  0  0  0  0  0  0  0
   -7.8407    2.9482   -2.1228 H   0  0  0  0  0  0  0  0  0  0  0  0
   -9.0900    2.0463   -0.3788 H   0  0  0  0  0  0  0  0  0  0  0  0
   -8.0404    4.3586    1.3652 H   0  0  0  0  0  0  0  0  0  0  0  0
   -9.5222    4.3929    0.3326 H   0  0  0  0  0  0  0  0  0  0  0  0
   -9.4255    3.2526    1.7255 H   0  0  0  0  0  0  0  0  0  0  0  0
   -5.9737    0.7285   -0.6291 H   0  0  0  0  0  0  0  0  0  0  0  0
   -6.8618   -1.3840   -0.6233 H   0  0  0  0  0  0  0  0  0  0  0  0
   -9.1118   -0.3863   -0.9541 H   0  0  0  0  0  0  0  0  0  0  0  0
   -9.1838   -1.8598    0.0753 H   0  0  0  0  0  0  0  0  0  0  0  0
   -9.3214   -0.2305    0.8379 H   0  0  0  0  0  0  0  0  0  0  0  0
   -5.5633   -2.7308    2.4568 H   0  0  0  0  0  0  0  0  0  0  0  0
   -7.0947   -3.4923   -0.0806 H   0  0  0  0  0  0  0  0  0  0  0  0
   -7.4563   -5.6913    1.0128 H   0  0  0  0  0  0  0  0  0  0  0  0
   -8.2229   -4.3296    1.8972 H   0  0  0  0  0  0  0  0  0  0  0  0
   -6.7064   -5.0450    2.5391 H   0  0  0  0  0  0  0  0  0  0  0  0
   -5.1347   -6.1787    1.2503 H   0  0  0  0  0  0  0  0  0  0  0  0
   -2.6370   -5.3306   -0.1474 H   0  0  0  0  0  0  0  0  0  0  0  0
   -4.1550   -5.8301   -2.0860 H   0  0  0  0  0  0  0  0  0  0  0  0
   -4.5039   -7.4607   -1.4005 H   0  0  0  0  0  0  0  0  0  0  0  0
   -2.8385   -7.0369   -1.9625 H   0  0  0  0  0  0  0  0  0  0  0  0
   -1.1473   -7.7328    1.9596 H   0  0  0  0  0  0  0  0  0  0  0  0
   -0.6798   -6.6282   -0.8089 H   0  0  0  0  0  0  0  0  0  0  0  0
   -0.5845  -10.9049   -0.4591 H   0  0  0  0  0  0  0  0  0  0  0  0
   -0.3483   -9.9500    1.0460 H   0  0  0  0  0  0  0  0  0  0  0  0
    1.1755   -7.9279    1.2837 H   0  0  0  0  0  0  0  0  0  0  0  0
    1.0846   -6.1966    0.8581 H   0  0  0  0  0  0  0  0  0  0  0  0
    1.0714   -5.6455   -1.8953 H   0  0  0  0  0  0  0  0  0  0  0  0
    2.6340   -6.0036   -2.6802 H   0  0  0  0  0  0  0  0  0  0  0  0
  1  2  1  0
  2  3  2  0
  2  4  1  0
  4  5  1  0
  5  6  1  0
  6  7  1  0
  7  8  1  0
  8  9  1  0
  9 10  1  0
 10 11  2  0
 11 12  1  0
 12 13  2  0
 13 14  1  0
 13 15  1  0
 15 16  1  0
 16 17  1  0
 17 18  1  0
 18 19  1  0
 19 20  1  0
 20 21  2  0
 20 22  1  0
 22 23  1  0
 22 24  1  0
 24 25  1  0
 25 26  2  0
 18 27  1  0
 27 28  2  0
 27 29  1  0
 29 30  1  0
 30 31  1  0
 30 32  1  0
 32 33  2  0
 32 34  1  0
 34 35  1  0
 35 36  1  0
 35 37  1  0
 37 38  2  0
 37 39  1  0
 39 40  1  0
 40 41  1  0
 40 42  1  0
 42 43  2  0
 42 44  1  0
 44 45  1  0
 45 46  1  0
 45 47  1  0
 47 48  2  0
 47 49  1  0
 49 50  1  0
 50 51  1  0
 50 52  1  0
 52 53  2  0
 52 54  1  0
 54 55  1  0
 55 56  1  0
 55 57  1  0
 57 58  2  0
 57 59  1  0
 59 60  1  0
 60 61  1  0
 60 62  1  0
 62 63  2  0
 62 64  1  0
 64 65  1  0
 65 66  1  0
 65 67  1  0
 67 68  2  0
 67 69  1  0
 69 70  1  0
 70 71  1  0
 71 72  1  0
 71 73  2  0
 70 74  1  0
 74 75  1  0
 75 76  1  0
 25  5  1  0
 14  9  2  0
 76 11  1  0
  1 77  1  0
  1 78  1  0
  1 79  1  0
  4 80  1  0
  5 81  1  1
  6 82  1  0
  6 83  1  0
  8 84  1  0
  8 85  1  0
 10 86  1  0
 12 87  1  0
 14 88  1  0
 15 89  1  0
 15 90  1  0
 17 91  1  0
 17 92  1  0
 18 93  1  6
 19 94  1  0
 22 95  1  6
 23 96  1  0
 23 97  1  0
 23 98  1  0
 24 99  1  0
 29100  1  0
 30101  1  6
 31102  1  0
 31103  1  0
 31104  1  0
 34105  1  0
 35106  1  6
 36107  1  0
 36108  1  0
 36109  1  0
 39110  1  0
 40111  1  6
 41112  1  0
 41113  1  0
 41114  1  0
 44115  1  0
 45116  1  6
 46117  1  0
 46118  1  0
 46119  1  0
 49120  1  0
 50121  1  6
 51122  1  0
 51123  1  0
 51124  1  0
 54125  1  0
 55126  1  6
 56127  1  0
 56128  1  0
 56129  1  0
 59130  1  0
 60131  1  6
 61132  1  0
 61133  1  0
 61134  1  0
 64135  1  0
 65136  1  6
 66137  1  0
 66138  1  0
 66139  1  0
 69140  1  0
 70141  1  6
 72142  1  0
 72143  1  0
 74144  1  0
 74145  1  0
 76146  1  0
 76147  1  0
M  END
