
     RDKit          3D

177179  0  0  0  0  0  0  0  0999 V2000
   -0.3615    9.2661   -0.1579 C   0  0  0  0  0  0  0  0  0  0  0  0
   -1.4852    8.2739   -0.2250 C   0  0  0  0  0  0  0  0  0  0  0  0
   -2.6643    8.7162   -0.1766 O   0  0  0  0  0  0  0  0  0  0  0  0
   -1.2843    6.8519   -0.3280 N   0  0  0  0  0  0  0  0  0  0  0  0
    0.0196    6.1788   -0.3200 C   0  0  1  0  0  0  0  0  0  0  0  0
   -0.1439    4.6469   -0.1335 C   0  0  0  0  0  0  0  0  0  0  0  0
   -0.4535    3.6828   -1.6732 S   0  0  0  0  0  0  0  0  0  0  0  0
   -2.2810    3.8281   -1.7960 C   0  0  0  0  0  0  0  0  0  0  0  0
   -2.9922    3.3099   -0.5704 C   0  0  0  0  0  0  0  0  0  0  0  0
   -3.8862    4.1364    0.1262 C   0  0  0  0  0  0  0  0  0  0  0  0
   -4.5271    3.6816    1.2854 C   0  0  0  0  0  0  0  0  0  0  0  0
   -4.2748    2.3834    1.7455 C   0  0  0  0  0  0  0  0  0  0  0  0
   -3.4320    1.5150    1.0341 C   0  0  0  0  0  0  0  0  0  0  0  0
   -2.7914    1.9931   -0.1295 C   0  0  0  0  0  0  0  0  0  0  0  0
   -3.3539    0.0743    1.4934 C   0  0  0  0  0  0  0  0  0  0  0  0
   -1.9353   -0.8788    0.8209 S   0  0  0  0  0  0  0  0  0  0  0  0
   -2.7588   -1.3770   -0.7397 C   0  0  0  0  0  0  0  0  0  0  0  0
   -3.3926   -2.7713   -0.6259 C   0  0  2  0  0  0  0  0  0  0  0  0
   -2.3502   -3.7838   -0.4426 N   0  0  0  0  0  0  0  0  0  0  0  0
   -2.6082   -5.0522    0.1870 C   0  0  0  0  0  0  0  0  0  0  0  0
   -3.5654   -5.1664    0.9971 O   0  0  0  0  0  0  0  0  0  0  0  0
   -1.7022   -6.2399   -0.0463 C   0  0  1  0  0  0  0  0  0  0  0  0
   -1.1368   -6.2853   -1.4745 C   0  0  0  0  0  0  0  0  0  0  0  0
   -0.6169   -6.2620    0.9357 N   0  0  0  0  0  0  0  0  0  0  0  0
    0.1892   -5.1178    1.2290 C   0  0  0  0  0  0  0  0  0  0  0  0
   -0.2643   -4.2231    1.9949 O   0  0  0  0  0  0  0  0  0  0  0  0
    1.5880   -5.0171    0.6899 C   0  0  1  0  0  0  0  0  0  0  0  0
    1.9003   -3.5890    0.2350 C   0  0  0  0  0  0  0  0  0  0  0  0
    2.5421   -5.4276    1.7229 N   0  0  0  0  0  0  0  0  0  0  0  0
    3.5744   -6.4300    1.5922 C   0  0  0  0  0  0  0  0  0  0  0  0
    4.3443   -6.6200    2.5746 O   0  0  0  0  0  0  0  0  0  0  0  0
    3.7825   -7.2849    0.3583 C   0  0  1  0  0  0  0  0  0  0  0  0
    2.6713   -8.3345    0.2200 C   0  0  0  0  0  0  0  0  0  0  0  0
    3.9062   -6.4662   -0.8556 N   0  0  0  0  0  0  0  0  0  0  0  0
    4.9414   -5.4904   -1.0808 C   0  0  0  0  0  0  0  0  0  0  0  0
    4.7951   -4.6624   -2.0214 O   0  0  0  0  0  0  0  0  0  0  0  0
    6.2036   -5.4324   -0.2550 C   0  0  1  0  0  0  0  0  0  0  0  0
    7.4251   -5.7848   -1.1159 C   0  0  0  0  0  0  0  0  0  0  0  0
    6.3269   -4.1260    0.4025 N   0  0  0  0  0  0  0  0  0  0  0  0
    7.1488   -3.0452   -0.0776 C   0  0  0  0  0  0  0  0  0  0  0  0
    7.1385   -2.7533   -1.3016 O   0  0  0  0  0  0  0  0  0  0  0  0
    8.0797   -2.2946    0.8422 C   0  0  1  0  0  0  0  0  0  0  0  0
    7.8674   -2.6100    2.3240 C   0  0  0  0  0  0  0  0  0  0  0  0
    9.4610   -2.6205    0.4711 N   0  0  0  0  0  0  0  0  0  0  0  0
   10.4108   -1.6989   -0.0912 C   0  0  0  0  0  0  0  0  0  0  0  0
   11.4961   -2.1589   -0.5398 O   0  0  0  0  0  0  0  0  0  0  0  0
   10.1454   -0.2104   -0.1558 C   0  0  1  0  0  0  0  0  0  0  0  0
   11.4144    0.5872   -0.4849 C   0  0  0  0  0  0  0  0  0  0  0  0
    9.1191    0.0666   -1.1629 N   0  0  0  0  0  0  0  0  0  0  0  0
    8.0528    1.0196   -0.9970 C   0  0  0  0  0  0  0  0  0  0  0  0
    6.9965    0.8565   -1.6654 O   0  0  0  0  0  0  0  0  0  0  0  0
    8.2058    2.2645   -0.1493 C   0  0  1  0  0  0  0  0  0  0  0  0
    8.5229    3.4731   -1.0323 C   0  0  0  0  0  0  0  0  0  0  0  0
    7.0228    2.5042    0.6887 N   0  0  0  0  0  0  0  0  0  0  0  0
    5.8256    3.1447    0.2146 C   0  0  0  0  0  0  0  0  0  0  0  0
    5.1561    2.6081   -0.7101 O   0  0  0  0  0  0  0  0  0  0  0  0
    5.3899    4.4928    0.7360 C   0  0  1  0  0  0  0  0  0  0  0  0
    6.1923    4.9573    1.9591 C   0  0  0  0  0  0  0  0  0  0  0  0
    5.5269    5.4782   -0.3412 N   0  0  0  0  0  0  0  0  0  0  0  0
    4.4289    5.9569   -1.1258 C   0  0  0  0  0  0  0  0  0  0  0  0
    4.5668    6.0154   -2.3811 O   0  0  0  0  0  0  0  0  0  0  0  0
    3.1433    6.4395   -0.4892 C   0  0  1  0  0  0  0  0  0  0  0  0
    3.4414    7.6025    0.4623 C   0  0  0  0  0  0  0  0  0  0  0  0
    2.1979    6.8910   -1.5195 N   0  0  0  0  0  0  0  0  0  0  0  0
    0.8059    6.5325   -1.5664 C   0  0  0  0  0  0  0  0  0  0  0  0
    0.1941    6.6227   -2.6639 O   0  0  0  0  0  0  0  0  0  0  0  0
   -4.1595   -3.0750   -1.8923 C   0  0  0  0  0  0  0  0  0  0  0  0
   -3.5270   -3.1292   -2.9805 O   0  0  0  0  0  0  0  0  0  0  0  0
   -5.5889   -3.2163   -1.9214 N   0  0  0  0  0  0  0  0  0  0  0  0
   -6.3670   -3.9542   -0.9180 C   0  0  2  0  0  0  0  0  0  0  0  0
   -6.1698   -5.4601   -1.1088 C   0  0  0  0  0  0  0  0  0  0  0  0
   -7.8424   -3.6199   -1.0530 C   0  0  0  0  0  0  0  0  0  0  0  0
   -8.3928   -3.7705   -2.1766 O   0  0  0  0  0  0  0  0  0  0  0  0
   -8.6570   -3.1758    0.0485 N   0  0  0  0  0  0  0  0  0  0  0  0
   -8.1708   -2.9395    1.4111 C   0  0  2  0  0  0  0  0  0  0  0  0
   -9.3327   -2.8462    2.4095 C   0  0  0  0  0  0  0  0  0  0  0  0
   -7.3031   -1.7055    1.4804 C   0  0  0  0  0  0  0  0  0  0  0  0
   -6.3468   -1.6918    2.3046 O   0  0  0  0  0  0  0  0  0  0  0  0
   -7.4790   -0.5737    0.6066 N   0  0  0  0  0  0  0  0  0  0  0  0
   -8.7830    0.0043    0.2646 C   0  0  2  0  0  0  0  0  0  0  0  0
   -8.7964    0.3871   -1.2122 C   0  0  0  0  0  0  0  0  0  0  0  0
   -9.1206    1.1156    1.2445 C   0  0  0  0  0  0  0  0  0  0  0  0
   -9.1375    0.8175    2.4647 O   0  0  0  0  0  0  0  0  0  0  0  0
   -9.5685    2.4346    0.8714 N   0  0  0  0  0  0  0  0  0  0  0  0
   -8.8671    3.3684   -0.0247 C   0  0  1  0  0  0  0  0  0  0  0  0
   -9.5696    4.7092   -0.0381 C   0  0  0  0  0  0  0  0  0  0  0  0
  -10.9710    4.7797   -0.3151 N   0  0  0  0  0  0  0  0  0  0  0  0
   -8.9349    5.7818    0.1726 O   0  0  0  0  0  0  0  0  0  0  0  0
   -7.3769    3.4976    0.3565 C   0  0  0  0  0  0  0  0  0  0  0  0
   -7.1642    3.8865    2.1420 S   0  0  0  0  0  0  0  0  0  0  0  0
   -5.4754    4.5849    2.0296 C   0  0  0  0  0  0  0  0  0  0  0  0
    0.6334    8.7972   -0.2075 H   0  0  0  0  0  0  0  0  0  0  0  0
   -0.4295    9.8309    0.7947 H   0  0  0  0  0  0  0  0  0  0  0  0
   -0.4585    9.9827   -1.0027 H   0  0  0  0  0  0  0  0  0  0  0  0
   -2.1448    6.2709   -0.2889 H   0  0  0  0  0  0  0  0  0  0  0  0
    0.5703    6.5420    0.5712 H   0  0  0  0  0  0  0  0  0  0  0  0
    0.8059    4.2456    0.2829 H   0  0  0  0  0  0  0  0  0  0  0  0
   -0.9105    4.4274    0.6370 H   0  0  0  0  0  0  0  0  0  0  0  0
   -2.5500    4.8791   -2.0185 H   0  0  0  0  0  0  0  0  0  0  0  0
   -2.6076    3.2211   -2.6635 H   0  0  0  0  0  0  0  0  0  0  0  0
   -4.1035    5.1267   -0.2526 H   0  0  0  0  0  0  0  0  0  0  0  0
   -4.7860    2.0331    2.6368 H   0  0  0  0  0  0  0  0  0  0  0  0
   -2.1380    1.3531   -0.7057 H   0  0  0  0  0  0  0  0  0  0  0  0
   -3.2671    0.0516    2.5991 H   0  0  0  0  0  0  0  0  0  0  0  0
   -4.3036   -0.4309    1.2319 H   0  0  0  0  0  0  0  0  0  0  0  0
   -3.5299   -0.6341   -1.0362 H   0  0  0  0  0  0  0  0  0  0  0  0
   -1.9867   -1.3724   -1.5393 H   0  0  0  0  0  0  0  0  0  0  0  0
   -4.0617   -2.7552    0.2546 H   0  0  0  0  0  0  0  0  0  0  0  0
   -1.4255   -3.6298   -0.9062 H   0  0  0  0  0  0  0  0  0  0  0  0
   -2.3099   -7.1629    0.0813 H   0  0  0  0  0  0  0  0  0  0  0  0
   -1.9592   -6.1958   -2.2137 H   0  0  0  0  0  0  0  0  0  0  0  0
   -0.6211   -7.2553   -1.6374 H   0  0  0  0  0  0  0  0  0  0  0  0
   -0.3969   -5.4750   -1.6449 H   0  0  0  0  0  0  0  0  0  0  0  0
   -0.4113   -7.1586    1.4396 H   0  0  0  0  0  0  0  0  0  0  0  0
    1.6501   -5.6646   -0.2017 H   0  0  0  0  0  0  0  0  0  0  0  0
    1.2385   -3.3040   -0.6116 H   0  0  0  0  0  0  0  0  0  0  0  0
    2.9580   -3.5204   -0.1021 H   0  0  0  0  0  0  0  0  0  0  0  0
    1.7612   -2.8666    1.0698 H   0  0  0  0  0  0  0  0  0  0  0  0
    2.5173   -4.8961    2.6221 H   0  0  0  0  0  0  0  0  0  0  0  0
    4.7235   -7.8698    0.4749 H   0  0  0  0  0  0  0  0  0  0  0  0
    2.8702   -8.9809   -0.6626 H   0  0  0  0  0  0  0  0  0  0  0  0
    1.6719   -7.8759    0.0985 H   0  0  0  0  0  0  0  0  0  0  0  0
    2.6532   -8.9815    1.1227 H   0  0  0  0  0  0  0  0  0  0  0  0
    3.2023   -6.5879   -1.6191 H   0  0  0  0  0  0  0  0  0  0  0  0
    6.1826   -6.1935    0.5496 H   0  0  0  0  0  0  0  0  0  0  0  0
    7.3584   -6.8445   -1.4404 H   0  0  0  0  0  0  0  0  0  0  0  0
    8.3569   -5.6569   -0.5267 H   0  0  0  0  0  0  0  0  0  0  0  0
    7.4765   -5.1502   -2.0256 H   0  0  0  0  0  0  0  0  0  0  0  0
    5.7529   -3.9624    1.2636 H   0  0  0  0  0  0  0  0  0  0  0  0
    7.8719   -1.2124    0.7178 H   0  0  0  0  0  0  0  0  0  0  0  0
    8.0276   -3.6924    2.5243 H   0  0  0  0  0  0  0  0  0  0  0  0
    8.5908   -2.0302    2.9356 H   0  0  0  0  0  0  0  0  0  0  0  0
    6.8431   -2.3203    2.6379 H   0  0  0  0  0  0  0  0  0  0  0  0
    9.7576   -3.6188    0.5561 H   0  0  0  0  0  0  0  0  0  0  0  0
    9.7972    0.1021    0.8531 H   0  0  0  0  0  0  0  0  0  0  0  0
   12.2099    0.3664    0.2569 H   0  0  0  0  0  0  0  0  0  0  0  0
   11.7804    0.3256   -1.5028 H   0  0  0  0  0  0  0  0  0  0  0  0
   11.2041    1.6781   -0.4560 H   0  0  0  0  0  0  0  0  0  0  0  0
    9.1063   -0.5203   -2.0296 H   0  0  0  0  0  0  0  0  0  0  0  0
    9.0705    2.1486    0.5305 H   0  0  0  0  0  0  0  0  0  0  0  0
    9.4647    3.2992   -1.5941 H   0  0  0  0  0  0  0  0  0  0  0  0
    7.7037    3.6568   -1.7606 H   0  0  0  0  0  0  0  0  0  0  0  0
    8.6559    4.3762   -0.4009 H   0  0  0  0  0  0  0  0  0  0  0  0
    7.1413    2.4015    1.7226 H   0  0  0  0  0  0  0  0  0  0  0  0
    4.3289    4.4010    1.0474 H   0  0  0  0  0  0  0  0  0  0  0  0
    6.0488    4.2486    2.8026 H   0  0  0  0  0  0  0  0  0  0  0  0
    7.2752    5.0356    1.7174 H   0  0  0  0  0  0  0  0  0  0  0  0
    5.8339    5.9561    2.2870 H   0  0  0  0  0  0  0  0  0  0  0  0
    6.4884    5.6461   -0.7205 H   0  0  0  0  0  0  0  0  0  0  0  0
    2.7005    5.6084    0.0929 H   0  0  0  0  0  0  0  0  0  0  0  0
    4.1363    7.2811    1.2620 H   0  0  0  0  0  0  0  0  0  0  0  0
    3.8972    8.4505   -0.0918 H   0  0  0  0  0  0  0  0  0  0  0  0
    2.5067    7.9533    0.9505 H   0  0  0  0  0  0  0  0  0  0  0  0
    2.5439    7.5373   -2.2677 H   0  0  0  0  0  0  0  0  0  0  0  0
   -6.0393   -3.0501   -2.8513 H   0  0  0  0  0  0  0  0  0  0  0  0
   -6.0088   -3.6949    0.0939 H   0  0  0  0  0  0  0  0  0  0  0  0
   -6.6951   -6.0214   -0.3048 H   0  0  0  0  0  0  0  0  0  0  0  0
   -6.5632   -5.7886   -2.0968 H   0  0  0  0  0  0  0  0  0  0  0  0
   -5.0916   -5.7158   -1.0700 H   0  0  0  0  0  0  0  0  0  0  0  0
   -9.6853   -3.0873   -0.1383 H   0  0  0  0  0  0  0  0  0  0  0  0
   -7.5686   -3.8218    1.7257 H   0  0  0  0  0  0  0  0  0  0  0  0
   -9.9127   -3.7965    2.3999 H   0  0  0  0  0  0  0  0  0  0  0  0
  -10.0268   -2.0157    2.1680 H   0  0  0  0  0  0  0  0  0  0  0  0
   -8.9426   -2.6995    3.4402 H   0  0  0  0  0  0  0  0  0  0  0  0
   -6.6459    0.0376    0.4686 H   0  0  0  0  0  0  0  0  0  0  0  0
   -9.5789   -0.7533    0.3829 H   0  0  0  0  0  0  0  0  0  0  0  0
   -8.7152   -0.5346   -1.8266 H   0  0  0  0  0  0  0  0  0  0  0  0
   -7.9329    1.0343   -1.4667 H   0  0  0  0  0  0  0  0  0  0  0  0
   -9.7556    0.8754   -1.4806 H   0  0  0  0  0  0  0  0  0  0  0  0
  -10.2920    2.8412    1.5133 H   0  0  0  0  0  0  0  0  0  0  0  0
   -8.9312    3.0057   -1.0664 H   0  0  0  0  0  0  0  0  0  0  0  0
  -11.4648    5.6929   -0.2378 H   0  0  0  0  0  0  0  0  0  0  0  0
  -11.5262    3.9074   -0.4811 H   0  0  0  0  0  0  0  0  0  0  0  0
   -6.8646    2.5365    0.1506 H   0  0  0  0  0  0  0  0  0  0  0  0
   -6.8934    4.2763   -0.2714 H   0  0  0  0  0  0  0  0  0  0  0  0
   -5.5411    5.5837    1.5467 H   0  0  0  0  0  0  0  0  0  0  0  0
   -5.0874    4.7279    3.0626 H   0  0  0  0  0  0  0  0  0  0  0  0
  1  2  1  0
  2  3  2  0
  2  4  1  0
  4  5  1  0
  5  6  1  0
  6  7  1  0
  7  8  1  0
  8  9  1  0
  9 10  1  0
 10 11  2  0
 11 12  1  0
 12 13  2  0
 13 14  1  0
 13 15  1  0
 15 16  1  0
 16 17  1  0
 17 18  1  0
 18 19  1  0
 19 20  1  0
 20 21  2  0
 20 22  1  0
 22 23  1  0
 22 24  1  0
 24 25  1  0
 25 26  2  0
 25 27  1  0
 27 28  1  0
 27 29  1  0
 29 30  1  0
 30 31  2  0
 30 32  1  0
 32 33  1  0
 32 34  1  0
 34 35  1  0
 35 36  2  0
 35 37  1  0
 37 38  1  0
 37 39  1  0
 39 40  1  0
 40 41  2  0
 40 42  1  0
 42 43  1  0
 42 44  1  0
 44 45  1  0
 45 46  2  0
 45 47  1  0
 47 48  1  0
 47 49  1  0
 49 50  1  0
 50 51  2  0
 50 52  1  0
 52 53  1  0
 52 54  1  0
 54 55  1  0
 55 56  2  0
 55 57  1  0
 57 58  1  0
 57 59  1  0
 59 60  1  0
 60 61  2  0
 60 62  1  0
 62 63  1  0
 62 64  1  0
 64 65  1  0
 65 66  2  0
 18 67  1  0
 67 68  2  0
 67 69  1  0
 69 70  1  0
 70 71  1  0
 70 72  1  0
 72 73  2  0
 72 74  1  0
 74 75  1  0
 75 76  1  0
 75 77  1  0
 77 78  2  0
 77 79  1  0
 79 80  1  0
 80 81  1  0
 80 82  1  0
 82 83  2  0
 82 84  1  0
 84 85  1  0
 85 86  1  0
 86 87  1  0
 86 88  2  0
 85 89  1  0
 89 90  1  0
 90 91  1  0
 65  5  1  0
 14  9  2  0
 91 11  1  0
  1 92  1  0
  1 93  1  0
  1 94  1  0
  4 95  1  0
  5 96  1  1
  6 97  1  0
  6 98  1  0
  8 99  1  0
  8100  1  0
 10101  1  0
 12102  1  0
 14103  1  0
 15104  1  0
 15105  1  0
 17106  1  0
 17107  1  0
 18108  1  1
 19109  1  0
 22110  1  1
 23111  1  0
 23112  1  0
 23113  1  0
 24114  1  0
 27115  1  6
 28116  1  0
 28117  1  0
 28118  1  0
 29119  1  0
 32120  1  1
 33121  1  0
 33122  1  0
 33123  1  0
 34124  1  0
 37125  1  1
 38126  1  0
 38127  1  0
 38128  1  0
 39129  1  0
 42130  1  1
 43131  1  0
 43132  1  0
 43133  1  0
 44134  1  0
 47135  1  1
 48136  1  0
 48137  1  0
 48138  1  0
 49139  1  0
 52140  1  1
 53141  1  0
 53142  1  0
 53143  1  0
 54144  1  0
 57145  1  1
 58146  1  0
 58147  1  0
 58148  1  0
 59149  1  0
 62150  1  1
 63151  1  0
 63152  1  0
 63153  1  0
 64154  1  0
 69155  1  0
 70156  1  1
 71157  1  0
 71158  1  0
 71159  1  0
 74160  1  0
 75161  1  1
 76162  1  0
 76163  1  0
 76164  1  0
 79165  1  0
 80166  1  6
 81167  1  0
 81168  1  0
 81169  1  0
 84170  1  0
 85171  1  6
 87172  1  0
 87173  1  0
 89174  1  0
 89175  1  0
 91176  1  0
 91177  1  0
M  END
