
     RDKit          3D

247249  0  0  0  0  0  0  0  0999 V2000
   -4.9106   -8.3150    3.1962 C   0  0  0  0  0  0  0  0  0  0  0  0
   -4.8953   -8.0220    1.7342 C   0  0  0  0  0  0  0  0  0  0  0  0
   -4.5230   -8.9209    0.9316 O   0  0  0  0  0  0  0  0  0  0  0  0
   -5.2887   -6.7251    1.2525 N   0  0  0  0  0  0  0  0  0  0  0  0
   -5.3008   -6.3364   -0.1602 C   0  0  1  0  0  0  0  0  0  0  0  0
   -3.8719   -6.4018   -0.7631 C   0  0  0  0  0  0  0  0  0  0  0  0
   -3.3834   -4.8271   -1.5655 S   0  0  0  0  0  0  0  0  0  0  0  0
   -3.2842   -3.8065   -0.0435 C   0  0  0  0  0  0  0  0  0  0  0  0
   -1.9608   -3.1031    0.0296 C   0  0  0  0  0  0  0  0  0  0  0  0
   -0.7828   -3.8424    0.2132 C   0  0  0  0  0  0  0  0  0  0  0  0
    0.4572   -3.1900    0.3206 C   0  0  0  0  0  0  0  0  0  0  0  0
    0.5157   -1.7930    0.2356 C   0  0  0  0  0  0  0  0  0  0  0  0
   -0.6509   -1.0413    0.0088 C   0  0  0  0  0  0  0  0  0  0  0  0
   -1.8879   -1.6983   -0.0662 C   0  0  0  0  0  0  0  0  0  0  0  0
   -0.5545    0.4455   -0.1952 C   0  0  0  0  0  0  0  0  0  0  0  0
    0.0416    1.2958    1.3167 S   0  0  0  0  0  0  0  0  0  0  0  0
    0.6892    2.7906    0.4730 C   0  0  0  0  0  0  0  0  0  0  0  0
   -0.4403    3.7737    0.0794 C   0  0  1  0  0  0  0  0  0  0  0  0
   -0.7386    4.6809    1.1971 N   0  0  0  0  0  0  0  0  0  0  0  0
   -2.0503    5.1441    1.5608 C   0  0  0  0  0  0  0  0  0  0  0  0
   -2.1474    6.2128    2.2280 O   0  0  0  0  0  0  0  0  0  0  0  0
   -3.3025    4.4005    1.1565 C   0  0  1  0  0  0  0  0  0  0  0  0
   -4.4494    4.6044    2.1571 C   0  0  0  0  0  0  0  0  0  0  0  0
   -3.7168    4.7578   -0.2055 N   0  0  0  0  0  0  0  0  0  0  0  0
   -3.6585    6.0847   -0.7407 C   0  0  0  0  0  0  0  0  0  0  0  0
   -2.7646    6.3692   -1.5825 O   0  0  0  0  0  0  0  0  0  0  0  0
   -4.7706    7.0683   -0.4861 C   0  0  1  0  0  0  0  0  0  0  0  0
   -4.2539    8.5073   -0.4294 C   0  0  0  0  0  0  0  0  0  0  0  0
   -5.7728    6.9351   -1.5520 N   0  0  0  0  0  0  0  0  0  0  0  0
   -7.0183    6.2206   -1.4355 C   0  0  0  0  0  0  0  0  0  0  0  0
   -7.6390    5.9149   -2.4853 O   0  0  0  0  0  0  0  0  0  0  0  0
   -7.6195    5.8780   -0.0854 C   0  0  1  0  0  0  0  0  0  0  0  0
   -8.1567    7.1361    0.6131 C   0  0  0  0  0  0  0  0  0  0  0  0
   -8.6553    4.8384   -0.1818 N   0  0  0  0  0  0  0  0  0  0  0  0
  -10.0184    5.1408   -0.5093 C   0  0  0  0  0  0  0  0  0  0  0  0
  -10.2993    5.6206   -1.6388 O   0  0  0  0  0  0  0  0  0  0  0  0
  -11.1056    4.8568    0.4944 C   0  0  1  0  0  0  0  0  0  0  0  0
  -12.0299    6.0661    0.6402 C   0  0  0  0  0  0  0  0  0  0  0  0
  -11.8752    3.6654    0.1123 N   0  0  0  0  0  0  0  0  0  0  0  0
  -12.7587    3.0115    1.0478 C   0  0  0  0  0  0  0  0  0  0  0  0
  -12.5990    3.1867    2.2939 O   0  0  0  0  0  0  0  0  0  0  0  0
  -13.9029    2.1418    0.5904 C   0  0  1  0  0  0  0  0  0  0  0  0
  -15.2295    2.7397    1.0719 C   0  0  0  0  0  0  0  0  0  0  0  0
  -13.9380    2.0251   -0.8735 N   0  0  0  0  0  0  0  0  0  0  0  0
  -13.9690    0.7971   -1.6385 C   0  0  0  0  0  0  0  0  0  0  0  0
  -14.0987    0.8924   -2.8915 O   0  0  0  0  0  0  0  0  0  0  0  0
  -13.9679   -0.5828   -1.0016 C   0  0  1  0  0  0  0  0  0  0  0  0
  -15.4040   -0.9316   -0.5826 C   0  0  0  0  0  0  0  0  0  0  0  0
  -13.4506   -1.6012   -1.9341 N   0  0  0  0  0  0  0  0  0  0  0  0
  -13.1938   -2.9823   -1.6255 C   0  0  0  0  0  0  0  0  0  0  0  0
  -12.9049   -3.7626   -2.5730 O   0  0  0  0  0  0  0  0  0  0  0  0
  -13.2648   -3.5540   -0.2241 C   0  0  1  0  0  0  0  0  0  0  0  0
  -14.4760   -4.4941   -0.1105 C   0  0  0  0  0  0  0  0  0  0  0  0
  -11.9942   -4.2275    0.0643 N   0  0  0  0  0  0  0  0  0  0  0  0
  -11.8537   -5.5964    0.4679 C   0  0  0  0  0  0  0  0  0  0  0  0
  -12.4207   -5.9933    1.5224 O   0  0  0  0  0  0  0  0  0  0  0  0
  -10.9425   -6.5284   -0.2921 C   0  0  1  0  0  0  0  0  0  0  0  0
  -11.5521   -7.9372   -0.3792 C   0  0  0  0  0  0  0  0  0  0  0  0
  -10.7160   -6.0255   -1.6539 N   0  0  0  0  0  0  0  0  0  0  0  0
   -9.4594   -5.6031   -2.2230 C   0  0  0  0  0  0  0  0  0  0  0  0
   -9.4224   -5.3496   -3.4590 O   0  0  0  0  0  0  0  0  0  0  0  0
   -8.1688   -5.4546   -1.4327 C   0  0  1  0  0  0  0  0  0  0  0  0
   -8.3208   -4.4051   -0.3152 C   0  0  0  0  0  0  0  0  0  0  0  0
   -7.7122   -6.7653   -0.9328 N   0  0  0  0  0  0  0  0  0  0  0  0
   -6.3306   -7.1549   -0.9065 C   0  0  0  0  0  0  0  0  0  0  0  0
   -6.0141   -8.2854   -1.3770 O   0  0  0  0  0  0  0  0  0  0  0  0
   -0.0841    4.5246   -1.1898 C   0  0  0  0  0  0  0  0  0  0  0  0
   -0.1121    3.8901   -2.2852 O   0  0  0  0  0  0  0  0  0  0  0  0
    0.2118    5.9258   -1.2167 N   0  0  0  0  0  0  0  0  0  0  0  0
    1.2824    6.5256   -0.4272 C   0  0  2  0  0  0  0  0  0  0  0  0
    0.7635    7.7888    0.2710 C   0  0  0  0  0  0  0  0  0  0  0  0
    2.4535    6.8590   -1.3128 C   0  0  0  0  0  0  0  0  0  0  0  0
    2.3259    7.7250   -2.2238 O   0  0  0  0  0  0  0  0  0  0  0  0
    3.6950    6.1675   -1.1544 N   0  0  0  0  0  0  0  0  0  0  0  0
    4.8990    6.8006   -0.5988 C   0  0  2  0  0  0  0  0  0  0  0  0
    4.5593    7.5281    0.7114 C   0  0  0  0  0  0  0  0  0  0  0  0
    5.5572    7.7449   -1.5900 C   0  0  0  0  0  0  0  0  0  0  0  0
    5.0103    7.9572   -2.7055 O   0  0  0  0  0  0  0  0  0  0  0  0
    6.7746    8.4481   -1.2791 N   0  0  0  0  0  0  0  0  0  0  0  0
    7.8287    7.9263   -0.4065 C   0  0  2  0  0  0  0  0  0  0  0  0
    8.2053    8.9780    0.6403 C   0  0  0  0  0  0  0  0  0  0  0  0
    9.0234    7.5454   -1.2370 C   0  0  0  0  0  0  0  0  0  0  0  0
    9.6111    8.4284   -1.9215 O   0  0  0  0  0  0  0  0  0  0  0  0
    9.4363    6.1768   -1.3638 N   0  0  0  0  0  0  0  0  0  0  0  0
   10.0795    5.3825   -0.3062 C   0  0  2  0  0  0  0  0  0  0  0  0
    9.0979    5.0000    0.8044 C   0  0  0  0  0  0  0  0  0  0  0  0
   11.2879    6.0900    0.2594 C   0  0  0  0  0  0  0  0  0  0  0  0
   11.1632    7.2397    0.7717 O   0  0  0  0  0  0  0  0  0  0  0  0
   12.5864    5.4860    0.2439 N   0  0  0  0  0  0  0  0  0  0  0  0
   12.8276    4.1294    0.7598 C   0  0  2  0  0  0  0  0  0  0  0  0
   13.1449    4.2208    2.2535 C   0  0  0  0  0  0  0  0  0  0  0  0
   13.9595    3.4669   -0.0009 C   0  0  0  0  0  0  0  0  0  0  0  0
   14.8959    4.1779   -0.4568 O   0  0  0  0  0  0  0  0  0  0  0  0
   13.9919    2.0494   -0.2439 N   0  0  0  0  0  0  0  0  0  0  0  0
   13.5082    1.0508    0.7143 C   0  0  2  0  0  0  0  0  0  0  0  0
   14.6064    0.7230    1.7282 C   0  0  0  0  0  0  0  0  0  0  0  0
   13.0446   -0.1897   -0.0020 C   0  0  0  0  0  0  0  0  0  0  0  0
   11.8069   -0.4068   -0.1242 O   0  0  0  0  0  0  0  0  0  0  0  0
   13.9871   -1.1249   -0.5484 N   0  0  0  0  0  0  0  0  0  0  0  0
   13.7508   -2.5697   -0.4583 C   0  0  2  0  0  0  0  0  0  0  0  0
   14.3419   -3.0827    0.8630 C   0  0  0  0  0  0  0  0  0  0  0  0
   14.3646   -3.2998   -1.6414 C   0  0  0  0  0  0  0  0  0  0  0  0
   15.1962   -2.6969   -2.3721 O   0  0  0  0  0  0  0  0  0  0  0  0
   14.0519   -4.6732   -1.9595 N   0  0  0  0  0  0  0  0  0  0  0  0
   13.0658   -5.5182   -1.2675 C   0  0  2  0  0  0  0  0  0  0  0  0
   13.7793   -6.6965   -0.5978 C   0  0  0  0  0  0  0  0  0  0  0  0
   12.0292   -6.0373   -2.2415 C   0  0  0  0  0  0  0  0  0  0  0  0
   12.2750   -5.9818   -3.4812 O   0  0  0  0  0  0  0  0  0  0  0  0
   10.8103   -6.6703   -1.8203 N   0  0  0  0  0  0  0  0  0  0  0  0
   10.0964   -6.3920   -0.5680 C   0  0  2  0  0  0  0  0  0  0  0  0
    9.9375   -7.6956    0.2194 C   0  0  0  0  0  0  0  0  0  0  0  0
    8.7625   -5.7620   -0.8927 C   0  0  0  0  0  0  0  0  0  0  0  0
    8.6660   -4.9700   -1.8702 O   0  0  0  0  0  0  0  0  0  0  0  0
    7.6027   -6.0418   -0.0947 N   0  0  0  0  0  0  0  0  0  0  0  0
    6.3968   -6.6042   -0.7096 C   0  0  2  0  0  0  0  0  0  0  0  0
    5.5173   -5.4918   -1.2905 C   0  0  0  0  0  0  0  0  0  0  0  0
    5.6370   -7.4193    0.2959 C   0  0  0  0  0  0  0  0  0  0  0  0
    5.5306   -8.6707    0.1474 O   0  0  0  0  0  0  0  0  0  0  0  0
    5.0827   -6.8048    1.4553 N   0  0  0  0  0  0  0  0  0  0  0  0
    3.6632   -6.4503    1.5001 C   0  0  1  0  0  0  0  0  0  0  0  0
    2.8713   -7.5850    2.0991 C   0  0  0  0  0  0  0  0  0  0  0  0
    1.8387   -8.2249    1.3446 N   0  0  0  0  0  0  0  0  0  0  0  0
    3.1248   -7.9856    3.2658 O   0  0  0  0  0  0  0  0  0  0  0  0
    3.4749   -5.1493    2.3040 C   0  0  0  0  0  0  0  0  0  0  0  0
    1.7365   -4.5587    2.2965 S   0  0  0  0  0  0  0  0  0  0  0  0
    1.7003   -3.9953    0.5577 C   0  0  0  0  0  0  0  0  0  0  0  0
   -3.8878   -8.5868    3.5262 H   0  0  0  0  0  0  0  0  0  0  0  0
   -5.2457   -7.4318    3.7800 H   0  0  0  0  0  0  0  0  0  0  0  0
   -5.6000   -9.1588    3.4062 H   0  0  0  0  0  0  0  0  0  0  0  0
   -5.5585   -5.9934    1.9553 H   0  0  0  0  0  0  0  0  0  0  0  0
   -5.6207   -5.2844   -0.2118 H   0  0  0  0  0  0  0  0  0  0  0  0
   -3.7824   -7.1996   -1.5268 H   0  0  0  0  0  0  0  0  0  0  0  0
   -3.1164   -6.6362    0.0154 H   0  0  0  0  0  0  0  0  0  0  0  0
   -4.1227   -3.0789   -0.0617 H   0  0  0  0  0  0  0  0  0  0  0  0
   -3.4050   -4.4189    0.8714 H   0  0  0  0  0  0  0  0  0  0  0  0
   -0.8405   -4.9217    0.2822 H   0  0  0  0  0  0  0  0  0  0  0  0
    1.4784   -1.2883    0.3126 H   0  0  0  0  0  0  0  0  0  0  0  0
   -2.7887   -1.1220   -0.2325 H   0  0  0  0  0  0  0  0  0  0  0  0
    0.1364    0.6147   -1.0434 H   0  0  0  0  0  0  0  0  0  0  0  0
   -1.5393    0.8715   -0.4804 H   0  0  0  0  0  0  0  0  0  0  0  0
    1.2766    2.4727   -0.4152 H   0  0  0  0  0  0  0  0  0  0  0  0
    1.4140    3.2851    1.1484 H   0  0  0  0  0  0  0  0  0  0  0  0
   -1.3457    3.1807   -0.1687 H   0  0  0  0  0  0  0  0  0  0  0  0
    0.0569    5.0906    1.7401 H   0  0  0  0  0  0  0  0  0  0  0  0
   -3.0826    3.3161    1.1898 H   0  0  0  0  0  0  0  0  0  0  0  0
   -5.3496    4.0538    1.8196 H   0  0  0  0  0  0  0  0  0  0  0  0
   -4.6999    5.6748    2.2914 H   0  0  0  0  0  0  0  0  0  0  0  0
   -4.1503    4.2016    3.1506 H   0  0  0  0  0  0  0  0  0  0  0  0
   -3.7218    3.9792   -0.9090 H   0  0  0  0  0  0  0  0  0  0  0  0
   -5.2090    6.8692    0.5048 H   0  0  0  0  0  0  0  0  0  0  0  0
   -5.0982    9.1963   -0.2252 H   0  0  0  0  0  0  0  0  0  0  0  0
   -3.7850    8.8010   -1.3876 H   0  0  0  0  0  0  0  0  0  0  0  0
   -3.5119    8.6158    0.3893 H   0  0  0  0  0  0  0  0  0  0  0  0
   -5.4842    7.2300   -2.5170 H   0  0  0  0  0  0  0  0  0  0  0  0
   -6.8158    5.4540    0.5500 H   0  0  0  0  0  0  0  0  0  0  0  0
   -8.5806    6.8601    1.6013 H   0  0  0  0  0  0  0  0  0  0  0  0
   -8.9448    7.6179   -0.0010 H   0  0  0  0  0  0  0  0  0  0  0  0
   -7.3416    7.8749    0.7760 H   0  0  0  0  0  0  0  0  0  0  0  0
   -8.4867    3.9619    0.3670 H   0  0  0  0  0  0  0  0  0  0  0  0
  -10.6157    4.6730    1.4781 H   0  0  0  0  0  0  0  0  0  0  0  0
  -12.7931    5.8725    1.4194 H   0  0  0  0  0  0  0  0  0  0  0  0
  -12.5501    6.2786   -0.3191 H   0  0  0  0  0  0  0  0  0  0  0  0
  -11.4457    6.9582    0.9411 H   0  0  0  0  0  0  0  0  0  0  0  0
  -11.7881    3.2937   -0.8629 H   0  0  0  0  0  0  0  0  0  0  0  0
  -13.7835    1.1543    1.0706 H   0  0  0  0  0  0  0  0  0  0  0  0
  -16.0799    2.1192    0.7296 H   0  0  0  0  0  0  0  0  0  0  0  0
  -15.3574    3.7690    0.6737 H   0  0  0  0  0  0  0  0  0  0  0  0
  -15.2564    2.7741    2.1815 H   0  0  0  0  0  0  0  0  0  0  0  0
  -14.0597    2.9056   -1.4153 H   0  0  0  0  0  0  0  0  0  0  0  0
  -13.2995   -0.5661   -0.1179 H   0  0  0  0  0  0  0  0  0  0  0  0
  -16.0070   -1.2268   -1.4686 H   0  0  0  0  0  0  0  0  0  0  0  0
  -15.4070   -1.7572    0.1507 H   0  0  0  0  0  0  0  0  0  0  0  0
  -15.8963   -0.0734   -0.0889 H   0  0  0  0  0  0  0  0  0  0  0  0
  -13.2018   -1.3196   -2.9084 H   0  0  0  0  0  0  0  0  0  0  0  0
  -13.3786   -2.7461    0.5227 H   0  0  0  0  0  0  0  0  0  0  0  0
  -15.3977   -3.9991   -0.4813 H   0  0  0  0  0  0  0  0  0  0  0  0
  -14.3219   -5.4158   -0.7169 H   0  0  0  0  0  0  0  0  0  0  0  0
  -14.6442   -4.7789    0.9494 H   0  0  0  0  0  0  0  0  0  0  0  0
  -11.1183   -3.6597   -0.0231 H   0  0  0  0  0  0  0  0  0  0  0  0
  -10.0023   -6.6151    0.2725 H   0  0  0  0  0  0  0  0  0  0  0  0
  -10.9482   -8.5687   -1.0613 H   0  0  0  0  0  0  0  0  0  0  0  0
  -12.5926   -7.8957   -0.7548 H   0  0  0  0  0  0  0  0  0  0  0  0
  -11.5459   -8.4141    0.6218 H   0  0  0  0  0  0  0  0  0  0  0  0
  -11.5492   -6.0010   -2.2853 H   0  0  0  0  0  0  0  0  0  0  0  0
   -7.3981   -5.0635   -2.1323 H   0  0  0  0  0  0  0  0  0  0  0  0
   -8.8536   -3.5113   -0.7097 H   0  0  0  0  0  0  0  0  0  0  0  0
   -7.3401   -4.0437    0.0468 H   0  0  0  0  0  0  0  0  0  0  0  0
   -8.8752   -4.7877    0.5620 H   0  0  0  0  0  0  0  0  0  0  0  0
   -8.3934   -7.5571   -0.9521 H   0  0  0  0  0  0  0  0  0  0  0  0
   -0.1369    6.4576   -2.0492 H   0  0  0  0  0  0  0  0  0  0  0  0
    1.6327    5.8146    0.3459 H   0  0  0  0  0  0  0  0  0  0  0  0
    0.4586    8.5611   -0.4723 H   0  0  0  0  0  0  0  0  0  0  0  0
    1.5502    8.2114    0.9304 H   0  0  0  0  0  0  0  0  0  0  0  0
   -0.1260    7.5452    0.8981 H   0  0  0  0  0  0  0  0  0  0  0  0
    3.6463    5.1200   -1.1327 H   0  0  0  0  0  0  0  0  0  0  0  0
    5.6150    5.9864   -0.3667 H   0  0  0  0  0  0  0  0  0  0  0  0
    3.9840    8.4570    0.5070 H   0  0  0  0  0  0  0  0  0  0  0  0
    3.9501    6.8698    1.3628 H   0  0  0  0  0  0  0  0  0  0  0  0
    5.4774    7.7891    1.2708 H   0  0  0  0  0  0  0  0  0  0  0  0
    6.9972    9.2966   -1.8506 H   0  0  0  0  0  0  0  0  0  0  0  0
    7.4689    7.0349    0.1369 H   0  0  0  0  0  0  0  0  0  0  0  0
    7.3032    9.3002    1.1998 H   0  0  0  0  0  0  0  0  0  0  0  0
    8.6560    9.8734    0.1619 H   0  0  0  0  0  0  0  0  0  0  0  0
    8.9286    8.5524    1.3667 H   0  0  0  0  0  0  0  0  0  0  0  0
    9.5305    5.8169   -2.3420 H   0  0  0  0  0  0  0  0  0  0  0  0
   10.4188    4.4340   -0.7793 H   0  0  0  0  0  0  0  0  0  0  0  0
    8.8870    5.8533    1.4878 H   0  0  0  0  0  0  0  0  0  0  0  0
    8.1472    4.6331    0.3610 H   0  0  0  0  0  0  0  0  0  0  0  0
    9.5240    4.1738    1.4154 H   0  0  0  0  0  0  0  0  0  0  0  0
   13.3993    6.1424    0.2433 H   0  0  0  0  0  0  0  0  0  0  0  0
   11.9138    3.5141    0.6336 H   0  0  0  0  0  0  0  0  0  0  0  0
   14.1022    4.7602    2.4172 H   0  0  0  0  0  0  0  0  0  0  0  0
   13.2188    3.2148    2.7106 H   0  0  0  0  0  0  0  0  0  0  0  0
   12.3320    4.7665    2.7786 H   0  0  0  0  0  0  0  0  0  0  0  0
   14.6563    1.7178   -0.9820 H   0  0  0  0  0  0  0  0  0  0  0  0
   12.6372    1.4514    1.2740 H   0  0  0  0  0  0  0  0  0  0  0  0
   14.2617   -0.0680    2.4270 H   0  0  0  0  0  0  0  0  0  0  0  0
   15.5307    0.3757    1.2216 H   0  0  0  0  0  0  0  0  0  0  0  0
   14.8722    1.6194    2.3213 H   0  0  0  0  0  0  0  0  0  0  0  0
   14.9740   -0.8039   -0.6932 H   0  0  0  0  0  0  0  0  0  0  0  0
   12.6539   -2.7509   -0.4702 H   0  0  0  0  0  0  0  0  0  0  0  0
   14.1239   -4.1583    1.0209 H   0  0  0  0  0  0  0  0  0  0  0  0
   13.8966   -2.5209    1.7107 H   0  0  0  0  0  0  0  0  0  0  0  0
   15.4422   -2.9336    0.8724 H   0  0  0  0  0  0  0  0  0  0  0  0
   14.6034   -5.1202   -2.7279 H   0  0  0  0  0  0  0  0  0  0  0  0
   12.5587   -4.9309   -0.4898 H   0  0  0  0  0  0  0  0  0  0  0  0
   13.0585   -7.2897   -0.0011 H   0  0  0  0  0  0  0  0  0  0  0  0
   14.2487   -7.3460   -1.3633 H   0  0  0  0  0  0  0  0  0  0  0  0
   14.5666   -6.3261    0.0869 H   0  0  0  0  0  0  0  0  0  0  0  0
   10.3333   -7.2918   -2.5127 H   0  0  0  0  0  0  0  0  0  0  0  0
   10.6504   -5.6742    0.0614 H   0  0  0  0  0  0  0  0  0  0  0  0
    9.6074   -7.4914    1.2591 H   0  0  0  0  0  0  0  0  0  0  0  0
    9.1954   -8.3616   -0.2728 H   0  0  0  0  0  0  0  0  0  0  0  0
   10.9026   -8.2427    0.2765 H   0  0  0  0  0  0  0  0  0  0  0  0
    7.7539   -6.1837    0.9244 H   0  0  0  0  0  0  0  0  0  0  0  0
    6.6961   -7.2744   -1.5492 H   0  0  0  0  0  0  0  0  0  0  0  0
    4.5882   -5.9196   -1.7267 H   0  0  0  0  0  0  0  0  0  0  0  0
    6.0541   -4.9544   -2.1048 H   0  0  0  0  0  0  0  0  0  0  0  0
    5.2373   -4.7545   -0.5084 H   0  0  0  0  0  0  0  0  0  0  0  0
    5.6312   -6.8454    2.3388 H   0  0  0  0  0  0  0  0  0  0  0  0
    3.3133   -6.2784    0.4675 H   0  0  0  0  0  0  0  0  0  0  0  0
    1.6850   -7.9792    0.3407 H   0  0  0  0  0  0  0  0  0  0  0  0
    1.2334   -8.9573    1.7811 H   0  0  0  0  0  0  0  0  0  0  0  0
    4.1481   -4.3486    1.9181 H   0  0  0  0  0  0  0  0  0  0  0  0
    3.7554   -5.3277    3.3653 H   0  0  0  0  0  0  0  0  0  0  0  0
    2.6101   -3.3908    0.3375 H   0  0  0  0  0  0  0  0  0  0  0  0
    1.7010   -4.8700   -0.1297 H   0  0  0  0  0  0  0  0  0  0  0  0
  1  2  1  0
  2  3  2  0
  2  4  1  0
  4  5  1  0
  5  6  1  0
  6  7  1  0
  7  8  1  0
  8  9  1  0
  9 10  1  0
 10 11  2  0
 11 12  1  0
 12 13  2  0
 13 14  1  0
 13 15  1  0
 15 16  1  0
 16 17  1  0
 17 18  1  0
 18 19  1  0
 19 20  1  0
 20 21  2  0
 20 22  1  0
 22 23  1  0
 22 24  1  0
 24 25  1  0
 25 26  2  0
 25 27  1  0
 27 28  1  0
 27 29  1  0
 29 30  1  0
 30 31  2  0
 30 32  1  0
 32 33  1  0
 32 34  1  0
 34 35  1  0
 35 36  2  0
 35 37  1  0
 37 38  1  0
 37 39  1  0
 39 40  1  0
 40 41  2  0
 40 42  1  0
 42 43  1  0
 42 44  1  0
 44 45  1  0
 45 46  2  0
 45 47  1  0
 47 48  1  0
 47 49  1  0
 49 50  1  0
 50 51  2  0
 50 52  1  0
 52 53  1  0
 52 54  1  0
 54 55  1  0
 55 56  2  0
 55 57  1  0
 57 58  1  0
 57 59  1  0
 59 60  1  0
 60 61  2  0
 60 62  1  0
 62 63  1  0
 62 64  1  0
 64 65  1  0
 65 66  2  0
 18 67  1  0
 67 68  2  0
 67 69  1  0
 69 70  1  0
 70 71  1  0
 70 72  1  0
 72 73  2  0
 72 74  1  0
 74 75  1  0
 75 76  1  0
 75 77  1  0
 77 78  2  0
 77 79  1  0
 79 80  1  0
 80 81  1  0
 80 82  1  0
 82 83  2  0
 82 84  1  0
 84 85  1  0
 85 86  1  0
 85 87  1  0
 87 88  2  0
 87 89  1  0
 89 90  1  0
 90 91  1  0
 90 92  1  0
 92 93  2  0
 92 94  1  0
 94 95  1  0
 95 96  1  0
 95 97  1  0
 97 98  2  0
 97 99  1  0
 99100  1  0
100101  1  0
100102  1  0
102103  2  0
102104  1  0
104105  1  0
105106  1  0
105107  1  0
107108  2  0
107109  1  0
109110  1  0
110111  1  0
110112  1  0
112113  2  0
112114  1  0
114115  1  0
115116  1  0
115117  1  0
117118  2  0
117119  1  0
119120  1  0
120121  1  0
121122  1  0
121123  2  0
120124  1  0
124125  1  0
125126  1  0
 65  5  1  0
 14  9  2  0
126 11  1  0
  1127  1  0
  1128  1  0
  1129  1  0
  4130  1  0
  5131  1  1
  6132  1  0
  6133  1  0
  8134  1  0
  8135  1  0
 10136  1  0
 12137  1  0
 14138  1  0
 15139  1  0
 15140  1  0
 17141  1  0
 17142  1  0
 18143  1  6
 19144  1  0
 22145  1  6
 23146  1  0
 23147  1  0
 23148  1  0
 24149  1  0
 27150  1  1
 28151  1  0
 28152  1  0
 28153  1  0
 29154  1  0
 32155  1  1
 33156  1  0
 33157  1  0
 33158  1  0
 34159  1  0
 37160  1  1
 38161  1  0
 38162  1  0
 38163  1  0
 39164  1  0
 42165  1  1
 43166  1  0
 43167  1  0
 43168  1  0
 44169  1  0
 47170  1  1
 48171  1  0
 48172  1  0
 48173  1  0
 49174  1  0
 52175  1  1
 53176  1  0
 53177  1  0
 53178  1  0
 54179  1  0
 57180  1  1
 58181  1  0
 58182  1  0
 58183  1  0
 59184  1  0
 62185  1  6
 63186  1  0
 63187  1  0
 63188  1  0
 64189  1  0
 69190  1  0
 70191  1  1
 71192  1  0
 71193  1  0
 71194  1  0
 74195  1  0
 75196  1  1
 76197  1  0
 76198  1  0
 76199  1  0
 79200  1  0
 80201  1  1
 81202  1  0
 81203  1  0
 81204  1  0
 84205  1  0
 85206  1  6
 86207  1  0
 86208  1  0
 86209  1  0
 89210  1  0
 90211  1  1
 91212  1  0
 91213  1  0
 91214  1  0
 94215  1  0
 95216  1  1
 96217  1  0
 96218  1  0
 96219  1  0
 99220  1  0
100221  1  1
101222  1  0
101223  1  0
101224  1  0
104225  1  0
105226  1  1
106227  1  0
106228  1  0
106229  1  0
109230  1  0
110231  1  1
111232  1  0
111233  1  0
111234  1  0
114235  1  0
115236  1  6
116237  1  0
116238  1  0
116239  1  0
119240  1  0
120241  1  6
122242  1  0
122243  1  0
124244  1  0
124245  1  0
126246  1  0
126247  1  0
M  END
