
     RDKit          3D

247249  0  0  0  0  0  0  0  0999 V2000
    6.6127    3.8847   -4.5694 C   0  0  0  0  0  0  0  0  0  0  0  0
    6.3565    5.0755   -3.6917 C   0  0  0  0  0  0  0  0  0  0  0  0
    6.3288    6.2275   -4.1957 O   0  0  0  0  0  0  0  0  0  0  0  0
    6.0960    4.8831   -2.2957 N   0  0  0  0  0  0  0  0  0  0  0  0
    5.5786    5.9208   -1.3926 C   0  0  2  0  0  0  0  0  0  0  0  0
    4.2204    6.4643   -1.8831 C   0  0  0  0  0  0  0  0  0  0  0  0
    3.0315    5.1236   -2.2560 S   0  0  0  0  0  0  0  0  0  0  0  0
    2.6749    4.6504   -0.5279 C   0  0  0  0  0  0  0  0  0  0  0  0
    1.5176    3.6951   -0.5270 C   0  0  0  0  0  0  0  0  0  0  0  0
    0.2087    4.1813   -0.6476 C   0  0  0  0  0  0  0  0  0  0  0  0
   -0.8691    3.2911   -0.7930 C   0  0  0  0  0  0  0  0  0  0  0  0
   -0.6317    1.9074   -0.8097 C   0  0  0  0  0  0  0  0  0  0  0  0
    0.6739    1.4093   -0.6689 C   0  0  0  0  0  0  0  0  0  0  0  0
    1.7455    2.3092   -0.5198 C   0  0  0  0  0  0  0  0  0  0  0  0
    0.9416   -0.0680   -0.7552 C   0  0  0  0  0  0  0  0  0  0  0  0
    0.1286   -0.9694    0.6149 S   0  0  0  0  0  0  0  0  0  0  0  0
    1.0782   -2.5317    0.4297 C   0  0  0  0  0  0  0  0  0  0  0  0
    0.8241   -3.2594   -0.9216 C   0  0  1  0  0  0  0  0  0  0  0  0
    2.0790   -3.4150   -1.6769 N   0  0  0  0  0  0  0  0  0  0  0  0
    3.1562   -4.3399   -1.4064 C   0  0  0  0  0  0  0  0  0  0  0  0
    3.9746   -4.5826   -2.3338 O   0  0  0  0  0  0  0  0  0  0  0  0
    3.3824   -5.0100   -0.0643 C   0  0  1  0  0  0  0  0  0  0  0  0
    3.0327   -6.5064   -0.1385 C   0  0  0  0  0  0  0  0  0  0  0  0
    4.7813   -4.8542    0.3519 N   0  0  0  0  0  0  0  0  0  0  0  0
    5.2183   -5.2439    1.6616 C   0  0  0  0  0  0  0  0  0  0  0  0
    4.6217   -4.7901    2.6758 O   0  0  0  0  0  0  0  0  0  0  0  0
    6.3816   -6.1980    1.8407 C   0  0  1  0  0  0  0  0  0  0  0  0
    6.0664   -7.2269    2.9327 C   0  0  0  0  0  0  0  0  0  0  0  0
    6.6455   -6.9207    0.5882 N   0  0  0  0  0  0  0  0  0  0  0  0
    7.9421   -7.3046    0.1030 C   0  0  0  0  0  0  0  0  0  0  0  0
    8.0153   -8.2810   -0.6932 O   0  0  0  0  0  0  0  0  0  0  0  0
    9.2096   -6.5927    0.5122 C   0  0  1  0  0  0  0  0  0  0  0  0
    9.8258   -7.2541    1.7486 C   0  0  0  0  0  0  0  0  0  0  0  0
   10.1721   -6.6280   -0.5903 N   0  0  0  0  0  0  0  0  0  0  0  0
   11.1059   -5.5696   -0.8102 C   0  0  0  0  0  0  0  0  0  0  0  0
   12.2972   -5.7296   -0.4321 O   0  0  0  0  0  0  0  0  0  0  0  0
   10.7374   -4.3729   -1.6630 C   0  0  1  0  0  0  0  0  0  0  0  0
    9.3295   -3.8339   -1.4059 C   0  0  0  0  0  0  0  0  0  0  0  0
   11.7367   -3.2967   -1.5823 N   0  0  0  0  0  0  0  0  0  0  0  0
   12.3790   -2.8453   -0.3703 C   0  0  0  0  0  0  0  0  0  0  0  0
   13.6224   -2.6244   -0.4004 O   0  0  0  0  0  0  0  0  0  0  0  0
   11.6120   -2.6400    0.9207 C   0  0  1  0  0  0  0  0  0  0  0  0
   12.5146   -2.5401    2.1602 C   0  0  0  0  0  0  0  0  0  0  0  0
   10.6885   -1.4974    0.8336 N   0  0  0  0  0  0  0  0  0  0  0  0
   11.0334   -0.1011    0.9172 C   0  0  0  0  0  0  0  0  0  0  0  0
   10.1750    0.7044    1.3691 O   0  0  0  0  0  0  0  0  0  0  0  0
   12.3344    0.4569    0.3912 C   0  0  1  0  0  0  0  0  0  0  0  0
   12.1135    1.1610   -0.9604 C   0  0  0  0  0  0  0  0  0  0  0  0
   12.9599    1.3229    1.4001 N   0  0  0  0  0  0  0  0  0  0  0  0
   13.1060    2.7466    1.2932 C   0  0  0  0  0  0  0  0  0  0  0  0
   14.2704    3.2386    1.2707 O   0  0  0  0  0  0  0  0  0  0  0  0
   11.9119    3.6570    1.3964 C   0  0  1  0  0  0  0  0  0  0  0  0
   11.7311    4.0991    2.8445 C   0  0  0  0  0  0  0  0  0  0  0  0
   12.0929    4.8274    0.5380 N   0  0  0  0  0  0  0  0  0  0  0  0
   11.5583    4.8566   -0.7858 C   0  0  0  0  0  0  0  0  0  0  0  0
   12.3148    4.5715   -1.7524 O   0  0  0  0  0  0  0  0  0  0  0  0
   10.1346    5.3143   -1.0283 C   0  0  1  0  0  0  0  0  0  0  0  0
    9.8422    5.5246   -2.5186 C   0  0  0  0  0  0  0  0  0  0  0  0
    9.1890    4.3332   -0.4820 N   0  0  0  0  0  0  0  0  0  0  0  0
    8.0625    4.5924    0.3782 C   0  0  0  0  0  0  0  0  0  0  0  0
    7.3611    3.6134    0.7435 O   0  0  0  0  0  0  0  0  0  0  0  0
    7.6712    5.9704    0.8879 C   0  0  1  0  0  0  0  0  0  0  0  0
    8.6011    6.4253    2.0199 C   0  0  0  0  0  0  0  0  0  0  0  0
    7.6249    6.9647   -0.1934 N   0  0  0  0  0  0  0  0  0  0  0  0
    6.6024    7.0242   -1.2064 C   0  0  0  0  0  0  0  0  0  0  0  0
    6.5750    8.0209   -1.9726 O   0  0  0  0  0  0  0  0  0  0  0  0
    0.0804   -4.5701   -0.7927 C   0  0  0  0  0  0  0  0  0  0  0  0
    0.3506   -5.5284   -1.5605 O   0  0  0  0  0  0  0  0  0  0  0  0
   -1.0368   -4.7031    0.0969 N   0  0  0  0  0  0  0  0  0  0  0  0
   -2.2465   -3.9054   -0.1246 C   0  0  2  0  0  0  0  0  0  0  0  0
   -3.1127   -3.8349    1.1325 C   0  0  0  0  0  0  0  0  0  0  0  0
   -3.0119   -4.4004   -1.3286 C   0  0  0  0  0  0  0  0  0  0  0  0
   -3.4873   -3.5445   -2.1236 O   0  0  0  0  0  0  0  0  0  0  0  0
   -3.1453   -5.7968   -1.6648 N   0  0  0  0  0  0  0  0  0  0  0  0
   -3.4421   -6.8693   -0.7063 C   0  0  2  0  0  0  0  0  0  0  0  0
   -2.6637   -8.1268   -1.1074 C   0  0  0  0  0  0  0  0  0  0  0  0
   -4.9329   -7.1392   -0.6676 C   0  0  0  0  0  0  0  0  0  0  0  0
   -5.3509   -8.2891   -0.3718 O   0  0  0  0  0  0  0  0  0  0  0  0
   -5.8757   -6.0885   -0.9438 N   0  0  0  0  0  0  0  0  0  0  0  0
   -7.2623   -6.3690   -1.3485 C   0  0  2  0  0  0  0  0  0  0  0  0
   -7.2708   -7.1293   -2.6841 C   0  0  0  0  0  0  0  0  0  0  0  0
   -8.0348   -5.0783   -1.4609 C   0  0  0  0  0  0  0  0  0  0  0  0
   -7.7530   -4.2558   -2.3727 O   0  0  0  0  0  0  0  0  0  0  0  0
   -9.0303   -4.7306   -0.4899 N   0  0  0  0  0  0  0  0  0  0  0  0
  -10.4592   -5.0692   -0.6167 C   0  0  2  0  0  0  0  0  0  0  0  0
  -10.6753   -6.3946   -1.3610 C   0  0  0  0  0  0  0  0  0  0  0  0
  -11.2136   -3.9605   -1.3109 C   0  0  0  0  0  0  0  0  0  0  0  0
  -10.6207   -3.2726   -2.1909 O   0  0  0  0  0  0  0  0  0  0  0  0
  -12.6071   -3.6967   -1.0608 N   0  0  0  0  0  0  0  0  0  0  0  0
  -13.3087   -4.0261    0.1909 C   0  0  2  0  0  0  0  0  0  0  0  0
  -13.7362   -5.4992    0.2193 C   0  0  0  0  0  0  0  0  0  0  0  0
  -14.5456   -3.1589    0.3384 C   0  0  0  0  0  0  0  0  0  0  0  0
  -15.4710   -3.2659   -0.5106 O   0  0  0  0  0  0  0  0  0  0  0  0
  -14.7281   -2.2705    1.4518 N   0  0  0  0  0  0  0  0  0  0  0  0
  -13.6521   -1.4214    1.9745 C   0  0  2  0  0  0  0  0  0  0  0  0
  -13.0599   -2.0359    3.2486 C   0  0  0  0  0  0  0  0  0  0  0  0
  -14.1807   -0.0338    2.2754 C   0  0  0  0  0  0  0  0  0  0  0  0
  -15.0847    0.0843    3.1503 O   0  0  0  0  0  0  0  0  0  0  0  0
  -13.7447    1.1516    1.5845 N   0  0  0  0  0  0  0  0  0  0  0  0
  -12.7886    1.1907    0.4738 C   0  0  2  0  0  0  0  0  0  0  0  0
  -11.3424    0.9958    0.9656 C   0  0  0  0  0  0  0  0  0  0  0  0
  -12.9397    2.4794   -0.3060 C   0  0  0  0  0  0  0  0  0  0  0  0
  -13.6698    2.4713   -1.3393 O   0  0  0  0  0  0  0  0  0  0  0  0
  -12.2420    3.6950    0.0298 N   0  0  0  0  0  0  0  0  0  0  0  0
  -12.1110    4.2162    1.3934 C   0  0  2  0  0  0  0  0  0  0  0  0
  -13.0582    5.4132    1.5650 C   0  0  0  0  0  0  0  0  0  0  0  0
  -10.6648    4.5657    1.6514 C   0  0  0  0  0  0  0  0  0  0  0  0
   -9.8642    3.6381    1.9402 O   0  0  0  0  0  0  0  0  0  0  0  0
  -10.1743    5.9145    1.5659 N   0  0  0  0  0  0  0  0  0  0  0  0
   -9.0843    6.3254    0.6693 C   0  0  2  0  0  0  0  0  0  0  0  0
   -9.4619    6.0935   -0.7909 C   0  0  0  0  0  0  0  0  0  0  0  0
   -7.7773    5.6353    1.0111 C   0  0  0  0  0  0  0  0  0  0  0  0
   -7.6419    4.4124    0.7349 O   0  0  0  0  0  0  0  0  0  0  0  0
   -6.6794    6.3141    1.6376 N   0  0  0  0  0  0  0  0  0  0  0  0
   -6.3643    7.7418    1.4848 C   0  0  2  0  0  0  0  0  0  0  0  0
   -6.3172    8.1687    0.0054 C   0  0  0  0  0  0  0  0  0  0  0  0
   -5.0621    8.0749    2.1998 C   0  0  0  0  0  0  0  0  0  0  0  0
   -5.0740    8.9985    3.0580 O   0  0  0  0  0  0  0  0  0  0  0  0
   -3.8346    7.3521    1.9915 N   0  0  0  0  0  0  0  0  0  0  0  0
   -3.5334    6.4732    0.8504 C   0  0  1  0  0  0  0  0  0  0  0  0
   -2.7736    7.2656   -0.1888 C   0  0  0  0  0  0  0  0  0  0  0  0
   -3.2458    7.3347   -1.5346 N   0  0  0  0  0  0  0  0  0  0  0  0
   -1.7119    7.8611    0.1321 O   0  0  0  0  0  0  0  0  0  0  0  0
   -2.7176    5.2461    1.3280 C   0  0  0  0  0  0  0  0  0  0  0  0
   -3.2525    3.6831    0.5198 S   0  0  0  0  0  0  0  0  0  0  0  0
   -2.2584    3.8277   -1.0074 C   0  0  0  0  0  0  0  0  0  0  0  0
    7.5324    3.3738   -4.2245 H   0  0  0  0  0  0  0  0  0  0  0  0
    5.7539    3.1868   -4.5120 H   0  0  0  0  0  0  0  0  0  0  0  0
    6.7519    4.2122   -5.6242 H   0  0  0  0  0  0  0  0  0  0  0  0
    6.1793    3.9098   -1.9113 H   0  0  0  0  0  0  0  0  0  0  0  0
    5.3897    5.4541   -0.4090 H   0  0  0  0  0  0  0  0  0  0  0  0
    4.3508    7.0409   -2.8189 H   0  0  0  0  0  0  0  0  0  0  0  0
    3.7899    7.1519   -1.1244 H   0  0  0  0  0  0  0  0  0  0  0  0
    2.4384    5.5468    0.0935 H   0  0  0  0  0  0  0  0  0  0  0  0
    3.5682    4.1512   -0.0919 H   0  0  0  0  0  0  0  0  0  0  0  0
    0.0404    5.2516   -0.6655 H   0  0  0  0  0  0  0  0  0  0  0  0
   -1.4614    1.2262   -0.9443 H   0  0  0  0  0  0  0  0  0  0  0  0
    2.7579    1.9313   -0.4478 H   0  0  0  0  0  0  0  0  0  0  0  0
    0.5474   -0.4353   -1.7208 H   0  0  0  0  0  0  0  0  0  0  0  0
    2.0324   -0.2685   -0.7251 H   0  0  0  0  0  0  0  0  0  0  0  0
    0.8031   -3.1839    1.2856 H   0  0  0  0  0  0  0  0  0  0  0  0
    2.1578   -2.2859    0.5535 H   0  0  0  0  0  0  0  0  0  0  0  0
    0.1444   -2.6247   -1.5338 H   0  0  0  0  0  0  0  0  0  0  0  0
    2.1352   -2.8915   -2.5822 H   0  0  0  0  0  0  0  0  0  0  0  0
    2.7376   -4.5462    0.7078 H   0  0  0  0  0  0  0  0  0  0  0  0
    1.9415   -6.6596   -0.1482 H   0  0  0  0  0  0  0  0  0  0  0  0
    3.4054   -7.0330    0.7600 H   0  0  0  0  0  0  0  0  0  0  0  0
    3.4788   -6.9688   -1.0428 H   0  0  0  0  0  0  0  0  0  0  0  0
    5.5225   -4.6058   -0.3496 H   0  0  0  0  0  0  0  0  0  0  0  0
    7.2671   -5.6071    2.1618 H   0  0  0  0  0  0  0  0  0  0  0  0
    5.1238   -7.7619    2.6909 H   0  0  0  0  0  0  0  0  0  0  0  0
    6.8824   -7.9715    3.0202 H   0  0  0  0  0  0  0  0  0  0  0  0
    5.9503   -6.7255    3.9168 H   0  0  0  0  0  0  0  0  0  0  0  0
    5.8212   -7.3716    0.1208 H   0  0  0  0  0  0  0  0  0  0  0  0
    8.9732   -5.5414    0.7533 H   0  0  0  0  0  0  0  0  0  0  0  0
    9.1082   -7.2487    2.5937 H   0  0  0  0  0  0  0  0  0  0  0  0
   10.7248   -6.6842    2.0559 H   0  0  0  0  0  0  0  0  0  0  0  0
   10.1211   -8.2972    1.5204 H   0  0  0  0  0  0  0  0  0  0  0  0
   10.4589   -7.5656   -0.9481 H   0  0  0  0  0  0  0  0  0  0  0  0
   10.7386   -4.7485   -2.7095 H   0  0  0  0  0  0  0  0  0  0  0  0
    9.1817   -3.5498   -0.3526 H   0  0  0  0  0  0  0  0  0  0  0  0
    9.1544   -2.9389   -2.0381 H   0  0  0  0  0  0  0  0  0  0  0  0
    8.5720   -4.5961   -1.6730 H   0  0  0  0  0  0  0  0  0  0  0  0
   12.2034   -3.0263   -2.4766 H   0  0  0  0  0  0  0  0  0  0  0  0
   11.0067   -3.5541    1.0845 H   0  0  0  0  0  0  0  0  0  0  0  0
   13.0991   -3.4802    2.2736 H   0  0  0  0  0  0  0  0  0  0  0  0
   13.2228   -1.6907    2.0831 H   0  0  0  0  0  0  0  0  0  0  0  0
   11.8878   -2.4014    3.0671 H   0  0  0  0  0  0  0  0  0  0  0  0
    9.6721   -1.7175    0.9467 H   0  0  0  0  0  0  0  0  0  0  0  0
   13.0479   -0.3546    0.1905 H   0  0  0  0  0  0  0  0  0  0  0  0
   11.8298    0.4051   -1.7290 H   0  0  0  0  0  0  0  0  0  0  0  0
   13.0562    1.6539   -1.2945 H   0  0  0  0  0  0  0  0  0  0  0  0
   11.3010    1.9171   -0.8983 H   0  0  0  0  0  0  0  0  0  0  0  0
   13.5781    0.8450    2.0989 H   0  0  0  0  0  0  0  0  0  0  0  0
   10.9964    3.1075    1.0989 H   0  0  0  0  0  0  0  0  0  0  0  0
   11.5158    3.2226    3.4921 H   0  0  0  0  0  0  0  0  0  0  0  0
   10.8835    4.8045    2.9233 H   0  0  0  0  0  0  0  0  0  0  0  0
   12.6438    4.6081    3.2204 H   0  0  0  0  0  0  0  0  0  0  0  0
   12.8708    5.4867    0.7657 H   0  0  0  0  0  0  0  0  0  0  0  0
   10.0299    6.2915   -0.5208 H   0  0  0  0  0  0  0  0  0  0  0  0
    8.8064    5.8953   -2.6421 H   0  0  0  0  0  0  0  0  0  0  0  0
    9.9431    4.5710   -3.0756 H   0  0  0  0  0  0  0  0  0  0  0  0
   10.5330    6.2829   -2.9439 H   0  0  0  0  0  0  0  0  0  0  0  0
    9.2928    3.3453   -0.8225 H   0  0  0  0  0  0  0  0  0  0  0  0
    6.6625    5.9085    1.3513 H   0  0  0  0  0  0  0  0  0  0  0  0
    9.6515    6.5511    1.6697 H   0  0  0  0  0  0  0  0  0  0  0  0
    8.2428    7.3937    2.4283 H   0  0  0  0  0  0  0  0  0  0  0  0
    8.5833    5.6755    2.8508 H   0  0  0  0  0  0  0  0  0  0  0  0
    8.2903    7.7713   -0.1571 H   0  0  0  0  0  0  0  0  0  0  0  0
   -1.1023   -5.5894    0.6449 H   0  0  0  0  0  0  0  0  0  0  0  0
   -1.9374   -2.8545   -0.3320 H   0  0  0  0  0  0  0  0  0  0  0  0
   -3.5761   -4.8069    1.3949 H   0  0  0  0  0  0  0  0  0  0  0  0
   -2.4997   -3.5016    1.9970 H   0  0  0  0  0  0  0  0  0  0  0  0
   -3.9335   -3.0996    0.9799 H   0  0  0  0  0  0  0  0  0  0  0  0
   -3.3399   -6.0140   -2.6686 H   0  0  0  0  0  0  0  0  0  0  0  0
   -3.1160   -6.6019    0.3134 H   0  0  0  0  0  0  0  0  0  0  0  0
   -3.0313   -8.5205   -2.0817 H   0  0  0  0  0  0  0  0  0  0  0  0
   -1.5816   -7.8927   -1.2074 H   0  0  0  0  0  0  0  0  0  0  0  0
   -2.7682   -8.9170   -0.3345 H   0  0  0  0  0  0  0  0  0  0  0  0
   -5.5603   -5.0941   -0.8742 H   0  0  0  0  0  0  0  0  0  0  0  0
   -7.7415   -6.9985   -0.5719 H   0  0  0  0  0  0  0  0  0  0  0  0
   -8.3066   -7.2682   -3.0559 H   0  0  0  0  0  0  0  0  0  0  0  0
   -6.6875   -6.5732   -3.4510 H   0  0  0  0  0  0  0  0  0  0  0  0
   -6.8180   -8.1366   -2.5561 H   0  0  0  0  0  0  0  0  0  0  0  0
   -8.7949   -3.9239    0.1276 H   0  0  0  0  0  0  0  0  0  0  0  0
  -10.8376   -5.1795    0.4155 H   0  0  0  0  0  0  0  0  0  0  0  0
  -10.1929   -7.2342   -0.8131 H   0  0  0  0  0  0  0  0  0  0  0  0
  -10.2650   -6.3294   -2.3893 H   0  0  0  0  0  0  0  0  0  0  0  0
  -11.7543   -6.6226   -1.4699 H   0  0  0  0  0  0  0  0  0  0  0  0
  -13.0820   -3.0530   -1.7359 H   0  0  0  0  0  0  0  0  0  0  0  0
  -12.6236   -3.8352    1.0397 H   0  0  0  0  0  0  0  0  0  0  0  0
  -14.2000   -5.7847   -0.7489 H   0  0  0  0  0  0  0  0  0  0  0  0
  -14.4666   -5.6726    1.0362 H   0  0  0  0  0  0  0  0  0  0  0  0
  -12.8820   -6.1624    0.4297 H   0  0  0  0  0  0  0  0  0  0  0  0
  -15.7186   -2.0411    1.7146 H   0  0  0  0  0  0  0  0  0  0  0  0
  -12.8492   -1.3802    1.2185 H   0  0  0  0  0  0  0  0  0  0  0  0
  -12.0813   -1.5535    3.4808 H   0  0  0  0  0  0  0  0  0  0  0  0
  -12.8781   -3.1225    3.1297 H   0  0  0  0  0  0  0  0  0  0  0  0
  -13.7399   -1.9041    4.1200 H   0  0  0  0  0  0  0  0  0  0  0  0
  -14.2420    2.0403    1.8367 H   0  0  0  0  0  0  0  0  0  0  0  0
  -13.0292    0.3633   -0.2326 H   0  0  0  0  0  0  0  0  0  0  0  0
  -11.0857   -0.0797    1.0557 H   0  0  0  0  0  0  0  0  0  0  0  0
  -11.2008    1.4574    1.9665 H   0  0  0  0  0  0  0  0  0  0  0  0
  -10.6187    1.4395    0.2462 H   0  0  0  0  0  0  0  0  0  0  0  0
  -12.0318    4.3544   -0.7567 H   0  0  0  0  0  0  0  0  0  0  0  0
  -12.4120    3.4577    2.1430 H   0  0  0  0  0  0  0  0  0  0  0  0
  -12.9589    5.8390    2.5879 H   0  0  0  0  0  0  0  0  0  0  0  0
  -14.1104    5.0866    1.4156 H   0  0  0  0  0  0  0  0  0  0  0  0
  -12.8340    6.2019    0.8137 H   0  0  0  0  0  0  0  0  0  0  0  0
  -10.7448    6.6725    1.9985 H   0  0  0  0  0  0  0  0  0  0  0  0
   -8.9614    7.4174    0.7996 H   0  0  0  0  0  0  0  0  0  0  0  0
  -10.4164    6.6205   -1.0186 H   0  0  0  0  0  0  0  0  0  0  0  0
   -9.6064    5.0082   -0.9971 H   0  0  0  0  0  0  0  0  0  0  0  0
   -8.6643    6.4853   -1.4561 H   0  0  0  0  0  0  0  0  0  0  0  0
   -6.0123    5.7068    2.1608 H   0  0  0  0  0  0  0  0  0  0  0  0
   -7.1698    8.3273    1.9764 H   0  0  0  0  0  0  0  0  0  0  0  0
   -6.0776    7.3101   -0.6562 H   0  0  0  0  0  0  0  0  0  0  0  0
   -7.3047    8.5627   -0.3149 H   0  0  0  0  0  0  0  0  0  0  0  0
   -5.5780    8.9769   -0.1613 H   0  0  0  0  0  0  0  0  0  0  0  0
   -3.0367    7.5925    2.6226 H   0  0  0  0  0  0  0  0  0  0  0  0
   -4.4736    6.0972    0.4063 H   0  0  0  0  0  0  0  0  0  0  0  0
   -4.0879    6.7923   -1.8508 H   0  0  0  0  0  0  0  0  0  0  0  0
   -2.7385    7.9124   -2.2380 H   0  0  0  0  0  0  0  0  0  0  0  0
   -1.6227    5.4004    1.2215 H   0  0  0  0  0  0  0  0  0  0  0  0
   -2.8965    5.0926    2.4186 H   0  0  0  0  0  0  0  0  0  0  0  0
   -2.2341    4.8772   -1.3588 H   0  0  0  0  0  0  0  0  0  0  0  0
   -2.7622    3.2375   -1.8080 H   0  0  0  0  0  0  0  0  0  0  0  0
  1  2  1  0
  2  3  2  0
  2  4  1  0
  4  5  1  0
  5  6  1  0
  6  7  1  0
  7  8  1  0
  8  9  1  0
  9 10  1  0
 10 11  2  0
 11 12  1  0
 12 13  2  0
 13 14  1  0
 13 15  1  0
 15 16  1  0
 16 17  1  0
 17 18  1  0
 18 19  1  0
 19 20  1  0
 20 21  2  0
 20 22  1  0
 22 23  1  0
 22 24  1  0
 24 25  1  0
 25 26  2  0
 25 27  1  0
 27 28  1  0
 27 29  1  0
 29 30  1  0
 30 31  2  0
 30 32  1  0
 32 33  1  0
 32 34  1  0
 34 35  1  0
 35 36  2  0
 35 37  1  0
 37 38  1  0
 37 39  1  0
 39 40  1  0
 40 41  2  0
 40 42  1  0
 42 43  1  0
 42 44  1  0
 44 45  1  0
 45 46  2  0
 45 47  1  0
 47 48  1  0
 47 49  1  0
 49 50  1  0
 50 51  2  0
 50 52  1  0
 52 53  1  0
 52 54  1  0
 54 55  1  0
 55 56  2  0
 55 57  1  0
 57 58  1  0
 57 59  1  0
 59 60  1  0
 60 61  2  0
 60 62  1  0
 62 63  1  0
 62 64  1  0
 64 65  1  0
 65 66  2  0
 18 67  1  0
 67 68  2  0
 67 69  1  0
 69 70  1  0
 70 71  1  0
 70 72  1  0
 72 73  2  0
 72 74  1  0
 74 75  1  0
 75 76  1  0
 75 77  1  0
 77 78  2  0
 77 79  1  0
 79 80  1  0
 80 81  1  0
 80 82  1  0
 82 83  2  0
 82 84  1  0
 84 85  1  0
 85 86  1  0
 85 87  1  0
 87 88  2  0
 87 89  1  0
 89 90  1  0
 90 91  1  0
 90 92  1  0
 92 93  2  0
 92 94  1  0
 94 95  1  0
 95 96  1  0
 95 97  1  0
 97 98  2  0
 97 99  1  0
 99100  1  0
100101  1  0
100102  1  0
102103  2  0
102104  1  0
104105  1  0
105106  1  0
105107  1  0
107108  2  0
107109  1  0
109110  1  0
110111  1  0
110112  1  0
112113  2  0
112114  1  0
114115  1  0
115116  1  0
115117  1  0
117118  2  0
117119  1  0
119120  1  0
120121  1  0
121122  1  0
121123  2  0
120124  1  0
124125  1  0
125126  1  0
 65  5  1  0
 14  9  2  0
126 11  1  0
  1127  1  0
  1128  1  0
  1129  1  0
  4130  1  0
  5131  1  1
  6132  1  0
  6133  1  0
  8134  1  0
  8135  1  0
 10136  1  0
 12137  1  0
 14138  1  0
 15139  1  0
 15140  1  0
 17141  1  0
 17142  1  0
 18143  1  6
 19144  1  0
 22145  1  1
 23146  1  0
 23147  1  0
 23148  1  0
 24149  1  0
 27150  1  1
 28151  1  0
 28152  1  0
 28153  1  0
 29154  1  0
 32155  1  1
 33156  1  0
 33157  1  0
 33158  1  0
 34159  1  0
 37160  1  6
 38161  1  0
 38162  1  0
 38163  1  0
 39164  1  0
 42165  1  1
 43166  1  0
 43167  1  0
 43168  1  0
 44169  1  0
 47170  1  6
 48171  1  0
 48172  1  0
 48173  1  0
 49174  1  0
 52175  1  6
 53176  1  0
 53177  1  0
 53178  1  0
 54179  1  0
 57180  1  1
 58181  1  0
 58182  1  0
 58183  1  0
 59184  1  0
 62185  1  1
 63186  1  0
 63187  1  0
 63188  1  0
 64189  1  0
 69190  1  0
 70191  1  6
 71192  1  0
 71193  1  0
 71194  1  0
 74195  1  0
 75196  1  1
 76197  1  0
 76198  1  0
 76199  1  0
 79200  1  0
 80201  1  1
 81202  1  0
 81203  1  0
 81204  1  0
 84205  1  0
 85206  1  1
 86207  1  0
 86208  1  0
 86209  1  0
 89210  1  0
 90211  1  1
 91212  1  0
 91213  1  0
 91214  1  0
 94215  1  0
 95216  1  6
 96217  1  0
 96218  1  0
 96219  1  0
 99220  1  0
100221  1  6
101222  1  0
101223  1  0
101224  1  0
104225  1  0
105226  1  1
106227  1  0
106228  1  0
106229  1  0
109230  1  0
110231  1  6
111232  1  0
111233  1  0
111234  1  0
114235  1  0
115236  1  1
116237  1  0
116238  1  0
116239  1  0
119240  1  0
120241  1  6
122242  1  0
122243  1  0
124244  1  0
124245  1  0
126246  1  0
126247  1  0
M  END
