
     RDKit          3D

177179  0  0  0  0  0  0  0  0999 V2000
    0.4525   -8.4326   -0.5631 C   0  0  0  0  0  0  0  0  0  0  0  0
    0.2124   -7.3403   -1.5623 C   0  0  0  0  0  0  0  0  0  0  0  0
   -0.2365   -7.6465   -2.7007 O   0  0  0  0  0  0  0  0  0  0  0  0
    0.4968   -5.9597   -1.2760 N   0  0  0  0  0  0  0  0  0  0  0  0
    0.8583   -5.4366    0.0462 C   0  0  2  0  0  0  0  0  0  0  0  0
   -0.3287   -4.6818    0.6617 C   0  0  0  0  0  0  0  0  0  0  0  0
   -1.6151   -5.8545    1.2301 S   0  0  0  0  0  0  0  0  0  0  0  0
   -2.7803   -5.5819   -0.1516 C   0  0  0  0  0  0  0  0  0  0  0  0
   -3.6317   -4.3736    0.1239 C   0  0  0  0  0  0  0  0  0  0  0  0
   -4.5829   -4.4039    1.1510 C   0  0  0  0  0  0  0  0  0  0  0  0
   -5.3458   -3.2672    1.4574 C   0  0  0  0  0  0  0  0  0  0  0  0
   -5.1331   -2.0846    0.7282 C   0  0  0  0  0  0  0  0  0  0  0  0
   -4.2181   -2.0561   -0.3364 C   0  0  0  0  0  0  0  0  0  0  0  0
   -3.4551   -3.1963   -0.6169 C   0  0  0  0  0  0  0  0  0  0  0  0
   -4.0120   -0.8001   -1.1255 C   0  0  0  0  0  0  0  0  0  0  0  0
   -2.6638    0.1703   -0.3677 S   0  0  0  0  0  0  0  0  0  0  0  0
   -3.5870    1.7380   -0.1645 C   0  0  0  0  0  0  0  0  0  0  0  0
   -3.5896    2.5586   -1.4747 C   0  0  2  0  0  0  0  0  0  0  0  0
   -2.2232    2.7997   -1.9913 N   0  0  0  0  0  0  0  0  0  0  0  0
   -1.0984    3.3998   -1.3169 C   0  0  0  0  0  0  0  0  0  0  0  0
    0.0324    3.3240   -1.8723 O   0  0  0  0  0  0  0  0  0  0  0  0
   -1.1877    4.1219    0.0116 C   0  0  1  0  0  0  0  0  0  0  0  0
   -0.4261    3.3232    1.0793 C   0  0  0  0  0  0  0  0  0  0  0  0
   -0.6099    5.4687   -0.0841 N   0  0  0  0  0  0  0  0  0  0  0  0
   -0.7155    6.4023    0.9987 C   0  0  0  0  0  0  0  0  0  0  0  0
   -1.6872    6.3182    1.8023 O   0  0  0  0  0  0  0  0  0  0  0  0
    0.3207    7.4786    1.2277 C   0  0  1  0  0  0  0  0  0  0  0  0
    1.0417    7.2648    2.5661 C   0  0  0  0  0  0  0  0  0  0  0  0
    1.2742    7.5910    0.1235 N   0  0  0  0  0  0  0  0  0  0  0  0
    2.4505    6.7743    0.0142 C   0  0  0  0  0  0  0  0  0  0  0  0
    2.3774    5.5397    0.2630 O   0  0  0  0  0  0  0  0  0  0  0  0
    3.7919    7.3596   -0.3458 C   0  0  1  0  0  0  0  0  0  0  0  0
    3.7201    8.8366   -0.7572 C   0  0  0  0  0  0  0  0  0  0  0  0
    4.6938    7.2190    0.7991 N   0  0  0  0  0  0  0  0  0  0  0  0
    5.6494    6.1533    0.9933 C   0  0  0  0  0  0  0  0  0  0  0  0
    6.1767    6.0295    2.1315 O   0  0  0  0  0  0  0  0  0  0  0  0
    6.0618    5.2203   -0.1299 C   0  0  1  0  0  0  0  0  0  0  0  0
    6.8949    5.9378   -1.2024 C   0  0  0  0  0  0  0  0  0  0  0  0
    6.7967    4.0468    0.3781 N   0  0  0  0  0  0  0  0  0  0  0  0
    8.1707    4.1010    0.8061 C   0  0  0  0  0  0  0  0  0  0  0  0
    8.6135    5.1216    1.4073 O   0  0  0  0  0  0  0  0  0  0  0  0
    9.1000    2.9459    0.5334 C   0  0  1  0  0  0  0  0  0  0  0  0
   10.4452    3.4723    0.0123 C   0  0  0  0  0  0  0  0  0  0  0  0
    9.2945    2.1429    1.7514 N   0  0  0  0  0  0  0  0  0  0  0  0
    9.8955    0.8325    1.8088 C   0  0  0  0  0  0  0  0  0  0  0  0
   10.0988    0.3083    2.9375 O   0  0  0  0  0  0  0  0  0  0  0  0
   10.3077    0.0556    0.5731 C   0  0  1  0  0  0  0  0  0  0  0  0
   11.8362   -0.0531    0.4937 C   0  0  0  0  0  0  0  0  0  0  0  0
    9.7187   -1.2867    0.6089 N   0  0  0  0  0  0  0  0  0  0  0  0
    8.5305   -1.5978   -0.1328 C   0  0  0  0  0  0  0  0  0  0  0  0
    7.6321   -0.7278   -0.2574 O   0  0  0  0  0  0  0  0  0  0  0  0
    8.3829   -2.9322   -0.8311 C   0  0  1  0  0  0  0  0  0  0  0  0
    9.5355   -3.1088   -1.8264 C   0  0  0  0  0  0  0  0  0  0  0  0
    8.3670   -4.0391    0.1350 N   0  0  0  0  0  0  0  0  0  0  0  0
    7.9281   -5.3759   -0.1731 C   0  0  0  0  0  0  0  0  0  0  0  0
    8.1661   -6.2944    0.6572 O   0  0  0  0  0  0  0  0  0  0  0  0
    7.0797   -5.6825   -1.3948 C   0  0  1  0  0  0  0  0  0  0  0  0
    7.2779   -7.1310   -1.8761 C   0  0  0  0  0  0  0  0  0  0  0  0
    5.6800   -5.3540   -1.0956 N   0  0  0  0  0  0  0  0  0  0  0  0
    4.6898   -6.3048   -0.6702 C   0  0  0  0  0  0  0  0  0  0  0  0
    4.4366   -7.3135   -1.3825 O   0  0  0  0  0  0  0  0  0  0  0  0
    3.9273   -6.0948    0.6081 C   0  0  1  0  0  0  0  0  0  0  0  0
    4.8650   -6.2145    1.8110 C   0  0  0  0  0  0  0  0  0  0  0  0
    3.2862   -4.7771    0.5979 N   0  0  0  0  0  0  0  0  0  0  0  0
    2.0477   -4.5163   -0.0843 C   0  0  0  0  0  0  0  0  0  0  0  0
    1.9429   -3.4641   -0.7698 O   0  0  0  0  0  0  0  0  0  0  0  0
   -4.3844    3.8476   -1.3599 C   0  0  0  0  0  0  0  0  0  0  0  0
   -3.7973    4.9516   -1.5185 O   0  0  0  0  0  0  0  0  0  0  0  0
   -5.7958    3.8552   -1.0763 N   0  0  0  0  0  0  0  0  0  0  0  0
   -6.7270    2.7765   -1.4318 C   0  0  2  0  0  0  0  0  0  0  0  0
   -7.3977    3.0853   -2.7700 C   0  0  0  0  0  0  0  0  0  0  0  0
   -7.7004    2.5580   -0.2962 C   0  0  0  0  0  0  0  0  0  0  0  0
   -7.4165    1.6789    0.5611 O   0  0  0  0  0  0  0  0  0  0  0  0
   -8.8070    3.4371   -0.0380 N   0  0  0  0  0  0  0  0  0  0  0  0
  -10.0745    3.3637   -0.7761 C   0  0  2  0  0  0  0  0  0  0  0  0
  -10.9096    4.6191   -0.4872 C   0  0  0  0  0  0  0  0  0  0  0  0
  -10.8111    2.0874   -0.4211 C   0  0  0  0  0  0  0  0  0  0  0  0
  -11.8821    2.1231    0.2454 O   0  0  0  0  0  0  0  0  0  0  0  0
  -10.3052    0.8309   -0.8943 N   0  0  0  0  0  0  0  0  0  0  0  0
  -10.3133   -0.4339   -0.1389 C   0  0  2  0  0  0  0  0  0  0  0  0
  -10.2467   -0.1941    1.3790 C   0  0  0  0  0  0  0  0  0  0  0  0
   -9.1392   -1.2827   -0.5800 C   0  0  0  0  0  0  0  0  0  0  0  0
   -8.0295   -0.7310   -0.8140 O   0  0  0  0  0  0  0  0  0  0  0  0
   -9.2640   -2.6929   -0.8058 N   0  0  0  0  0  0  0  0  0  0  0  0
   -9.6815   -3.6304    0.2479 C   0  0  1  0  0  0  0  0  0  0  0  0
  -10.3188   -4.8603   -0.3606 C   0  0  0  0  0  0  0  0  0  0  0  0
  -10.9468   -5.8256    0.4838 N   0  0  0  0  0  0  0  0  0  0  0  0
  -10.3280   -5.0328   -1.6111 O   0  0  0  0  0  0  0  0  0  0  0  0
   -8.4626   -4.0270    1.1057 C   0  0  0  0  0  0  0  0  0  0  0  0
   -7.9369   -2.6248    2.1625 S   0  0  0  0  0  0  0  0  0  0  0  0
   -6.3006   -3.2899    2.6203 C   0  0  0  0  0  0  0  0  0  0  0  0
   -0.1552   -8.2595    0.3484 H   0  0  0  0  0  0  0  0  0  0  0  0
    0.1558   -9.4158   -0.9893 H   0  0  0  0  0  0  0  0  0  0  0  0
    1.5247   -8.4702   -0.2886 H   0  0  0  0  0  0  0  0  0  0  0  0
    0.3346   -5.2697   -2.0450 H   0  0  0  0  0  0  0  0  0  0  0  0
    1.1082   -6.2557    0.7443 H   0  0  0  0  0  0  0  0  0  0  0  0
   -0.7319   -3.9385   -0.0556 H   0  0  0  0  0  0  0  0  0  0  0  0
    0.0237   -4.1238    1.5518 H   0  0  0  0  0  0  0  0  0  0  0  0
   -2.2319   -5.4702   -1.1112 H   0  0  0  0  0  0  0  0  0  0  0  0
   -3.4312   -6.4737   -0.2526 H   0  0  0  0  0  0  0  0  0  0  0  0
   -4.7213   -5.3171    1.7223 H   0  0  0  0  0  0  0  0  0  0  0  0
   -5.7025   -1.1918    0.9650 H   0  0  0  0  0  0  0  0  0  0  0  0
   -2.7130   -3.1614   -1.4076 H   0  0  0  0  0  0  0  0  0  0  0  0
   -4.9592   -0.2313   -1.2107 H   0  0  0  0  0  0  0  0  0  0  0  0
   -3.7055   -1.0605   -2.1606 H   0  0  0  0  0  0  0  0  0  0  0  0
   -3.1224    2.2972    0.6660 H   0  0  0  0  0  0  0  0  0  0  0  0
   -4.6198    1.5243    0.1756 H   0  0  0  0  0  0  0  0  0  0  0  0
   -4.1021    1.9396   -2.2452 H   0  0  0  0  0  0  0  0  0  0  0  0
   -2.0337    2.4234   -2.9486 H   0  0  0  0  0  0  0  0  0  0  0  0
   -2.2382    4.2311    0.3286 H   0  0  0  0  0  0  0  0  0  0  0  0
   -0.5481    3.7959    2.0795 H   0  0  0  0  0  0  0  0  0  0  0  0
    0.6582    3.2880    0.8372 H   0  0  0  0  0  0  0  0  0  0  0  0
   -0.8045    2.2790    1.1477 H   0  0  0  0  0  0  0  0  0  0  0  0
   -0.3072    5.8368   -1.0209 H   0  0  0  0  0  0  0  0  0  0  0  0
   -0.2194    8.4522    1.3018 H   0  0  0  0  0  0  0  0  0  0  0  0
    0.3401    7.4294    3.4169 H   0  0  0  0  0  0  0  0  0  0  0  0
    1.4413    6.2264    2.6421 H   0  0  0  0  0  0  0  0  0  0  0  0
    1.8890    7.9761    2.6677 H   0  0  0  0  0  0  0  0  0  0  0  0
    1.0498    8.2608   -0.6550 H   0  0  0  0  0  0  0  0  0  0  0  0
    4.1695    6.8040   -1.2274 H   0  0  0  0  0  0  0  0  0  0  0  0
    3.2749    9.4524    0.0585 H   0  0  0  0  0  0  0  0  0  0  0  0
    3.1114    8.9539   -1.6775 H   0  0  0  0  0  0  0  0  0  0  0  0
    4.7416    9.2220   -0.9691 H   0  0  0  0  0  0  0  0  0  0  0  0
    4.5041    7.8287    1.6272 H   0  0  0  0  0  0  0  0  0  0  0  0
    5.1313    4.8438   -0.6013 H   0  0  0  0  0  0  0  0  0  0  0  0
    7.8389    6.3369   -0.7807 H   0  0  0  0  0  0  0  0  0  0  0  0
    7.1441    5.2203   -2.0130 H   0  0  0  0  0  0  0  0  0  0  0  0
    6.3459    6.7885   -1.6559 H   0  0  0  0  0  0  0  0  0  0  0  0
    6.3972    3.1060    0.1564 H   0  0  0  0  0  0  0  0  0  0  0  0
    8.6306    2.3184   -0.2523 H   0  0  0  0  0  0  0  0  0  0  0  0
   11.0320    3.9296    0.8391 H   0  0  0  0  0  0  0  0  0  0  0  0
   10.2862    4.2381   -0.7740 H   0  0  0  0  0  0  0  0  0  0  0  0
   11.0413    2.6626   -0.4459 H   0  0  0  0  0  0  0  0  0  0  0  0
    8.9920    2.5543    2.6641 H   0  0  0  0  0  0  0  0  0  0  0  0
    9.9707    0.5622   -0.3494 H   0  0  0  0  0  0  0  0  0  0  0  0
   12.1257   -0.6017   -0.4332 H   0  0  0  0  0  0  0  0  0  0  0  0
   12.3063    0.9516    0.4565 H   0  0  0  0  0  0  0  0  0  0  0  0
   12.2406   -0.5977    1.3686 H   0  0  0  0  0  0  0  0  0  0  0  0
   10.2930   -2.0800    0.9846 H   0  0  0  0  0  0  0  0  0  0  0  0
    7.4226   -2.9144   -1.3853 H   0  0  0  0  0  0  0  0  0  0  0  0
    9.4368   -4.0606   -2.3905 H   0  0  0  0  0  0  0  0  0  0  0  0
    9.5362   -2.2726   -2.5601 H   0  0  0  0  0  0  0  0  0  0  0  0
   10.5116   -3.1226   -1.2974 H   0  0  0  0  0  0  0  0  0  0  0  0
    8.7842   -3.8904    1.0834 H   0  0  0  0  0  0  0  0  0  0  0  0
    7.4025   -5.0439   -2.2378 H   0  0  0  0  0  0  0  0  0  0  0  0
    8.3468   -7.2948   -2.1309 H   0  0  0  0  0  0  0  0  0  0  0  0
    6.6768   -7.3142   -2.7907 H   0  0  0  0  0  0  0  0  0  0  0  0
    6.9910   -7.8617   -1.0885 H   0  0  0  0  0  0  0  0  0  0  0  0
    5.4765   -4.3414   -0.9284 H   0  0  0  0  0  0  0  0  0  0  0  0
    3.1707   -6.8973    0.7106 H   0  0  0  0  0  0  0  0  0  0  0  0
    4.2811   -6.1289    2.7513 H   0  0  0  0  0  0  0  0  0  0  0  0
    5.3765   -7.2014    1.8024 H   0  0  0  0  0  0  0  0  0  0  0  0
    5.6372   -5.4171    1.7968 H   0  0  0  0  0  0  0  0  0  0  0  0
    3.8844   -3.9437    0.8023 H   0  0  0  0  0  0  0  0  0  0  0  0
   -6.2217    4.7769   -0.8192 H   0  0  0  0  0  0  0  0  0  0  0  0
   -6.1806    1.8238   -1.5703 H   0  0  0  0  0  0  0  0  0  0  0  0
   -7.8980    4.0790   -2.7378 H   0  0  0  0  0  0  0  0  0  0  0  0
   -8.1274    2.2883   -3.0311 H   0  0  0  0  0  0  0  0  0  0  0  0
   -6.6261    3.1181   -3.5713 H   0  0  0  0  0  0  0  0  0  0  0  0
   -8.8706    3.7703    0.9516 H   0  0  0  0  0  0  0  0  0  0  0  0
   -9.8851    3.3506   -1.8681 H   0  0  0  0  0  0  0  0  0  0  0  0
  -11.8294    4.6208   -1.1125 H   0  0  0  0  0  0  0  0  0  0  0  0
  -10.3163    5.5260   -0.7314 H   0  0  0  0  0  0  0  0  0  0  0  0
  -11.1975    4.6594    0.5881 H   0  0  0  0  0  0  0  0  0  0  0  0
   -9.8798    0.8307   -1.8550 H   0  0  0  0  0  0  0  0  0  0  0  0
  -11.2585   -0.9812   -0.3652 H   0  0  0  0  0  0  0  0  0  0  0  0
   -9.3100    0.3335    1.6546 H   0  0  0  0  0  0  0  0  0  0  0  0
  -11.1154    0.3917    1.7325 H   0  0  0  0  0  0  0  0  0  0  0  0
  -10.3015   -1.1520    1.9304 H   0  0  0  0  0  0  0  0  0  0  0  0
   -8.6506   -3.0812   -1.5620 H   0  0  0  0  0  0  0  0  0  0  0  0
  -10.4532   -3.1581    0.8860 H   0  0  0  0  0  0  0  0  0  0  0  0
  -11.4040   -6.6739    0.0746 H   0  0  0  0  0  0  0  0  0  0  0  0
  -10.9675   -5.6934    1.5236 H   0  0  0  0  0  0  0  0  0  0  0  0
   -8.7082   -4.8800    1.7794 H   0  0  0  0  0  0  0  0  0  0  0  0
   -7.6254   -4.3410    0.4421 H   0  0  0  0  0  0  0  0  0  0  0  0
   -6.4346   -4.3196    3.0231 H   0  0  0  0  0  0  0  0  0  0  0  0
   -5.8831   -2.6595    3.4321 H   0  0  0  0  0  0  0  0  0  0  0  0
  1  2  1  0
  2  3  2  0
  2  4  1  0
  4  5  1  0
  5  6  1  0
  6  7  1  0
  7  8  1  0
  8  9  1  0
  9 10  1  0
 10 11  2  0
 11 12  1  0
 12 13  2  0
 13 14  1  0
 13 15  1  0
 15 16  1  0
 16 17  1  0
 17 18  1  0
 18 19  1  0
 19 20  1  0
 20 21  2  0
 20 22  1  0
 22 23  1  0
 22 24  1  0
 24 25  1  0
 25 26  2  0
 25 27  1  0
 27 28  1  0
 27 29  1  0
 29 30  1  0
 30 31  2  0
 30 32  1  0
 32 33  1  0
 32 34  1  0
 34 35  1  0
 35 36  2  0
 35 37  1  0
 37 38  1  0
 37 39  1  0
 39 40  1  0
 40 41  2  0
 40 42  1  0
 42 43  1  0
 42 44  1  0
 44 45  1  0
 45 46  2  0
 45 47  1  0
 47 48  1  0
 47 49  1  0
 49 50  1  0
 50 51  2  0
 50 52  1  0
 52 53  1  0
 52 54  1  0
 54 55  1  0
 55 56  2  0
 55 57  1  0
 57 58  1  0
 57 59  1  0
 59 60  1  0
 60 61  2  0
 60 62  1  0
 62 63  1  0
 62 64  1  0
 64 65  1  0
 65 66  2  0
 18 67  1  0
 67 68  2  0
 67 69  1  0
 69 70  1  0
 70 71  1  0
 70 72  1  0
 72 73  2  0
 72 74  1  0
 74 75  1  0
 75 76  1  0
 75 77  1  0
 77 78  2  0
 77 79  1  0
 79 80  1  0
 80 81  1  0
 80 82  1  0
 82 83  2  0
 82 84  1  0
 84 85  1  0
 85 86  1  0
 86 87  1  0
 86 88  2  0
 85 89  1  0
 89 90  1  0
 90 91  1  0
 65  5  1  0
 14  9  2  0
 91 11  1  0
  1 92  1  0
  1 93  1  0
  1 94  1  0
  4 95  1  0
  5 96  1  1
  6 97  1  0
  6 98  1  0
  8 99  1  0
  8100  1  0
 10101  1  0
 12102  1  0
 14103  1  0
 15104  1  0
 15105  1  0
 17106  1  0
 17107  1  0
 18108  1  6
 19109  1  0
 22110  1  1
 23111  1  0
 23112  1  0
 23113  1  0
 24114  1  0
 27115  1  1
 28116  1  0
 28117  1  0
 28118  1  0
 29119  1  0
 32120  1  6
 33121  1  0
 33122  1  0
 33123  1  0
 34124  1  0
 37125  1  6
 38126  1  0
 38127  1  0
 38128  1  0
 39129  1  0
 42130  1  6
 43131  1  0
 43132  1  0
 43133  1  0
 44134  1  0
 47135  1  6
 48136  1  0
 48137  1  0
 48138  1  0
 49139  1  0
 52140  1  6
 53141  1  0
 53142  1  0
 53143  1  0
 54144  1  0
 57145  1  6
 58146  1  0
 58147  1  0
 58148  1  0
 59149  1  0
 62150  1  1
 63151  1  0
 63152  1  0
 63153  1  0
 64154  1  0
 69155  1  0
 70156  1  6
 71157  1  0
 71158  1  0
 71159  1  0
 74160  1  0
 75161  1  6
 76162  1  0
 76163  1  0
 76164  1  0
 79165  1  0
 80166  1  1
 81167  1  0
 81168  1  0
 81169  1  0
 84170  1  0
 85171  1  1
 87172  1  0
 87173  1  0
 89174  1  0
 89175  1  0
 91176  1  0
 91177  1  0
M  END
