
     RDKit          3D

187189  0  0  0  0  0  0  0  0999 V2000
    1.8514   -9.1649   -0.6058 C   0  0  0  0  0  0  0  0  0  0  0  0
    1.8975   -7.6675   -0.5980 C   0  0  0  0  0  0  0  0  0  0  0  0
    1.9893   -7.0541   -1.6943 O   0  0  0  0  0  0  0  0  0  0  0  0
    1.8758   -6.9151    0.6279 N   0  0  0  0  0  0  0  0  0  0  0  0
    1.6503   -7.4819    1.9583 C   0  0  2  0  0  0  0  0  0  0  0  0
    0.2355   -7.1313    2.4648 C   0  0  0  0  0  0  0  0  0  0  0  0
   -0.0974   -5.3247    2.5708 S   0  0  0  0  0  0  0  0  0  0  0  0
   -0.6542   -5.0631    0.8447 C   0  0  0  0  0  0  0  0  0  0  0  0
   -1.9550   -4.3159    0.8332 C   0  0  0  0  0  0  0  0  0  0  0  0
   -3.1278   -4.9285    0.3607 C   0  0  0  0  0  0  0  0  0  0  0  0
   -4.3350   -4.2157    0.3203 C   0  0  0  0  0  0  0  0  0  0  0  0
   -4.3544   -2.8658    0.7035 C   0  0  0  0  0  0  0  0  0  0  0  0
   -3.1877   -2.2390    1.1615 C   0  0  0  0  0  0  0  0  0  0  0  0
   -1.9937   -2.9734    1.2275 C   0  0  0  0  0  0  0  0  0  0  0  0
   -3.1778   -0.7677    1.4552 C   0  0  0  0  0  0  0  0  0  0  0  0
   -2.6334    0.1468   -0.0288 S   0  0  0  0  0  0  0  0  0  0  0  0
   -2.4760    1.7758    0.7959 C   0  0  0  0  0  0  0  0  0  0  0  0
   -3.6394    2.7004    0.4055 C   0  0  2  0  0  0  0  0  0  0  0  0
   -3.5456    3.1439   -0.9912 N   0  0  0  0  0  0  0  0  0  0  0  0
   -2.6234    4.1047   -1.5514 C   0  0  0  0  0  0  0  0  0  0  0  0
   -2.8134    4.4927   -2.7397 O   0  0  0  0  0  0  0  0  0  0  0  0
   -1.4114    4.6255   -0.8123 C   0  0  1  0  0  0  0  0  0  0  0  0
   -0.1467    3.9667   -1.3701 C   0  0  0  0  0  0  0  0  0  0  0  0
   -1.3128    6.0828   -0.9393 N   0  0  0  0  0  0  0  0  0  0  0  0
   -0.4535    6.8382   -0.0791 C   0  0  0  0  0  0  0  0  0  0  0  0
   -0.8311    7.0941    1.0974 O   0  0  0  0  0  0  0  0  0  0  0  0
    0.8791    7.3279   -0.5873 C   0  0  1  0  0  0  0  0  0  0  0  0
    0.6777    8.3348   -1.7229 C   0  0  0  0  0  0  0  0  0  0  0  0
    1.6686    7.9426    0.4896 N   0  0  0  0  0  0  0  0  0  0  0  0
    3.0440    7.6390    0.7776 C   0  0  0  0  0  0  0  0  0  0  0  0
    3.4668    7.8244    1.9491 O   0  0  0  0  0  0  0  0  0  0  0  0
    4.0286    7.2492   -0.3027 C   0  0  1  0  0  0  0  0  0  0  0  0
    4.7185    8.5001   -0.8548 C   0  0  0  0  0  0  0  0  0  0  0  0
    5.0385    6.3261    0.2264 N   0  0  0  0  0  0  0  0  0  0  0  0
    5.1304    4.9769   -0.2339 C   0  0  0  0  0  0  0  0  0  0  0  0
    4.0838    4.3073   -0.4362 O   0  0  0  0  0  0  0  0  0  0  0  0
    6.4826    4.3561   -0.5058 C   0  0  1  0  0  0  0  0  0  0  0  0
    7.2987    5.2795   -1.4204 C   0  0  0  0  0  0  0  0  0  0  0  0
    7.1886    4.0905    0.7503 N   0  0  0  0  0  0  0  0  0  0  0  0
    8.0488    2.9552    0.9259 C   0  0  0  0  0  0  0  0  0  0  0  0
    7.7337    2.0687    1.7653 O   0  0  0  0  0  0  0  0  0  0  0  0
    9.3920    2.8831    0.2347 C   0  0  1  0  0  0  0  0  0  0  0  0
   10.4843    3.3898    1.1852 C   0  0  0  0  0  0  0  0  0  0  0  0
    9.6887    1.5175   -0.2135 N   0  0  0  0  0  0  0  0  0  0  0  0
    8.9760    0.8947   -1.2973 C   0  0  0  0  0  0  0  0  0  0  0  0
    7.9772    1.4789   -1.8058 O   0  0  0  0  0  0  0  0  0  0  0  0
    9.4669   -0.3952   -1.9139 C   0  0  1  0  0  0  0  0  0  0  0  0
   10.7639   -0.1507   -2.6936 C   0  0  0  0  0  0  0  0  0  0  0  0
    9.6659   -1.4225   -0.8911 N   0  0  0  0  0  0  0  0  0  0  0  0
    9.4623   -2.8040   -1.2027 C   0  0  0  0  0  0  0  0  0  0  0  0
   10.3359   -3.4250   -1.8678 O   0  0  0  0  0  0  0  0  0  0  0  0
    8.1823   -3.4839   -0.7983 C   0  0  1  0  0  0  0  0  0  0  0  0
    7.2288   -3.5846   -1.9894 C   0  0  0  0  0  0  0  0  0  0  0  0
    8.4809   -4.8257   -0.2818 N   0  0  0  0  0  0  0  0  0  0  0  0
    8.9075   -5.1037    1.0639 C   0  0  0  0  0  0  0  0  0  0  0  0
    9.8441   -5.9349    1.2374 O   0  0  0  0  0  0  0  0  0  0  0  0
    8.1868   -4.5638    2.2829 C   0  0  1  0  0  0  0  0  0  0  0  0
    8.7203   -3.1956    2.7108 C   0  0  0  0  0  0  0  0  0  0  0  0
    6.7410   -4.5358    2.0512 N   0  0  0  0  0  0  0  0  0  0  0  0
    5.8856   -5.5319    2.6147 C   0  0  0  0  0  0  0  0  0  0  0  0
    5.9798   -5.8155    3.8459 O   0  0  0  0  0  0  0  0  0  0  0  0
    4.8255   -6.1788    1.7578 C   0  0  1  0  0  0  0  0  0  0  0  0
    5.4468   -6.7911    0.5013 C   0  0  0  0  0  0  0  0  0  0  0  0
    4.1128   -7.2173    2.5052 N   0  0  0  0  0  0  0  0  0  0  0  0
    2.7544   -7.0474    2.8948 C   0  0  0  0  0  0  0  0  0  0  0  0
    2.4930   -6.6044    4.0492 O   0  0  0  0  0  0  0  0  0  0  0  0
   -3.8401    3.8738    1.3410 C   0  0  0  0  0  0  0  0  0  0  0  0
   -3.0040    4.1293    2.2516 O   0  0  0  0  0  0  0  0  0  0  0  0
   -5.0260    4.6693    1.2115 N   0  0  0  0  0  0  0  0  0  0  0  0
   -5.7231    5.2296    2.3838 C   0  0  2  0  0  0  0  0  0  0  0  0
   -5.9559    4.1724    3.4747 C   0  0  0  0  0  0  0  0  0  0  0  0
   -7.0396    5.8589    1.9763 C   0  0  0  0  0  0  0  0  0  0  0  0
   -7.1412    7.1128    2.0056 O   0  0  0  0  0  0  0  0  0  0  0  0
   -8.1965    5.0752    1.6337 N   0  0  0  0  0  0  0  0  0  0  0  0
   -8.1431    3.9227    0.7245 C   0  0  2  0  0  0  0  0  0  0  0  0
   -8.2891    4.3940   -0.7248 C   0  0  0  0  0  0  0  0  0  0  0  0
   -9.2197    2.9305    1.0706 C   0  0  0  0  0  0  0  0  0  0  0  0
  -10.4421    3.2570    0.9936 O   0  0  0  0  0  0  0  0  0  0  0  0
   -8.8560    1.6170    1.5200 N   0  0  0  0  0  0  0  0  0  0  0  0
   -9.0629    0.4235    0.6912 C   0  0  2  0  0  0  0  0  0  0  0  0
   -8.2028    0.5328   -0.5739 C   0  0  0  0  0  0  0  0  0  0  0  0
  -10.5433    0.2002    0.4451 C   0  0  0  0  0  0  0  0  0  0  0  0
  -11.3367    0.3864    1.4056 O   0  0  0  0  0  0  0  0  0  0  0  0
  -11.0946   -0.2159   -0.8199 N   0  0  0  0  0  0  0  0  0  0  0  0
  -10.5829   -1.3268   -1.6448 C   0  0  2  0  0  0  0  0  0  0  0  0
  -11.6775   -1.8258   -2.5882 C   0  0  0  0  0  0  0  0  0  0  0  0
  -10.0907   -2.4650   -0.7777 C   0  0  0  0  0  0  0  0  0  0  0  0
  -10.7832   -2.8533    0.2012 O   0  0  0  0  0  0  0  0  0  0  0  0
   -8.8462   -3.1109   -1.0553 N   0  0  0  0  0  0  0  0  0  0  0  0
   -8.6438   -3.8753   -2.2942 C   0  0  1  0  0  0  0  0  0  0  0  0
   -8.3070   -2.9679   -3.4518 C   0  0  0  0  0  0  0  0  0  0  0  0
   -8.9615   -3.1240   -4.7102 N   0  0  0  0  0  0  0  0  0  0  0  0
   -7.4564   -2.0525   -3.3084 O   0  0  0  0  0  0  0  0  0  0  0  0
   -7.5750   -4.9796   -2.1012 C   0  0  0  0  0  0  0  0  0  0  0  0
   -5.8719   -4.3145   -1.9234 S   0  0  0  0  0  0  0  0  0  0  0  0
   -5.5857   -4.8633   -0.2025 C   0  0  0  0  0  0  0  0  0  0  0  0
    2.7285   -9.5607   -0.0524 H   0  0  0  0  0  0  0  0  0  0  0  0
    1.8859   -9.5523   -1.6437 H   0  0  0  0  0  0  0  0  0  0  0  0
    0.9159   -9.5161   -0.1278 H   0  0  0  0  0  0  0  0  0  0  0  0
    1.9787   -5.8771    0.5492 H   0  0  0  0  0  0  0  0  0  0  0  0
    1.7109   -8.5923    1.9244 H   0  0  0  0  0  0  0  0  0  0  0  0
   -0.5324   -7.6309    1.8372 H   0  0  0  0  0  0  0  0  0  0  0  0
    0.1053   -7.5535    3.4817 H   0  0  0  0  0  0  0  0  0  0  0  0
   -0.7446   -6.0195    0.2937 H   0  0  0  0  0  0  0  0  0  0  0  0
    0.1092   -4.4497    0.3171 H   0  0  0  0  0  0  0  0  0  0  0  0
   -3.0978   -5.9624    0.0361 H   0  0  0  0  0  0  0  0  0  0  0  0
   -5.2823   -2.3046    0.6458 H   0  0  0  0  0  0  0  0  0  0  0  0
   -1.0830   -2.4867    1.5562 H   0  0  0  0  0  0  0  0  0  0  0  0
   -2.4710   -0.5843    2.2925 H   0  0  0  0  0  0  0  0  0  0  0  0
   -4.1880   -0.4170    1.7555 H   0  0  0  0  0  0  0  0  0  0  0  0
   -2.4461    1.6532    1.8943 H   0  0  0  0  0  0  0  0  0  0  0  0
   -1.5040    2.1938    0.4940 H   0  0  0  0  0  0  0  0  0  0  0  0
   -4.5734    2.0965    0.5056 H   0  0  0  0  0  0  0  0  0  0  0  0
   -4.2928    2.7970   -1.6363 H   0  0  0  0  0  0  0  0  0  0  0  0
   -1.4859    4.3946    0.2617 H   0  0  0  0  0  0  0  0  0  0  0  0
    0.0679    4.3508   -2.3929 H   0  0  0  0  0  0  0  0  0  0  0  0
    0.7224    4.1812   -0.7154 H   0  0  0  0  0  0  0  0  0  0  0  0
   -0.2674    2.8623   -1.4291 H   0  0  0  0  0  0  0  0  0  0  0  0
   -1.9091    6.6067   -1.6187 H   0  0  0  0  0  0  0  0  0  0  0  0
    1.4071    6.4415   -0.9919 H   0  0  0  0  0  0  0  0  0  0  0  0
    0.0923    9.2066   -1.3697 H   0  0  0  0  0  0  0  0  0  0  0  0
    0.1368    7.8575   -2.5698 H   0  0  0  0  0  0  0  0  0  0  0  0
    1.6625    8.6877   -2.0965 H   0  0  0  0  0  0  0  0  0  0  0  0
    1.2132    8.6806    1.0766 H   0  0  0  0  0  0  0  0  0  0  0  0
    3.5106    6.7704   -1.1556 H   0  0  0  0  0  0  0  0  0  0  0  0
    5.4477    8.2106   -1.6370 H   0  0  0  0  0  0  0  0  0  0  0  0
    3.9685    9.1807   -1.3100 H   0  0  0  0  0  0  0  0  0  0  0  0
    5.2541    9.0417   -0.0473 H   0  0  0  0  0  0  0  0  0  0  0  0
    5.8027    6.7069    0.8282 H   0  0  0  0  0  0  0  0  0  0  0  0
    6.3157    3.3914   -1.0403 H   0  0  0  0  0  0  0  0  0  0  0  0
    6.6555    5.7204   -2.2102 H   0  0  0  0  0  0  0  0  0  0  0  0
    8.0923    4.7130   -1.9473 H   0  0  0  0  0  0  0  0  0  0  0  0
    7.7597    6.1015   -0.8367 H   0  0  0  0  0  0  0  0  0  0  0  0
    6.8158    4.5154    1.6312 H   0  0  0  0  0  0  0  0  0  0  0  0
    9.4035    3.5503   -0.6438 H   0  0  0  0  0  0  0  0  0  0  0  0
   10.5560    2.7396    2.0868 H   0  0  0  0  0  0  0  0  0  0  0  0
   11.4704    3.3768    0.6695 H   0  0  0  0  0  0  0  0  0  0  0  0
   10.2727    4.4355    1.5091 H   0  0  0  0  0  0  0  0  0  0  0  0
   10.4980    1.0122    0.2117 H   0  0  0  0  0  0  0  0  0  0  0  0
    8.6874   -0.7492   -2.6330 H   0  0  0  0  0  0  0  0  0  0  0  0
   10.6094    0.6262   -3.4722 H   0  0  0  0  0  0  0  0  0  0  0  0
   11.0879   -1.0870   -3.1946 H   0  0  0  0  0  0  0  0  0  0  0  0
   11.5765    0.1780   -2.0086 H   0  0  0  0  0  0  0  0  0  0  0  0
   10.3082   -1.2192   -0.0933 H   0  0  0  0  0  0  0  0  0  0  0  0
    7.6839   -2.8638   -0.0322 H   0  0  0  0  0  0  0  0  0  0  0  0
    7.6544   -4.2449   -2.7750 H   0  0  0  0  0  0  0  0  0  0  0  0
    7.0387   -2.5820   -2.4236 H   0  0  0  0  0  0  0  0  0  0  0  0
    6.2528   -4.0074   -1.6597 H   0  0  0  0  0  0  0  0  0  0  0  0
    8.6847   -5.5730   -0.9835 H   0  0  0  0  0  0  0  0  0  0  0  0
    8.4016   -5.2613    3.1249 H   0  0  0  0  0  0  0  0  0  0  0  0
    8.1281   -2.8178    3.5736 H   0  0  0  0  0  0  0  0  0  0  0  0
    8.6652   -2.4437    1.8940 H   0  0  0  0  0  0  0  0  0  0  0  0
    9.7805   -3.2886    3.0284 H   0  0  0  0  0  0  0  0  0  0  0  0
    6.3387   -3.9157    1.3121 H   0  0  0  0  0  0  0  0  0  0  0  0
    4.1147   -5.3777    1.4556 H   0  0  0  0  0  0  0  0  0  0  0  0
    5.8584   -5.9949   -0.1494 H   0  0  0  0  0  0  0  0  0  0  0  0
    6.2648   -7.4928    0.7735 H   0  0  0  0  0  0  0  0  0  0  0  0
    4.6815   -7.3441   -0.0798 H   0  0  0  0  0  0  0  0  0  0  0  0
    4.6423   -8.0372    2.8842 H   0  0  0  0  0  0  0  0  0  0  0  0
   -5.4735    4.7051    0.2693 H   0  0  0  0  0  0  0  0  0  0  0  0
   -5.0737    6.0293    2.8122 H   0  0  0  0  0  0  0  0  0  0  0  0
   -6.4469    3.2717    3.0626 H   0  0  0  0  0  0  0  0  0  0  0  0
   -4.9890    3.8650    3.9299 H   0  0  0  0  0  0  0  0  0  0  0  0
   -6.5893    4.5929    4.2871 H   0  0  0  0  0  0  0  0  0  0  0  0
   -9.1233    5.5443    1.7429 H   0  0  0  0  0  0  0  0  0  0  0  0
   -7.1799    3.3907    0.8252 H   0  0  0  0  0  0  0  0  0  0  0  0
   -8.1362    3.5453   -1.4228 H   0  0  0  0  0  0  0  0  0  0  0  0
   -9.2922    4.8330   -0.9019 H   0  0  0  0  0  0  0  0  0  0  0  0
   -7.5242    5.1654   -0.9563 H   0  0  0  0  0  0  0  0  0  0  0  0
   -8.2185    1.5451    2.3458 H   0  0  0  0  0  0  0  0  0  0  0  0
   -8.6930   -0.4554    1.2688 H   0  0  0  0  0  0  0  0  0  0  0  0
   -7.9801   -0.4676   -0.9834 H   0  0  0  0  0  0  0  0  0  0  0  0
   -8.7075    1.1592   -1.3423 H   0  0  0  0  0  0  0  0  0  0  0  0
   -7.2218    0.9935   -0.3341 H   0  0  0  0  0  0  0  0  0  0  0  0
  -12.0622    0.1282   -1.0155 H   0  0  0  0  0  0  0  0  0  0  0  0
   -9.7517   -0.9441   -2.2764 H   0  0  0  0  0  0  0  0  0  0  0  0
  -12.5600   -2.1705   -2.0141 H   0  0  0  0  0  0  0  0  0  0  0  0
  -11.3021   -2.6680   -3.2071 H   0  0  0  0  0  0  0  0  0  0  0  0
  -11.9860   -1.0104   -3.2759 H   0  0  0  0  0  0  0  0  0  0  0  0
   -8.2278   -3.3006   -0.2376 H   0  0  0  0  0  0  0  0  0  0  0  0
   -9.5905   -4.4072   -2.5233 H   0  0  0  0  0  0  0  0  0  0  0  0
   -9.6425   -3.8997   -4.8652 H   0  0  0  0  0  0  0  0  0  0  0  0
   -8.7303   -2.4904   -5.5087 H   0  0  0  0  0  0  0  0  0  0  0  0
   -7.8541   -5.6222   -1.2385 H   0  0  0  0  0  0  0  0  0  0  0  0
   -7.5803   -5.6467   -2.9938 H   0  0  0  0  0  0  0  0  0  0  0  0
   -6.4365   -4.5903    0.4466 H   0  0  0  0  0  0  0  0  0  0  0  0
   -5.4919   -5.9729   -0.1917 H   0  0  0  0  0  0  0  0  0  0  0  0
  1  2  1  0
  2  3  2  0
  2  4  1  0
  4  5  1  0
  5  6  1  0
  6  7  1  0
  7  8  1  0
  8  9  1  0
  9 10  1  0
 10 11  2  0
 11 12  1  0
 12 13  2  0
 13 14  1  0
 13 15  1  0
 15 16  1  0
 16 17  1  0
 17 18  1  0
 18 19  1  0
 19 20  1  0
 20 21  2  0
 20 22  1  0
 22 23  1  0
 22 24  1  0
 24 25  1  0
 25 26  2  0
 25 27  1  0
 27 28  1  0
 27 29  1  0
 29 30  1  0
 30 31  2  0
 30 32  1  0
 32 33  1  0
 32 34  1  0
 34 35  1  0
 35 36  2  0
 35 37  1  0
 37 38  1  0
 37 39  1  0
 39 40  1  0
 40 41  2  0
 40 42  1  0
 42 43  1  0
 42 44  1  0
 44 45  1  0
 45 46  2  0
 45 47  1  0
 47 48  1  0
 47 49  1  0
 49 50  1  0
 50 51  2  0
 50 52  1  0
 52 53  1  0
 52 54  1  0
 54 55  1  0
 55 56  2  0
 55 57  1  0
 57 58  1  0
 57 59  1  0
 59 60  1  0
 60 61  2  0
 60 62  1  0
 62 63  1  0
 62 64  1  0
 64 65  1  0
 65 66  2  0
 18 67  1  0
 67 68  2  0
 67 69  1  0
 69 70  1  0
 70 71  1  0
 70 72  1  0
 72 73  2  0
 72 74  1  0
 74 75  1  0
 75 76  1  0
 75 77  1  0
 77 78  2  0
 77 79  1  0
 79 80  1  0
 80 81  1  0
 80 82  1  0
 82 83  2  0
 82 84  1  0
 84 85  1  0
 85 86  1  0
 85 87  1  0
 87 88  2  0
 87 89  1  0
 89 90  1  0
 90 91  1  0
 91 92  1  0
 91 93  2  0
 90 94  1  0
 94 95  1  0
 95 96  1  0
 65  5  1  0
 14  9  2  0
 96 11  1  0
  1 97  1  0
  1 98  1  0
  1 99  1  0
  4100  1  0
  5101  1  6
  6102  1  0
  6103  1  0
  8104  1  0
  8105  1  0
 10106  1  0
 12107  1  0
 14108  1  0
 15109  1  0
 15110  1  0
 17111  1  0
 17112  1  0
 18113  1  6
 19114  1  0
 22115  1  1
 23116  1  0
 23117  1  0
 23118  1  0
 24119  1  0
 27120  1  6
 28121  1  0
 28122  1  0
 28123  1  0
 29124  1  0
 32125  1  6
 33126  1  0
 33127  1  0
 33128  1  0
 34129  1  0
 37130  1  6
 38131  1  0
 38132  1  0
 38133  1  0
 39134  1  0
 42135  1  6
 43136  1  0
 43137  1  0
 43138  1  0
 44139  1  0
 47140  1  6
 48141  1  0
 48142  1  0
 48143  1  0
 49144  1  0
 52145  1  1
 53146  1  0
 53147  1  0
 53148  1  0
 54149  1  0
 57150  1  1
 58151  1  0
 58152  1  0
 58153  1  0
 59154  1  0
 62155  1  6
 63156  1  0
 63157  1  0
 63158  1  0
 64159  1  0
 69160  1  0
 70161  1  1
 71162  1  0
 71163  1  0
 71164  1  0
 74165  1  0
 75166  1  6
 76167  1  0
 76168  1  0
 76169  1  0
 79170  1  0
 80171  1  1
 81172  1  0
 81173  1  0
 81174  1  0
 84175  1  0
 85176  1  6
 86177  1  0
 86178  1  0
 86179  1  0
 89180  1  0
 90181  1  6
 92182  1  0
 92183  1  0
 94184  1  0
 94185  1  0
 96186  1  0
 96187  1  0
M  END
