
     RDKit          3D

207209  0  0  0  0  0  0  0  0999 V2000
   -1.4612   10.4348   -1.1591 C   0  0  0  0  0  0  0  0  0  0  0  0
   -2.1153    9.0980   -1.3141 C   0  0  0  0  0  0  0  0  0  0  0  0
   -3.1688    9.0128   -2.0054 O   0  0  0  0  0  0  0  0  0  0  0  0
   -1.5476    7.9342   -0.7005 N   0  0  0  0  0  0  0  0  0  0  0  0
   -2.2297    6.6329   -0.7142 C   0  0  1  0  0  0  0  0  0  0  0  0
   -1.2477    5.4738   -0.4957 C   0  0  0  0  0  0  0  0  0  0  0  0
    0.1828    5.5989   -1.6438 S   0  0  0  0  0  0  0  0  0  0  0  0
    0.4476    3.8008   -1.8922 C   0  0  0  0  0  0  0  0  0  0  0  0
    0.7780    3.0856   -0.6046 C   0  0  0  0  0  0  0  0  0  0  0  0
    1.8708    3.4820    0.1834 C   0  0  0  0  0  0  0  0  0  0  0  0
    2.1372    2.8385    1.4122 C   0  0  0  0  0  0  0  0  0  0  0  0
    1.3116    1.7744    1.8184 C   0  0  0  0  0  0  0  0  0  0  0  0
    0.2398    1.3581    1.0268 C   0  0  0  0  0  0  0  0  0  0  0  0
   -0.0273    2.0204   -0.1827 C   0  0  0  0  0  0  0  0  0  0  0  0
   -0.6990    0.2890    1.5108 C   0  0  0  0  0  0  0  0  0  0  0  0
    0.1607   -1.2720    1.8965 S   0  0  0  0  0  0  0  0  0  0  0  0
    0.7278   -1.6413    0.1958 C   0  0  0  0  0  0  0  0  0  0  0  0
    0.8324   -3.1638   -0.0084 C   0  0  2  0  0  0  0  0  0  0  0  0
    1.6685   -3.7968    1.0201 N   0  0  0  0  0  0  0  0  0  0  0  0
    1.7409   -5.2092    1.2718 C   0  0  0  0  0  0  0  0  0  0  0  0
    2.6338   -5.6298    2.0517 O   0  0  0  0  0  0  0  0  0  0  0  0
    0.7762   -6.2105    0.6700 C   0  0  1  0  0  0  0  0  0  0  0  0
    1.5426   -7.2877   -0.1047 C   0  0  0  0  0  0  0  0  0  0  0  0
   -0.0150   -6.8240    1.7392 N   0  0  0  0  0  0  0  0  0  0  0  0
   -1.3758   -7.2766    1.6149 C   0  0  0  0  0  0  0  0  0  0  0  0
   -2.0540   -7.4302    2.6643 O   0  0  0  0  0  0  0  0  0  0  0  0
   -1.9956   -7.6670    0.2832 C   0  0  1  0  0  0  0  0  0  0  0  0
   -1.9679   -9.1987    0.1771 C   0  0  0  0  0  0  0  0  0  0  0  0
   -3.3800   -7.1828    0.1972 N   0  0  0  0  0  0  0  0  0  0  0  0
   -4.2342   -7.4724   -0.9245 C   0  0  0  0  0  0  0  0  0  0  0  0
   -3.7367   -7.6263   -2.0730 O   0  0  0  0  0  0  0  0  0  0  0  0
   -5.7148   -7.7095   -0.7317 C   0  0  1  0  0  0  0  0  0  0  0  0
   -5.9641   -9.2005   -0.4795 C   0  0  0  0  0  0  0  0  0  0  0  0
   -6.2345   -6.9330    0.4033 N   0  0  0  0  0  0  0  0  0  0  0  0
   -7.1288   -5.8104    0.3214 C   0  0  0  0  0  0  0  0  0  0  0  0
   -7.3866   -5.1796    1.3823 O   0  0  0  0  0  0  0  0  0  0  0  0
   -7.8282   -5.4073   -0.9629 C   0  0  1  0  0  0  0  0  0  0  0  0
   -9.0112   -6.3592   -1.2086 C   0  0  0  0  0  0  0  0  0  0  0  0
   -8.2572   -3.9996   -0.8706 N   0  0  0  0  0  0  0  0  0  0  0  0
   -9.5261   -3.5086   -1.3263 C   0  0  0  0  0  0  0  0  0  0  0  0
   -9.6870   -3.2612   -2.5525 O   0  0  0  0  0  0  0  0  0  0  0  0
  -10.6703   -3.2893   -0.3695 C   0  0  1  0  0  0  0  0  0  0  0  0
  -10.2690   -3.4805    1.1034 C   0  0  0  0  0  0  0  0  0  0  0  0
  -11.2793   -1.9652   -0.5373 N   0  0  0  0  0  0  0  0  0  0  0  0
  -10.5420   -0.7490   -0.3333 C   0  0  0  0  0  0  0  0  0  0  0  0
   -9.3651   -0.6269   -0.7771 O   0  0  0  0  0  0  0  0  0  0  0  0
  -11.1994    0.4105    0.3714 C   0  0  1  0  0  0  0  0  0  0  0  0
  -10.2959    0.8958    1.5224 C   0  0  0  0  0  0  0  0  0  0  0  0
  -11.4600    1.5056   -0.5653 N   0  0  0  0  0  0  0  0  0  0  0  0
  -12.1833    2.6636   -0.1381 C   0  0  0  0  0  0  0  0  0  0  0  0
  -13.3118    2.5254    0.4038 O   0  0  0  0  0  0  0  0  0  0  0  0
  -11.5322    4.0176   -0.2088 C   0  0  1  0  0  0  0  0  0  0  0  0
  -12.5491    5.1065   -0.5841 C   0  0  0  0  0  0  0  0  0  0  0  0
  -10.9348    4.3298    1.0917 N   0  0  0  0  0  0  0  0  0  0  0  0
   -9.5475    4.6641    1.2724 C   0  0  0  0  0  0  0  0  0  0  0  0
   -8.9682    4.3019    2.3292 O   0  0  0  0  0  0  0  0  0  0  0  0
   -8.7956    5.5085    0.2701 C   0  0  1  0  0  0  0  0  0  0  0  0
   -8.3214    6.8062    0.9336 C   0  0  0  0  0  0  0  0  0  0  0  0
   -7.6942    4.7373   -0.3183 N   0  0  0  0  0  0  0  0  0  0  0  0
   -6.3353    4.8227    0.1269 C   0  0  0  0  0  0  0  0  0  0  0  0
   -6.0251    4.3693    1.2623 O   0  0  0  0  0  0  0  0  0  0  0  0
   -5.2670    5.4651   -0.7283 C   0  0  1  0  0  0  0  0  0  0  0  0
   -5.8055    5.9540   -2.0733 C   0  0  0  0  0  0  0  0  0  0  0  0
   -4.6785    6.5841    0.0074 N   0  0  0  0  0  0  0  0  0  0  0  0
   -3.2926    6.6465    0.3481 C   0  0  0  0  0  0  0  0  0  0  0  0
   -2.9672    6.8255    1.5521 O   0  0  0  0  0  0  0  0  0  0  0  0
    1.3352   -3.5025   -1.3940 C   0  0  0  0  0  0  0  0  0  0  0  0
    0.5040   -3.5563   -2.3415 O   0  0  0  0  0  0  0  0  0  0  0  0
    2.7008   -3.8763   -1.6498 N   0  0  0  0  0  0  0  0  0  0  0  0
    3.8555   -3.0851   -1.1907 C   0  0  2  0  0  0  0  0  0  0  0  0
    4.3709   -2.2294   -2.3553 C   0  0  0  0  0  0  0  0  0  0  0  0
    4.9221   -3.9887   -0.6171 C   0  0  0  0  0  0  0  0  0  0  0  0
    4.6222   -4.8031    0.2946 O   0  0  0  0  0  0  0  0  0  0  0  0
    6.2706   -3.9222   -1.0745 N   0  0  0  0  0  0  0  0  0  0  0  0
    7.3681   -3.4817   -0.2037 C   0  0  2  0  0  0  0  0  0  0  0  0
    6.9705   -2.2374    0.5950 C   0  0  0  0  0  0  0  0  0  0  0  0
    8.5694   -3.1666   -1.0659 C   0  0  0  0  0  0  0  0  0  0  0  0
    8.4700   -2.2639   -1.9370 O   0  0  0  0  0  0  0  0  0  0  0  0
    9.8066   -3.9020   -0.9835 N   0  0  0  0  0  0  0  0  0  0  0  0
   10.4774   -4.3493    0.2531 C   0  0  2  0  0  0  0  0  0  0  0  0
   10.0777   -5.7895    0.6089 C   0  0  0  0  0  0  0  0  0  0  0  0
   10.2870   -3.3587    1.3845 C   0  0  0  0  0  0  0  0  0  0  0  0
    9.6738   -3.7189    2.4288 O   0  0  0  0  0  0  0  0  0  0  0  0
   10.7751   -2.0023    1.3051 N   0  0  0  0  0  0  0  0  0  0  0  0
   11.7166   -1.5052    0.2947 C   0  0  2  0  0  0  0  0  0  0  0  0
   13.0862   -1.2532    0.9290 C   0  0  0  0  0  0  0  0  0  0  0  0
   11.1699   -0.2629   -0.3497 C   0  0  0  0  0  0  0  0  0  0  0  0
   10.5781   -0.3737   -1.4637 O   0  0  0  0  0  0  0  0  0  0  0  0
   11.1838    1.0037    0.3118 N   0  0  0  0  0  0  0  0  0  0  0  0
   10.9962    2.2575   -0.4315 C   0  0  2  0  0  0  0  0  0  0  0  0
   12.2178    2.5247   -1.3185 C   0  0  0  0  0  0  0  0  0  0  0  0
   10.7806    3.4407    0.4897 C   0  0  0  0  0  0  0  0  0  0  0  0
   11.4009    3.4959    1.5839 O   0  0  0  0  0  0  0  0  0  0  0  0
    9.9567    4.5606    0.1143 N   0  0  0  0  0  0  0  0  0  0  0  0
    9.0728    4.5795   -1.0622 C   0  0  2  0  0  0  0  0  0  0  0  0
    8.6667    6.0211   -1.4029 C   0  0  0  0  0  0  0  0  0  0  0  0
    7.8426    3.7325   -0.8290 C   0  0  0  0  0  0  0  0  0  0  0  0
    7.0762    3.4611   -1.7878 O   0  0  0  0  0  0  0  0  0  0  0  0
    7.5639    3.1824    0.4643 N   0  0  0  0  0  0  0  0  0  0  0  0
    6.6458    3.8039    1.4302 C   0  0  1  0  0  0  0  0  0  0  0  0
    7.3500    4.9315    2.1578 C   0  0  0  0  0  0  0  0  0  0  0  0
    7.0989    6.3130    1.8788 N   0  0  0  0  0  0  0  0  0  0  0  0
    8.2262    4.6462    3.0089 O   0  0  0  0  0  0  0  0  0  0  0  0
    5.3175    4.1940    0.7448 C   0  0  0  0  0  0  0  0  0  0  0  0
    4.0839    4.8274    1.9500 S   0  0  0  0  0  0  0  0  0  0  0  0
    3.2929    3.2122    2.3136 C   0  0  0  0  0  0  0  0  0  0  0  0
   -0.5194   10.3486   -0.5776 H   0  0  0  0  0  0  0  0  0  0  0  0
   -1.2281   10.8542   -2.1580 H   0  0  0  0  0  0  0  0  0  0  0  0
   -2.1469   11.1234   -0.6232 H   0  0  0  0  0  0  0  0  0  0  0  0
   -0.7195    8.0594   -0.0696 H   0  0  0  0  0  0  0  0  0  0  0  0
   -2.6966    6.4866   -1.7143 H   0  0  0  0  0  0  0  0  0  0  0  0
   -0.8535    5.4834    0.5426 H   0  0  0  0  0  0  0  0  0  0  0  0
   -1.7953    4.5170   -0.6472 H   0  0  0  0  0  0  0  0  0  0  0  0
    1.2916    3.6622   -2.5982 H   0  0  0  0  0  0  0  0  0  0  0  0
   -0.4596    3.3682   -2.3767 H   0  0  0  0  0  0  0  0  0  0  0  0
    2.4821    4.3026   -0.1624 H   0  0  0  0  0  0  0  0  0  0  0  0
    1.4908    1.2868    2.7751 H   0  0  0  0  0  0  0  0  0  0  0  0
   -0.8718    1.7037   -0.7880 H   0  0  0  0  0  0  0  0  0  0  0  0
   -1.5029    0.0834    0.7738 H   0  0  0  0  0  0  0  0  0  0  0  0
   -1.1808    0.6524    2.4430 H   0  0  0  0  0  0  0  0  0  0  0  0
    1.7033   -1.1424    0.0395 H   0  0  0  0  0  0  0  0  0  0  0  0
    0.0132   -1.2259   -0.5443 H   0  0  0  0  0  0  0  0  0  0  0  0
   -0.2140   -3.5406    0.0941 H   0  0  0  0  0  0  0  0  0  0  0  0
    2.3181   -3.1837    1.5652 H   0  0  0  0  0  0  0  0  0  0  0  0
    0.1002   -5.7069   -0.0374 H   0  0  0  0  0  0  0  0  0  0  0  0
    0.8451   -7.9841   -0.6083 H   0  0  0  0  0  0  0  0  0  0  0  0
    2.1834   -6.8198   -0.8881 H   0  0  0  0  0  0  0  0  0  0  0  0
    2.1913   -7.8764    0.5771 H   0  0  0  0  0  0  0  0  0  0  0  0
    0.3763   -6.8207    2.7111 H   0  0  0  0  0  0  0  0  0  0  0  0
   -1.4279   -7.2520   -0.5699 H   0  0  0  0  0  0  0  0  0  0  0  0
   -2.6279   -9.6571    0.9441 H   0  0  0  0  0  0  0  0  0  0  0  0
   -2.3188   -9.5229   -0.8253 H   0  0  0  0  0  0  0  0  0  0  0  0
   -0.9327   -9.5766    0.3142 H   0  0  0  0  0  0  0  0  0  0  0  0
   -3.7257   -6.4876    0.8996 H   0  0  0  0  0  0  0  0  0  0  0  0
   -6.2349   -7.4530   -1.6737 H   0  0  0  0  0  0  0  0  0  0  0  0
   -5.4297   -9.5364    0.4350 H   0  0  0  0  0  0  0  0  0  0  0  0
   -5.6012   -9.7998   -1.3440 H   0  0  0  0  0  0  0  0  0  0  0  0
   -7.0514   -9.3855   -0.3527 H   0  0  0  0  0  0  0  0  0  0  0  0
   -5.9134   -7.2061    1.3593 H   0  0  0  0  0  0  0  0  0  0  0  0
   -7.1212   -5.4723   -1.8089 H   0  0  0  0  0  0  0  0  0  0  0  0
   -9.7613   -6.2723   -0.4005 H   0  0  0  0  0  0  0  0  0  0  0  0
   -9.4955   -6.1284   -2.1834 H   0  0  0  0  0  0  0  0  0  0  0  0
   -8.6609   -7.4119   -1.2499 H   0  0  0  0  0  0  0  0  0  0  0  0
   -7.5226   -3.2795   -0.6692 H   0  0  0  0  0  0  0  0  0  0  0  0
  -11.4470   -4.0527   -0.5986 H   0  0  0  0  0  0  0  0  0  0  0  0
  -11.1297   -3.2422    1.7641 H   0  0  0  0  0  0  0  0  0  0  0  0
   -9.9692   -4.5287    1.2900 H   0  0  0  0  0  0  0  0  0  0  0  0
   -9.4282   -2.8018    1.3630 H   0  0  0  0  0  0  0  0  0  0  0  0
  -12.3212   -1.9122   -0.5530 H   0  0  0  0  0  0  0  0  0  0  0  0
  -12.1605    0.0704    0.8126 H   0  0  0  0  0  0  0  0  0  0  0  0
  -10.0179    0.0419    2.1800 H   0  0  0  0  0  0  0  0  0  0  0  0
  -10.8367    1.6399    2.1432 H   0  0  0  0  0  0  0  0  0  0  0  0
   -9.3727    1.3668    1.1256 H   0  0  0  0  0  0  0  0  0  0  0  0
  -11.5122    1.2875   -1.5900 H   0  0  0  0  0  0  0  0  0  0  0  0
  -10.7534    3.9881   -1.0040 H   0  0  0  0  0  0  0  0  0  0  0  0
  -12.9818    4.8924   -1.5863 H   0  0  0  0  0  0  0  0  0  0  0  0
  -12.0474    6.0949   -0.6194 H   0  0  0  0  0  0  0  0  0  0  0  0
  -13.3671    5.1455    0.1659 H   0  0  0  0  0  0  0  0  0  0  0  0
  -11.4967    4.1337    1.9479 H   0  0  0  0  0  0  0  0  0  0  0  0
   -9.4729    5.8093   -0.5559 H   0  0  0  0  0  0  0  0  0  0  0  0
   -7.6697    6.5990    1.8075 H   0  0  0  0  0  0  0  0  0  0  0  0
   -7.7642    7.4270    0.1966 H   0  0  0  0  0  0  0  0  0  0  0  0
   -9.1958    7.3966    1.2791 H   0  0  0  0  0  0  0  0  0  0  0  0
   -7.9275    4.0010   -1.0295 H   0  0  0  0  0  0  0  0  0  0  0  0
   -4.4891    4.7015   -0.9328 H   0  0  0  0  0  0  0  0  0  0  0  0
   -6.5998    6.7210   -1.9249 H   0  0  0  0  0  0  0  0  0  0  0  0
   -4.9826    6.4081   -2.6704 H   0  0  0  0  0  0  0  0  0  0  0  0
   -6.2337    5.1053   -2.6512 H   0  0  0  0  0  0  0  0  0  0  0  0
   -5.3230    7.2579    0.4839 H   0  0  0  0  0  0  0  0  0  0  0  0
    2.8693   -4.5699   -2.4117 H   0  0  0  0  0  0  0  0  0  0  0  0
    3.5480   -2.3961   -0.3811 H   0  0  0  0  0  0  0  0  0  0  0  0
    5.1964   -1.5715   -2.0194 H   0  0  0  0  0  0  0  0  0  0  0  0
    3.5547   -1.5910   -2.7476 H   0  0  0  0  0  0  0  0  0  0  0  0
    4.7399   -2.8742   -3.1820 H   0  0  0  0  0  0  0  0  0  0  0  0
    6.5046   -4.4837   -1.9383 H   0  0  0  0  0  0  0  0  0  0  0  0
    7.5957   -4.2851    0.5145 H   0  0  0  0  0  0  0  0  0  0  0  0
    7.8295   -1.8556    1.1860 H   0  0  0  0  0  0  0  0  0  0  0  0
    6.6232   -1.4280   -0.0831 H   0  0  0  0  0  0  0  0  0  0  0  0
    6.1509   -2.4783    1.3064 H   0  0  0  0  0  0  0  0  0  0  0  0
   10.4046   -3.8822   -1.8404 H   0  0  0  0  0  0  0  0  0  0  0  0
   11.5741   -4.3962    0.0528 H   0  0  0  0  0  0  0  0  0  0  0  0
    8.9927   -5.9025    0.7857 H   0  0  0  0  0  0  0  0  0  0  0  0
   10.6167   -6.1218    1.5186 H   0  0  0  0  0  0  0  0  0  0  0  0
   10.3637   -6.4689   -0.2230 H   0  0  0  0  0  0  0  0  0  0  0  0
   10.5269   -1.3641    2.0924 H   0  0  0  0  0  0  0  0  0  0  0  0
   11.8659   -2.2532   -0.5078 H   0  0  0  0  0  0  0  0  0  0  0  0
   13.7631   -0.7521    0.2047 H   0  0  0  0  0  0  0  0  0  0  0  0
   12.9937   -0.6149    1.8359 H   0  0  0  0  0  0  0  0  0  0  0  0
   13.5479   -2.2197    1.2304 H   0  0  0  0  0  0  0  0  0  0  0  0
   11.3179    1.0259    1.3517 H   0  0  0  0  0  0  0  0  0  0  0  0
   10.1094    2.1347   -1.0843 H   0  0  0  0  0  0  0  0  0  0  0  0
   13.1402    2.5782   -0.6971 H   0  0  0  0  0  0  0  0  0  0  0  0
   12.3352    1.7145   -2.0660 H   0  0  0  0  0  0  0  0  0  0  0  0
   12.0913    3.4822   -1.8635 H   0  0  0  0  0  0  0  0  0  0  0  0
    9.9957    5.4116    0.7199 H   0  0  0  0  0  0  0  0  0  0  0  0
    9.6181    4.1854   -1.9470 H   0  0  0  0  0  0  0  0  0  0  0  0
    8.1305    6.4886   -0.5561 H   0  0  0  0  0  0  0  0  0  0  0  0
    9.5690    6.6240   -1.6314 H   0  0  0  0  0  0  0  0  0  0  0  0
    8.0011    6.0389   -2.2898 H   0  0  0  0  0  0  0  0  0  0  0  0
    7.8927    2.2065    0.6500 H   0  0  0  0  0  0  0  0  0  0  0  0
    6.4035    3.0439    2.2019 H   0  0  0  0  0  0  0  0  0  0  0  0
    6.4208    6.6358    1.1593 H   0  0  0  0  0  0  0  0  0  0  0  0
    7.7187    7.0441    2.2996 H   0  0  0  0  0  0  0  0  0  0  0  0
    4.9060    3.3203    0.2035 H   0  0  0  0  0  0  0  0  0  0  0  0
    5.4983    4.9803   -0.0197 H   0  0  0  0  0  0  0  0  0  0  0  0
    2.9138    3.2857    3.3576 H   0  0  0  0  0  0  0  0  0  0  0  0
    4.0474    2.4032    2.3089 H   0  0  0  0  0  0  0  0  0  0  0  0
  1  2  1  0
  2  3  2  0
  2  4  1  0
  4  5  1  0
  5  6  1  0
  6  7  1  0
  7  8  1  0
  8  9  1  0
  9 10  1  0
 10 11  2  0
 11 12  1  0
 12 13  2  0
 13 14  1  0
 13 15  1  0
 15 16  1  0
 16 17  1  0
 17 18  1  0
 18 19  1  0
 19 20  1  0
 20 21  2  0
 20 22  1  0
 22 23  1  0
 22 24  1  0
 24 25  1  0
 25 26  2  0
 25 27  1  0
 27 28  1  0
 27 29  1  0
 29 30  1  0
 30 31  2  0
 30 32  1  0
 32 33  1  0
 32 34  1  0
 34 35  1  0
 35 36  2  0
 35 37  1  0
 37 38  1  0
 37 39  1  0
 39 40  1  0
 40 41  2  0
 40 42  1  0
 42 43  1  0
 42 44  1  0
 44 45  1  0
 45 46  2  0
 45 47  1  0
 47 48  1  0
 47 49  1  0
 49 50  1  0
 50 51  2  0
 50 52  1  0
 52 53  1  0
 52 54  1  0
 54 55  1  0
 55 56  2  0
 55 57  1  0
 57 58  1  0
 57 59  1  0
 59 60  1  0
 60 61  2  0
 60 62  1  0
 62 63  1  0
 62 64  1  0
 64 65  1  0
 65 66  2  0
 18 67  1  0
 67 68  2  0
 67 69  1  0
 69 70  1  0
 70 71  1  0
 70 72  1  0
 72 73  2  0
 72 74  1  0
 74 75  1  0
 75 76  1  0
 75 77  1  0
 77 78  2  0
 77 79  1  0
 79 80  1  0
 80 81  1  0
 80 82  1  0
 82 83  2  0
 82 84  1  0
 84 85  1  0
 85 86  1  0
 85 87  1  0
 87 88  2  0
 87 89  1  0
 89 90  1  0
 90 91  1  0
 90 92  1  0
 92 93  2  0
 92 94  1  0
 94 95  1  0
 95 96  1  0
 95 97  1  0
 97 98  2  0
 97 99  1  0
 99100  1  0
100101  1  0
101102  1  0
101103  2  0
100104  1  0
104105  1  0
105106  1  0
 65  5  1  0
 14  9  2  0
106 11  1  0
  1107  1  0
  1108  1  0
  1109  1  0
  4110  1  0
  5111  1  6
  6112  1  0
  6113  1  0
  8114  1  0
  8115  1  0
 10116  1  0
 12117  1  0
 14118  1  0
 15119  1  0
 15120  1  0
 17121  1  0
 17122  1  0
 18123  1  6
 19124  1  0
 22125  1  6
 23126  1  0
 23127  1  0
 23128  1  0
 24129  1  0
 27130  1  6
 28131  1  0
 28132  1  0
 28133  1  0
 29134  1  0
 32135  1  6
 33136  1  0
 33137  1  0
 33138  1  0
 34139  1  0
 37140  1  6
 38141  1  0
 38142  1  0
 38143  1  0
 39144  1  0
 42145  1  6
 43146  1  0
 43147  1  0
 43148  1  0
 44149  1  0
 47150  1  1
 48151  1  0
 48152  1  0
 48153  1  0
 49154  1  0
 52155  1  6
 53156  1  0
 53157  1  0
 53158  1  0
 54159  1  0
 57160  1  6
 58161  1  0
 58162  1  0
 58163  1  0
 59164  1  0
 62165  1  6
 63166  1  0
 63167  1  0
 63168  1  0
 64169  1  0
 69170  1  0
 70171  1  1
 71172  1  0
 71173  1  0
 71174  1  0
 74175  1  0
 75176  1  1
 76177  1  0
 76178  1  0
 76179  1  0
 79180  1  0
 80181  1  6
 81182  1  0
 81183  1  0
 81184  1  0
 84185  1  0
 85186  1  6
 86187  1  0
 86188  1  0
 86189  1  0
 89190  1  0
 90191  1  6
 91192  1  0
 91193  1  0
 91194  1  0
 94195  1  0
 95196  1  6
 96197  1  0
 96198  1  0
 96199  1  0
 99200  1  0
100201  1  1
102202  1  0
102203  1  0
104204  1  0
104205  1  0
106206  1  0
106207  1  0
M  END
