
     RDKit          3D

197199  0  0  0  0  0  0  0  0999 V2000
   -0.6166    7.0791    4.5609 C   0  0  0  0  0  0  0  0  0  0  0  0
   -1.3441    7.8784    3.5157 C   0  0  0  0  0  0  0  0  0  0  0  0
   -1.4021    9.1245    3.6699 O   0  0  0  0  0  0  0  0  0  0  0  0
   -2.0136    7.2883    2.3771 N   0  0  0  0  0  0  0  0  0  0  0  0
   -1.7564    5.9499    1.8212 C   0  0  2  0  0  0  0  0  0  0  0  0
   -0.6176    6.0306    0.7820 C   0  0  0  0  0  0  0  0  0  0  0  0
    1.0025    6.4282    1.5481 S   0  0  0  0  0  0  0  0  0  0  0  0
    1.4212    4.7428    2.1280 C   0  0  0  0  0  0  0  0  0  0  0  0
    1.7110    3.8267    0.9689 C   0  0  0  0  0  0  0  0  0  0  0  0
    2.7817    4.0965    0.1128 C   0  0  0  0  0  0  0  0  0  0  0  0
    3.0568    3.2649   -0.9794 C   0  0  0  0  0  0  0  0  0  0  0  0
    2.2457    2.1404   -1.2041 C   0  0  0  0  0  0  0  0  0  0  0  0
    1.2375    1.7847   -0.2892 C   0  0  0  0  0  0  0  0  0  0  0  0
    0.9523    2.6635    0.7709 C   0  0  0  0  0  0  0  0  0  0  0  0
    0.4382    0.5084   -0.4115 C   0  0  0  0  0  0  0  0  0  0  0  0
    1.3058   -0.8688   -1.2584 S   0  0  0  0  0  0  0  0  0  0  0  0
    2.7570   -0.9851   -0.1461 C   0  0  0  0  0  0  0  0  0  0  0  0
    2.6409   -2.1735    0.8191 C   0  0  2  0  0  0  0  0  0  0  0  0
    1.4806   -2.0061    1.7031 N   0  0  0  0  0  0  0  0  0  0  0  0
    0.6457   -3.0892    2.1494 C   0  0  0  0  0  0  0  0  0  0  0  0
    0.1894   -3.0541    3.3201 O   0  0  0  0  0  0  0  0  0  0  0  0
    0.3455   -4.2833    1.2744 C   0  0  1  0  0  0  0  0  0  0  0  0
    1.2249   -5.4613    1.7038 C   0  0  0  0  0  0  0  0  0  0  0  0
   -1.0705   -4.6680    1.3518 N   0  0  0  0  0  0  0  0  0  0  0  0
   -1.6325   -5.5937    0.4100 C   0  0  0  0  0  0  0  0  0  0  0  0
   -1.2975   -5.5186   -0.8063 O   0  0  0  0  0  0  0  0  0  0  0  0
   -2.5164   -6.7413    0.8539 C   0  0  1  0  0  0  0  0  0  0  0  0
   -2.9461   -6.6309    2.3260 C   0  0  0  0  0  0  0  0  0  0  0  0
   -3.6583   -6.8802   -0.0676 N   0  0  0  0  0  0  0  0  0  0  0  0
   -5.0345   -6.7147    0.3016 C   0  0  0  0  0  0  0  0  0  0  0  0
   -5.5741   -7.5685    1.0536 O   0  0  0  0  0  0  0  0  0  0  0  0
   -5.8343   -5.5285   -0.1748 C   0  0  1  0  0  0  0  0  0  0  0  0
   -5.4723   -4.2957    0.6497 C   0  0  0  0  0  0  0  0  0  0  0  0
   -5.5722   -5.2669   -1.5992 N   0  0  0  0  0  0  0  0  0  0  0  0
   -6.5775   -4.9040   -2.5666 C   0  0  0  0  0  0  0  0  0  0  0  0
   -6.2496   -4.1555   -3.5266 O   0  0  0  0  0  0  0  0  0  0  0  0
   -7.9899   -5.4472   -2.5473 C   0  0  1  0  0  0  0  0  0  0  0  0
   -8.0171   -6.9838   -2.5396 C   0  0  0  0  0  0  0  0  0  0  0  0
   -8.7618   -4.8925   -1.4311 N   0  0  0  0  0  0  0  0  0  0  0  0
   -9.2244   -3.5368   -1.4835 C   0  0  0  0  0  0  0  0  0  0  0  0
   -8.3854   -2.6021   -1.6175 O   0  0  0  0  0  0  0  0  0  0  0  0
  -10.6929   -3.1865   -1.4186 C   0  0  1  0  0  0  0  0  0  0  0  0
  -11.6072   -4.4145   -1.3132 C   0  0  0  0  0  0  0  0  0  0  0  0
  -10.9582   -2.2705   -0.2987 N   0  0  0  0  0  0  0  0  0  0  0  0
  -11.8554   -1.1537   -0.4337 C   0  0  0  0  0  0  0  0  0  0  0  0
  -12.6015   -1.0699   -1.4433 O   0  0  0  0  0  0  0  0  0  0  0  0
  -11.8820   -0.0357    0.5885 C   0  0  1  0  0  0  0  0  0  0  0  0
  -12.1114   -0.5593    2.0092 C   0  0  0  0  0  0  0  0  0  0  0  0
  -10.6444    0.7516    0.5113 N   0  0  0  0  0  0  0  0  0  0  0  0
  -10.4691    1.7350   -0.5158 C   0  0  0  0  0  0  0  0  0  0  0  0
  -10.9150    1.5136   -1.6770 O   0  0  0  0  0  0  0  0  0  0  0  0
   -9.7276    3.0203   -0.2387 C   0  0  1  0  0  0  0  0  0  0  0  0
  -10.3674    3.7639    0.9352 C   0  0  0  0  0  0  0  0  0  0  0  0
   -8.3067    2.7609    0.0126 N   0  0  0  0  0  0  0  0  0  0  0  0
   -7.4036    3.8162    0.3754 C   0  0  0  0  0  0  0  0  0  0  0  0
   -7.1043    3.9618    1.5949 O   0  0  0  0  0  0  0  0  0  0  0  0
   -6.6544    4.6223   -0.6646 C   0  0  1  0  0  0  0  0  0  0  0  0
   -7.3670    4.6891   -2.0172 C   0  0  0  0  0  0  0  0  0  0  0  0
   -6.4537    5.9915   -0.1718 N   0  0  0  0  0  0  0  0  0  0  0  0
   -5.2174    6.7137   -0.2382 C   0  0  0  0  0  0  0  0  0  0  0  0
   -5.1225    7.7980    0.3952 O   0  0  0  0  0  0  0  0  0  0  0  0
   -4.0232    6.1822   -1.0034 C   0  0  1  0  0  0  0  0  0  0  0  0
   -3.1364    7.3125   -1.5387 C   0  0  0  0  0  0  0  0  0  0  0  0
   -3.2193    5.2606   -0.1873 N   0  0  0  0  0  0  0  0  0  0  0  0
   -3.0397    5.4216    1.2263 C   0  0  0  0  0  0  0  0  0  0  0  0
   -3.9877    5.1146    2.0019 O   0  0  0  0  0  0  0  0  0  0  0  0
    3.8942   -2.2498    1.6632 C   0  0  0  0  0  0  0  0  0  0  0  0
    4.1109   -1.3397    2.5127 O   0  0  0  0  0  0  0  0  0  0  0  0
    4.8209   -3.3451    1.5983 N   0  0  0  0  0  0  0  0  0  0  0  0
    4.9884   -4.2209    0.4311 C   0  0  2  0  0  0  0  0  0  0  0  0
    5.9227   -5.3933    0.7773 C   0  0  0  0  0  0  0  0  0  0  0  0
    5.5448   -3.4522   -0.7449 C   0  0  0  0  0  0  0  0  0  0  0  0
    4.8354   -3.3090   -1.7811 O   0  0  0  0  0  0  0  0  0  0  0  0
    6.8067   -2.7699   -0.6483 N   0  0  0  0  0  0  0  0  0  0  0  0
    7.9768   -3.0901   -1.4722 C   0  0  2  0  0  0  0  0  0  0  0  0
    7.6000   -3.6184   -2.8685 C   0  0  0  0  0  0  0  0  0  0  0  0
    8.8438   -4.0739   -0.7265 C   0  0  0  0  0  0  0  0  0  0  0  0
    8.6620   -5.3108   -0.8710 O   0  0  0  0  0  0  0  0  0  0  0  0
    9.7643   -3.6197    0.2711 N   0  0  0  0  0  0  0  0  0  0  0  0
   10.8950   -2.7490   -0.0668 C   0  0  2  0  0  0  0  0  0  0  0  0
   12.1340   -3.6102   -0.3246 C   0  0  0  0  0  0  0  0  0  0  0  0
   11.1710   -1.7941    1.0720 C   0  0  0  0  0  0  0  0  0  0  0  0
   11.3231   -2.2742    2.2299 O   0  0  0  0  0  0  0  0  0  0  0  0
   11.3033   -0.3704    0.9039 N   0  0  0  0  0  0  0  0  0  0  0  0
   11.1278    0.3677   -0.3591 C   0  0  2  0  0  0  0  0  0  0  0  0
   12.3318    0.1389   -1.2857 C   0  0  0  0  0  0  0  0  0  0  0  0
   10.9869    1.8605   -0.1236 C   0  0  0  0  0  0  0  0  0  0  0  0
   11.4065    2.3757    0.9460 O   0  0  0  0  0  0  0  0  0  0  0  0
   10.5183    2.7378   -1.1604 N   0  0  0  0  0  0  0  0  0  0  0  0
    9.2830    2.4997   -1.9194 C   0  0  2  0  0  0  0  0  0  0  0  0
    9.5848    1.7869   -3.2396 C   0  0  0  0  0  0  0  0  0  0  0  0
    8.5986    3.8290   -2.1803 C   0  0  0  0  0  0  0  0  0  0  0  0
    8.9895    4.5499   -3.1419 O   0  0  0  0  0  0  0  0  0  0  0  0
    7.5539    4.3335   -1.3294 N   0  0  0  0  0  0  0  0  0  0  0  0
    7.2663    3.8160    0.0155 C   0  0  1  0  0  0  0  0  0  0  0  0
    6.9136    4.9616    0.9355 C   0  0  0  0  0  0  0  0  0  0  0  0
    7.6555    5.2057    2.1354 N   0  0  0  0  0  0  0  0  0  0  0  0
    5.9315    5.6977    0.6571 O   0  0  0  0  0  0  0  0  0  0  0  0
    6.1383    2.7461    0.0303 C   0  0  0  0  0  0  0  0  0  0  0  0
    5.5340    2.2241   -1.6267 S   0  0  0  0  0  0  0  0  0  0  0  0
    4.2582    3.5215   -1.8481 C   0  0  0  0  0  0  0  0  0  0  0  0
   -0.7101    5.9899    4.4231 H   0  0  0  0  0  0  0  0  0  0  0  0
    0.4542    7.3506    4.5461 H   0  0  0  0  0  0  0  0  0  0  0  0
   -1.0267    7.3289    5.5576 H   0  0  0  0  0  0  0  0  0  0  0  0
   -2.5292    7.9592    1.7620 H   0  0  0  0  0  0  0  0  0  0  0  0
   -1.4660    5.2268    2.6033 H   0  0  0  0  0  0  0  0  0  0  0  0
   -0.5349    5.0880    0.2067 H   0  0  0  0  0  0  0  0  0  0  0  0
   -0.8346    6.8393    0.0547 H   0  0  0  0  0  0  0  0  0  0  0  0
    2.3334    4.8168    2.7589 H   0  0  0  0  0  0  0  0  0  0  0  0
    0.6131    4.3495    2.7859 H   0  0  0  0  0  0  0  0  0  0  0  0
    3.3811    4.9858    0.2765 H   0  0  0  0  0  0  0  0  0  0  0  0
    2.4495    1.5135   -2.0596 H   0  0  0  0  0  0  0  0  0  0  0  0
    0.1514    2.4268    1.4641 H   0  0  0  0  0  0  0  0  0  0  0  0
    0.1570    0.1592    0.5992 H   0  0  0  0  0  0  0  0  0  0  0  0
   -0.4972    0.7279   -0.9614 H   0  0  0  0  0  0  0  0  0  0  0  0
    3.6363   -1.1511   -0.8019 H   0  0  0  0  0  0  0  0  0  0  0  0
    2.9521   -0.0492    0.4058 H   0  0  0  0  0  0  0  0  0  0  0  0
    2.5400   -3.0845    0.2041 H   0  0  0  0  0  0  0  0  0  0  0  0
    1.4189   -1.1129    2.2386 H   0  0  0  0  0  0  0  0  0  0  0  0
    0.5689   -4.0296    0.2193 H   0  0  0  0  0  0  0  0  0  0  0  0
    0.9589   -5.7853    2.7323 H   0  0  0  0  0  0  0  0  0  0  0  0
    2.2902   -5.1723    1.6864 H   0  0  0  0  0  0  0  0  0  0  0  0
    1.0777   -6.3191    1.0136 H   0  0  0  0  0  0  0  0  0  0  0  0
   -1.7472   -4.0813    1.9060 H   0  0  0  0  0  0  0  0  0  0  0  0
   -1.9042   -7.6656    0.7702 H   0  0  0  0  0  0  0  0  0  0  0  0
   -3.4795   -7.5548    2.6315 H   0  0  0  0  0  0  0  0  0  0  0  0
   -2.0551   -6.5324    2.9828 H   0  0  0  0  0  0  0  0  0  0  0  0
   -3.6114   -5.7569    2.4829 H   0  0  0  0  0  0  0  0  0  0  0  0
   -3.4469   -6.9850   -1.0850 H   0  0  0  0  0  0  0  0  0  0  0  0
   -6.9077   -5.7466   -0.0105 H   0  0  0  0  0  0  0  0  0  0  0  0
   -4.3740   -4.1040    0.5996 H   0  0  0  0  0  0  0  0  0  0  0  0
   -6.0045   -3.4097    0.2522 H   0  0  0  0  0  0  0  0  0  0  0  0
   -5.7632   -4.4440    1.7111 H   0  0  0  0  0  0  0  0  0  0  0  0
   -4.5820   -5.0485   -1.8616 H   0  0  0  0  0  0  0  0  0  0  0  0
   -8.4939   -5.1398   -3.4915 H   0  0  0  0  0  0  0  0  0  0  0  0
   -7.4860   -7.3949   -1.6581 H   0  0  0  0  0  0  0  0  0  0  0  0
   -9.0685   -7.3358   -2.5223 H   0  0  0  0  0  0  0  0  0  0  0  0
   -7.5384   -7.3706   -3.4639 H   0  0  0  0  0  0  0  0  0  0  0  0
   -9.2273   -5.5409   -0.7593 H   0  0  0  0  0  0  0  0  0  0  0  0
  -10.9368   -2.6841   -2.3793 H   0  0  0  0  0  0  0  0  0  0  0  0
  -11.4090   -5.1140   -2.1567 H   0  0  0  0  0  0  0  0  0  0  0  0
  -12.6696   -4.0988   -1.3750 H   0  0  0  0  0  0  0  0  0  0  0  0
  -11.4596   -4.9530   -0.3515 H   0  0  0  0  0  0  0  0  0  0  0  0
  -10.4120   -2.3961    0.5832 H   0  0  0  0  0  0  0  0  0  0  0  0
  -12.7414    0.6283    0.3527 H   0  0  0  0  0  0  0  0  0  0  0  0
  -13.0799   -1.0981    2.0649 H   0  0  0  0  0  0  0  0  0  0  0  0
  -11.3018   -1.2439    2.3376 H   0  0  0  0  0  0  0  0  0  0  0  0
  -12.1455    0.2979    2.7194 H   0  0  0  0  0  0  0  0  0  0  0  0
   -9.9976    0.7726    1.3318 H   0  0  0  0  0  0  0  0  0  0  0  0
   -9.8226    3.6710   -1.1359 H   0  0  0  0  0  0  0  0  0  0  0  0
  -11.4601    3.8836    0.7725 H   0  0  0  0  0  0  0  0  0  0  0  0
  -10.2096    3.2119    1.8892 H   0  0  0  0  0  0  0  0  0  0  0  0
   -9.9260    4.7829    1.0335 H   0  0  0  0  0  0  0  0  0  0  0  0
   -7.9920    1.7864    0.2245 H   0  0  0  0  0  0  0  0  0  0  0  0
   -5.6828    4.1100   -0.8149 H   0  0  0  0  0  0  0  0  0  0  0  0
   -8.2968    5.2865   -1.9376 H   0  0  0  0  0  0  0  0  0  0  0  0
   -6.7056    5.1853   -2.7595 H   0  0  0  0  0  0  0  0  0  0  0  0
   -7.5964    3.6743   -2.4035 H   0  0  0  0  0  0  0  0  0  0  0  0
   -7.2838    6.4891    0.2315 H   0  0  0  0  0  0  0  0  0  0  0  0
   -4.3840    5.6294   -1.8964 H   0  0  0  0  0  0  0  0  0  0  0  0
   -2.7669    7.9544   -0.7089 H   0  0  0  0  0  0  0  0  0  0  0  0
   -2.2638    6.8830   -2.0765 H   0  0  0  0  0  0  0  0  0  0  0  0
   -3.7122    7.9408   -2.2470 H   0  0  0  0  0  0  0  0  0  0  0  0
   -2.6097    4.5746   -0.6934 H   0  0  0  0  0  0  0  0  0  0  0  0
    5.4863   -3.4439    2.3969 H   0  0  0  0  0  0  0  0  0  0  0  0
    4.0243   -4.6765    0.1548 H   0  0  0  0  0  0  0  0  0  0  0  0
    6.1231   -5.9986   -0.1295 H   0  0  0  0  0  0  0  0  0  0  0  0
    5.4461   -6.0437    1.5337 H   0  0  0  0  0  0  0  0  0  0  0  0
    6.8846   -5.0161    1.1866 H   0  0  0  0  0  0  0  0  0  0  0  0
    6.9978   -2.2294    0.2291 H   0  0  0  0  0  0  0  0  0  0  0  0
    8.5411   -2.1518   -1.6358 H   0  0  0  0  0  0  0  0  0  0  0  0
    8.5141   -3.8089   -3.4679 H   0  0  0  0  0  0  0  0  0  0  0  0
    6.9758   -2.8673   -3.4021 H   0  0  0  0  0  0  0  0  0  0  0  0
    7.0238   -4.5678   -2.7875 H   0  0  0  0  0  0  0  0  0  0  0  0
    9.8192   -4.1840    1.1434 H   0  0  0  0  0  0  0  0  0  0  0  0
   10.6784   -2.1962   -0.9939 H   0  0  0  0  0  0  0  0  0  0  0  0
   13.0092   -2.9738   -0.5830 H   0  0  0  0  0  0  0  0  0  0  0  0
   11.9391   -4.3078   -1.1696 H   0  0  0  0  0  0  0  0  0  0  0  0
   12.3954   -4.2072    0.5770 H   0  0  0  0  0  0  0  0  0  0  0  0
   11.5165    0.1583    1.7817 H   0  0  0  0  0  0  0  0  0  0  0  0
   10.1964    0.0139   -0.8460 H   0  0  0  0  0  0  0  0  0  0  0  0
   12.2436    0.7616   -2.2045 H   0  0  0  0  0  0  0  0  0  0  0  0
   13.2752    0.4155   -0.7700 H   0  0  0  0  0  0  0  0  0  0  0  0
   12.4098   -0.9148   -1.6104 H   0  0  0  0  0  0  0  0  0  0  0  0
   10.9361    3.6964   -1.1729 H   0  0  0  0  0  0  0  0  0  0  0  0
    8.6006    1.8522   -1.3358 H   0  0  0  0  0  0  0  0  0  0  0  0
   10.3503    2.3440   -3.8253 H   0  0  0  0  0  0  0  0  0  0  0  0
    9.9582    0.7596   -3.0533 H   0  0  0  0  0  0  0  0  0  0  0  0
    8.6626    1.6974   -3.8506 H   0  0  0  0  0  0  0  0  0  0  0  0
    7.0193    5.1631   -1.6689 H   0  0  0  0  0  0  0  0  0  0  0  0
    8.1928    3.3415    0.4227 H   0  0  0  0  0  0  0  0  0  0  0  0
    7.3387    5.9545    2.7912 H   0  0  0  0  0  0  0  0  0  0  0  0
    8.4971    4.6301    2.3884 H   0  0  0  0  0  0  0  0  0  0  0  0
    5.2719    3.0547    0.6580 H   0  0  0  0  0  0  0  0  0  0  0  0
    6.5272    1.8304    0.5191 H   0  0  0  0  0  0  0  0  0  0  0  0
    4.6935    4.5267   -1.6446 H   0  0  0  0  0  0  0  0  0  0  0  0
    3.9440    3.5089   -2.9103 H   0  0  0  0  0  0  0  0  0  0  0  0
  1  2  1  0
  2  3  2  0
  2  4  1  0
  4  5  1  0
  5  6  1  0
  6  7  1  0
  7  8  1  0
  8  9  1  0
  9 10  1  0
 10 11  2  0
 11 12  1  0
 12 13  2  0
 13 14  1  0
 13 15  1  0
 15 16  1  0
 16 17  1  0
 17 18  1  0
 18 19  1  0
 19 20  1  0
 20 21  2  0
 20 22  1  0
 22 23  1  0
 22 24  1  0
 24 25  1  0
 25 26  2  0
 25 27  1  0
 27 28  1  0
 27 29  1  0
 29 30  1  0
 30 31  2  0
 30 32  1  0
 32 33  1  0
 32 34  1  0
 34 35  1  0
 35 36  2  0
 35 37  1  0
 37 38  1  0
 37 39  1  0
 39 40  1  0
 40 41  2  0
 40 42  1  0
 42 43  1  0
 42 44  1  0
 44 45  1  0
 45 46  2  0
 45 47  1  0
 47 48  1  0
 47 49  1  0
 49 50  1  0
 50 51  2  0
 50 52  1  0
 52 53  1  0
 52 54  1  0
 54 55  1  0
 55 56  2  0
 55 57  1  0
 57 58  1  0
 57 59  1  0
 59 60  1  0
 60 61  2  0
 60 62  1  0
 62 63  1  0
 62 64  1  0
 64 65  1  0
 65 66  2  0
 18 67  1  0
 67 68  2  0
 67 69  1  0
 69 70  1  0
 70 71  1  0
 70 72  1  0
 72 73  2  0
 72 74  1  0
 74 75  1  0
 75 76  1  0
 75 77  1  0
 77 78  2  0
 77 79  1  0
 79 80  1  0
 80 81  1  0
 80 82  1  0
 82 83  2  0
 82 84  1  0
 84 85  1  0
 85 86  1  0
 85 87  1  0
 87 88  2  0
 87 89  1  0
 89 90  1  0
 90 91  1  0
 90 92  1  0
 92 93  2  0
 92 94  1  0
 94 95  1  0
 95 96  1  0
 96 97  1  0
 96 98  2  0
 95 99  1  0
 99100  1  0
100101  1  0
 65  5  1  0
 14  9  2  0
101 11  1  0
  1102  1  0
  1103  1  0
  1104  1  0
  4105  1  0
  5106  1  1
  6107  1  0
  6108  1  0
  8109  1  0
  8110  1  0
 10111  1  0
 12112  1  0
 14113  1  0
 15114  1  0
 15115  1  0
 17116  1  0
 17117  1  0
 18118  1  6
 19119  1  0
 22120  1  6
 23121  1  0
 23122  1  0
 23123  1  0
 24124  1  0
 27125  1  1
 28126  1  0
 28127  1  0
 28128  1  0
 29129  1  0
 32130  1  6
 33131  1  0
 33132  1  0
 33133  1  0
 34134  1  0
 37135  1  6
 38136  1  0
 38137  1  0
 38138  1  0
 39139  1  0
 42140  1  6
 43141  1  0
 43142  1  0
 43143  1  0
 44144  1  0
 47145  1  6
 48146  1  0
 48147  1  0
 48148  1  0
 49149  1  0
 52150  1  6
 53151  1  0
 53152  1  0
 53153  1  0
 54154  1  0
 57155  1  6
 58156  1  0
 58157  1  0
 58158  1  0
 59159  1  0
 62160  1  6
 63161  1  0
 63162  1  0
 63163  1  0
 64164  1  0
 69165  1  0
 70166  1  6
 71167  1  0
 71168  1  0
 71169  1  0
 74170  1  0
 75171  1  6
 76172  1  0
 76173  1  0
 76174  1  0
 79175  1  0
 80176  1  6
 81177  1  0
 81178  1  0
 81179  1  0
 84180  1  0
 85181  1  6
 86182  1  0
 86183  1  0
 86184  1  0
 89185  1  0
 90186  1  1
 91187  1  0
 91188  1  0
 91189  1  0
 94190  1  0
 95191  1  1
 97192  1  0
 97193  1  0
 99194  1  0
 99195  1  0
101196  1  0
101197  1  0
M  END
