
     RDKit          3D

197199  0  0  0  0  0  0  0  0999 V2000
    0.9469  -10.4386    0.0043 C   0  0  0  0  0  0  0  0  0  0  0  0
    1.7523   -9.2454   -0.4055 C   0  0  0  0  0  0  0  0  0  0  0  0
    2.0188   -9.0864   -1.6249 O   0  0  0  0  0  0  0  0  0  0  0  0
    2.2457   -8.3240    0.5871 N   0  0  0  0  0  0  0  0  0  0  0  0
    2.9634   -7.0712    0.2950 C   0  0  2  0  0  0  0  0  0  0  0  0
    2.1021   -6.1197   -0.5607 C   0  0  0  0  0  0  0  0  0  0  0  0
    0.7471   -5.4055    0.4374 S   0  0  0  0  0  0  0  0  0  0  0  0
   -0.1452   -4.6804   -0.9842 C   0  0  0  0  0  0  0  0  0  0  0  0
   -1.1231   -3.6329   -0.5190 C   0  0  0  0  0  0  0  0  0  0  0  0
   -2.2126   -3.9862    0.2953 C   0  0  0  0  0  0  0  0  0  0  0  0
   -3.1344   -3.0152    0.7167 C   0  0  0  0  0  0  0  0  0  0  0  0
   -2.9573   -1.6818    0.3130 C   0  0  0  0  0  0  0  0  0  0  0  0
   -1.8630   -1.3090   -0.4857 C   0  0  0  0  0  0  0  0  0  0  0  0
   -0.9622   -2.2955   -0.9123 C   0  0  0  0  0  0  0  0  0  0  0  0
   -1.7037    0.1158   -0.9511 C   0  0  0  0  0  0  0  0  0  0  0  0
   -1.9767    1.2961    0.4331 S   0  0  0  0  0  0  0  0  0  0  0  0
   -3.2665    2.3414   -0.3485 C   0  0  0  0  0  0  0  0  0  0  0  0
   -2.6809    3.7147   -0.7137 C   0  0  2  0  0  0  0  0  0  0  0  0
   -2.3707    4.4832    0.4993 N   0  0  0  0  0  0  0  0  0  0  0  0
   -1.4317    5.5710    0.5852 C   0  0  0  0  0  0  0  0  0  0  0  0
   -1.2281    6.0936    1.7156 O   0  0  0  0  0  0  0  0  0  0  0  0
   -0.7344    6.1666   -0.6225 C   0  0  1  0  0  0  0  0  0  0  0  0
   -1.4133    7.4906   -0.9985 C   0  0  0  0  0  0  0  0  0  0  0  0
    0.6851    6.3994   -0.3292 N   0  0  0  0  0  0  0  0  0  0  0  0
    1.5965    6.8864   -1.3292 C   0  0  0  0  0  0  0  0  0  0  0  0
    1.3687    6.6470   -2.5478 O   0  0  0  0  0  0  0  0  0  0  0  0
    2.7931    7.7326   -0.9676 C   0  0  1  0  0  0  0  0  0  0  0  0
    2.5410    9.1895   -1.3698 C   0  0  0  0  0  0  0  0  0  0  0  0
    3.0791    7.6737    0.4725 N   0  0  0  0  0  0  0  0  0  0  0  0
    4.2659    7.1294    1.0759 C   0  0  0  0  0  0  0  0  0  0  0  0
    4.4168    7.2560    2.3212 O   0  0  0  0  0  0  0  0  0  0  0  0
    5.3523    6.4480    0.2771 C   0  0  1  0  0  0  0  0  0  0  0  0
    6.3226    7.4987   -0.2843 C   0  0  0  0  0  0  0  0  0  0  0  0
    6.0386    5.4427    1.1012 N   0  0  0  0  0  0  0  0  0  0  0  0
    7.2531    5.6906    1.8179 C   0  0  0  0  0  0  0  0  0  0  0  0
    7.2020    6.1582    2.9855 O   0  0  0  0  0  0  0  0  0  0  0  0
    8.5707    5.2946    1.2101 C   0  0  1  0  0  0  0  0  0  0  0  0
    9.6399    6.3662    1.4272 C   0  0  0  0  0  0  0  0  0  0  0  0
    9.0087    4.0235    1.7813 N   0  0  0  0  0  0  0  0  0  0  0  0
    8.6998    2.7816    1.1435 C   0  0  0  0  0  0  0  0  0  0  0  0
    7.6562    2.1578    1.4835 O   0  0  0  0  0  0  0  0  0  0  0  0
    9.6396    2.1670    0.1394 C   0  0  1  0  0  0  0  0  0  0  0  0
    9.9055    3.1157   -1.0304 C   0  0  0  0  0  0  0  0  0  0  0  0
   10.9055    1.8120    0.7935 N   0  0  0  0  0  0  0  0  0  0  0  0
   11.6974    0.6546    0.4764 C   0  0  0  0  0  0  0  0  0  0  0  0
   12.5882    0.2864    1.2903 O   0  0  0  0  0  0  0  0  0  0  0  0
   11.5529   -0.1054   -0.8257 C   0  0  1  0  0  0  0  0  0  0  0  0
   12.8070    0.0910   -1.6790 C   0  0  0  0  0  0  0  0  0  0  0  0
   11.3205   -1.5304   -0.5695 N   0  0  0  0  0  0  0  0  0  0  0  0
   10.0826   -2.0034   -0.0166 C   0  0  0  0  0  0  0  0  0  0  0  0
    9.3996   -1.2529    0.7307 O   0  0  0  0  0  0  0  0  0  0  0  0
    9.5678   -3.3802   -0.3427 C   0  0  1  0  0  0  0  0  0  0  0  0
    9.5045   -3.5851   -1.8583 C   0  0  0  0  0  0  0  0  0  0  0  0
   10.4036   -4.4097    0.2800 N   0  0  0  0  0  0  0  0  0  0  0  0
    9.9089   -5.6900    0.7236 C   0  0  0  0  0  0  0  0  0  0  0  0
   10.7175   -6.4810    1.2830 O   0  0  0  0  0  0  0  0  0  0  0  0
    8.4462   -6.0884    0.5874 C   0  0  1  0  0  0  0  0  0  0  0  0
    8.2606   -7.6088    0.7117 C   0  0  0  0  0  0  0  0  0  0  0  0
    7.6409   -5.4060    1.6056 N   0  0  0  0  0  0  0  0  0  0  0  0
    6.2022   -5.3404    1.6000 C   0  0  0  0  0  0  0  0  0  0  0  0
    5.5946   -5.4687    2.6997 O   0  0  0  0  0  0  0  0  0  0  0  0
    5.3682   -5.0901    0.3551 C   0  0  1  0  0  0  0  0  0  0  0  0
    5.8536   -3.8847   -0.4508 C   0  0  0  0  0  0  0  0  0  0  0  0
    5.2989   -6.2884   -0.4885 N   0  0  0  0  0  0  0  0  0  0  0  0
    4.3136   -7.3285   -0.3523 C   0  0  0  0  0  0  0  0  0  0  0  0
    4.5749   -8.4604   -0.8332 O   0  0  0  0  0  0  0  0  0  0  0  0
   -3.6111    4.4837   -1.6260 C   0  0  0  0  0  0  0  0  0  0  0  0
   -3.1305    5.0291   -2.6559 O   0  0  0  0  0  0  0  0  0  0  0  0
   -5.0390    4.4723   -1.4637 N   0  0  0  0  0  0  0  0  0  0  0  0
   -5.7892    5.2187   -0.4444 C   0  0  2  0  0  0  0  0  0  0  0  0
   -5.0848    6.5124   -0.0108 C   0  0  0  0  0  0  0  0  0  0  0  0
   -6.1431    4.3187    0.7199 C   0  0  0  0  0  0  0  0  0  0  0  0
   -5.4438    4.3550    1.7691 O   0  0  0  0  0  0  0  0  0  0  0  0
   -7.2393    3.3883    0.6530 N   0  0  0  0  0  0  0  0  0  0  0  0
   -8.2999    3.4284   -0.3630 C   0  0  2  0  0  0  0  0  0  0  0  0
   -9.3179    4.5226   -0.0242 C   0  0  0  0  0  0  0  0  0  0  0  0
   -8.9543    2.0719   -0.4952 C   0  0  0  0  0  0  0  0  0  0  0  0
   -8.8404    1.4378   -1.5765 O   0  0  0  0  0  0  0  0  0  0  0  0
   -9.6562    1.4609    0.5989 N   0  0  0  0  0  0  0  0  0  0  0  0
  -11.0488    1.7874    0.9370 C   0  0  2  0  0  0  0  0  0  0  0  0
  -11.5445    0.9228    2.1014 C   0  0  0  0  0  0  0  0  0  0  0  0
  -11.9684    1.6843   -0.2602 C   0  0  0  0  0  0  0  0  0  0  0  0
  -12.9030    2.5280   -0.3679 O   0  0  0  0  0  0  0  0  0  0  0  0
  -11.7960    0.7163   -1.3108 N   0  0  0  0  0  0  0  0  0  0  0  0
  -11.4209   -0.6906   -1.1107 C   0  0  2  0  0  0  0  0  0  0  0  0
  -11.2524   -1.3709   -2.4760 C   0  0  0  0  0  0  0  0  0  0  0  0
  -12.4840   -1.4010   -0.3123 C   0  0  0  0  0  0  0  0  0  0  0  0
  -13.7001   -1.1584   -0.5416 O   0  0  0  0  0  0  0  0  0  0  0  0
  -12.1441   -2.3059    0.7478 N   0  0  0  0  0  0  0  0  0  0  0  0
  -11.1878   -3.4055    0.5801 C   0  0  2  0  0  0  0  0  0  0  0  0
  -11.9699   -4.7068    0.3803 C   0  0  0  0  0  0  0  0  0  0  0  0
  -10.2853   -3.5130    1.7889 C   0  0  0  0  0  0  0  0  0  0  0  0
  -10.7985   -3.4065    2.9377 O   0  0  0  0  0  0  0  0  0  0  0  0
   -8.8658   -3.7542    1.6926 N   0  0  0  0  0  0  0  0  0  0  0  0
   -8.1223   -4.0271    0.4476 C   0  0  2  0  0  0  0  0  0  0  0  0
   -8.6400   -5.2760   -0.2103 C   0  0  0  0  0  0  0  0  0  0  0  0
   -8.7020   -6.5089    0.5104 N   0  0  0  0  0  0  0  0  0  0  0  0
   -9.0028   -5.2405   -1.4165 O   0  0  0  0  0  0  0  0  0  0  0  0
   -6.6221   -4.2118    0.7328 C   0  0  0  0  0  0  0  0  0  0  0  0
   -5.8455   -2.6518    1.2681 S   0  0  0  0  0  0  0  0  0  0  0  0
   -4.2147   -3.3778    1.7045 C   0  0  0  0  0  0  0  0  0  0  0  0
    1.4853  -11.3641   -0.2895 H   0  0  0  0  0  0  0  0  0  0  0  0
   -0.0374  -10.4096   -0.5063 H   0  0  0  0  0  0  0  0  0  0  0  0
    0.7805  -10.4526    1.1021 H   0  0  0  0  0  0  0  0  0  0  0  0
    2.0553   -8.5399    1.5926 H   0  0  0  0  0  0  0  0  0  0  0  0
    3.1665   -6.5826    1.2757 H   0  0  0  0  0  0  0  0  0  0  0  0
    2.7197   -5.2848   -0.9512 H   0  0  0  0  0  0  0  0  0  0  0  0
    1.6791   -6.6512   -1.4344 H   0  0  0  0  0  0  0  0  0  0  0  0
   -0.6895   -5.4818   -1.5236 H   0  0  0  0  0  0  0  0  0  0  0  0
    0.5868   -4.2338   -1.6930 H   0  0  0  0  0  0  0  0  0  0  0  0
   -2.3274   -5.0148    0.6066 H   0  0  0  0  0  0  0  0  0  0  0  0
   -3.6672   -0.9288    0.6361 H   0  0  0  0  0  0  0  0  0  0  0  0
   -0.1262   -2.0111   -1.5432 H   0  0  0  0  0  0  0  0  0  0  0  0
   -0.6730    0.2825   -1.3262 H   0  0  0  0  0  0  0  0  0  0  0  0
   -2.3834    0.2800   -1.8089 H   0  0  0  0  0  0  0  0  0  0  0  0
   -4.0895    2.4595    0.3848 H   0  0  0  0  0  0  0  0  0  0  0  0
   -3.7183    1.8608   -1.2403 H   0  0  0  0  0  0  0  0  0  0  0  0
   -1.7373    3.5060   -1.2631 H   0  0  0  0  0  0  0  0  0  0  0  0
   -2.8155    4.1844    1.3984 H   0  0  0  0  0  0  0  0  0  0  0  0
   -0.7970    5.4815   -1.4879 H   0  0  0  0  0  0  0  0  0  0  0  0
   -2.4886    7.3255   -1.2104 H   0  0  0  0  0  0  0  0  0  0  0  0
   -0.9518    7.9142   -1.9170 H   0  0  0  0  0  0  0  0  0  0  0  0
   -1.3148    8.2296   -0.1758 H   0  0  0  0  0  0  0  0  0  0  0  0
    1.0602    6.1695    0.6195 H   0  0  0  0  0  0  0  0  0  0  0  0
    3.6509    7.3759   -1.5647 H   0  0  0  0  0  0  0  0  0  0  0  0
    2.3684    9.2649   -2.4660 H   0  0  0  0  0  0  0  0  0  0  0  0
    3.4303    9.8086   -1.1069 H   0  0  0  0  0  0  0  0  0  0  0  0
    1.6532    9.5933   -0.8374 H   0  0  0  0  0  0  0  0  0  0  0  0
    2.3791    8.1065    1.1175 H   0  0  0  0  0  0  0  0  0  0  0  0
    4.8994    5.9012   -0.5726 H   0  0  0  0  0  0  0  0  0  0  0  0
    7.1149    7.0026   -0.8818 H   0  0  0  0  0  0  0  0  0  0  0  0
    6.7926    8.0819    0.5369 H   0  0  0  0  0  0  0  0  0  0  0  0
    5.7822    8.2074   -0.9499 H   0  0  0  0  0  0  0  0  0  0  0  0
    5.5073    4.5802    1.3565 H   0  0  0  0  0  0  0  0  0  0  0  0
    8.4211    5.1837    0.1118 H   0  0  0  0  0  0  0  0  0  0  0  0
   10.5749    6.0753    0.9081 H   0  0  0  0  0  0  0  0  0  0  0  0
    9.8611    6.4870    2.5086 H   0  0  0  0  0  0  0  0  0  0  0  0
    9.2988    7.3400    1.0196 H   0  0  0  0  0  0  0  0  0  0  0  0
    9.2476    3.9940    2.8007 H   0  0  0  0  0  0  0  0  0  0  0  0
    9.1438    1.2522   -0.2539 H   0  0  0  0  0  0  0  0  0  0  0  0
   10.4451    4.0241   -0.6853 H   0  0  0  0  0  0  0  0  0  0  0  0
   10.5316    2.6154   -1.8003 H   0  0  0  0  0  0  0  0  0  0  0  0
    8.9470    3.4129   -1.5060 H   0  0  0  0  0  0  0  0  0  0  0  0
   11.2556    2.4317    1.5649 H   0  0  0  0  0  0  0  0  0  0  0  0
   10.7076    0.2759   -1.4268 H   0  0  0  0  0  0  0  0  0  0  0  0
   12.9598    1.1732   -1.8885 H   0  0  0  0  0  0  0  0  0  0  0  0
   12.6919   -0.4364   -2.6498 H   0  0  0  0  0  0  0  0  0  0  0  0
   13.7075   -0.3067   -1.1611 H   0  0  0  0  0  0  0  0  0  0  0  0
   12.0084   -2.2346   -0.9223 H   0  0  0  0  0  0  0  0  0  0  0  0
    8.5424   -3.4446    0.0681 H   0  0  0  0  0  0  0  0  0  0  0  0
    9.0696   -4.5740   -2.1026 H   0  0  0  0  0  0  0  0  0  0  0  0
    8.8654   -2.8037   -2.3206 H   0  0  0  0  0  0  0  0  0  0  0  0
   10.5155   -3.5341   -2.3081 H   0  0  0  0  0  0  0  0  0  0  0  0
   11.4353   -4.2540    0.3185 H   0  0  0  0  0  0  0  0  0  0  0  0
    8.1087   -5.7968   -0.4203 H   0  0  0  0  0  0  0  0  0  0  0  0
    7.1901   -7.8770    0.6048 H   0  0  0  0  0  0  0  0  0  0  0  0
    8.6047   -7.9656    1.7062 H   0  0  0  0  0  0  0  0  0  0  0  0
    8.8319   -8.1310   -0.0851 H   0  0  0  0  0  0  0  0  0  0  0  0
    8.1001   -5.2421    2.5297 H   0  0  0  0  0  0  0  0  0  0  0  0
    4.3525   -4.8054    0.6967 H   0  0  0  0  0  0  0  0  0  0  0  0
    6.7000   -4.1472   -1.1151 H   0  0  0  0  0  0  0  0  0  0  0  0
    5.0299   -3.5156   -1.1021 H   0  0  0  0  0  0  0  0  0  0  0  0
    6.1533   -3.0504    0.2221 H   0  0  0  0  0  0  0  0  0  0  0  0
    6.0759   -6.4689   -1.1634 H   0  0  0  0  0  0  0  0  0  0  0  0
   -5.5848    4.2028   -2.3152 H   0  0  0  0  0  0  0  0  0  0  0  0
   -6.7304    5.5698   -0.9116 H   0  0  0  0  0  0  0  0  0  0  0  0
   -5.7462    7.0843    0.6752 H   0  0  0  0  0  0  0  0  0  0  0  0
   -4.1392    6.3010    0.5198 H   0  0  0  0  0  0  0  0  0  0  0  0
   -4.8762    7.1422   -0.9014 H   0  0  0  0  0  0  0  0  0  0  0  0
   -7.3427    2.7172    1.4511 H   0  0  0  0  0  0  0  0  0  0  0  0
   -7.8533    3.6606   -1.3550 H   0  0  0  0  0  0  0  0  0  0  0  0
   -8.9022    5.5240   -0.2483 H   0  0  0  0  0  0  0  0  0  0  0  0
  -10.2407    4.4018   -0.6296 H   0  0  0  0  0  0  0  0  0  0  0  0
   -9.5730    4.5017    1.0542 H   0  0  0  0  0  0  0  0  0  0  0  0
   -9.1909    0.6493    1.0634 H   0  0  0  0  0  0  0  0  0  0  0  0
  -11.0831    2.8383    1.2933 H   0  0  0  0  0  0  0  0  0  0  0  0
  -12.6351    1.0637    2.2591 H   0  0  0  0  0  0  0  0  0  0  0  0
  -11.0157    1.2124    3.0330 H   0  0  0  0  0  0  0  0  0  0  0  0
  -11.3380   -0.1456    1.9095 H   0  0  0  0  0  0  0  0  0  0  0  0
  -12.1413    1.0096   -2.2551 H   0  0  0  0  0  0  0  0  0  0  0  0
  -10.4514   -0.7460   -0.5762 H   0  0  0  0  0  0  0  0  0  0  0  0
  -10.4600   -0.8526   -3.0573 H   0  0  0  0  0  0  0  0  0  0  0  0
  -10.9630   -2.4329   -2.3666 H   0  0  0  0  0  0  0  0  0  0  0  0
  -12.1990   -1.3215   -3.0548 H   0  0  0  0  0  0  0  0  0  0  0  0
  -12.8188   -2.3721    1.5459 H   0  0  0  0  0  0  0  0  0  0  0  0
  -10.5682   -3.2313   -0.3152 H   0  0  0  0  0  0  0  0  0  0  0  0
  -12.6663   -4.8814    1.2270 H   0  0  0  0  0  0  0  0  0  0  0  0
  -11.2889   -5.5760    0.3080 H   0  0  0  0  0  0  0  0  0  0  0  0
  -12.5564   -4.6481   -0.5611 H   0  0  0  0  0  0  0  0  0  0  0  0
   -8.3337   -3.7415    2.5940 H   0  0  0  0  0  0  0  0  0  0  0  0
   -8.2408   -3.1619   -0.2441 H   0  0  0  0  0  0  0  0  0  0  0  0
   -9.0549   -7.3748    0.0428 H   0  0  0  0  0  0  0  0  0  0  0  0
   -8.4269   -6.5538    1.5197 H   0  0  0  0  0  0  0  0  0  0  0  0
   -6.4922   -4.9839    1.5197 H   0  0  0  0  0  0  0  0  0  0  0  0
   -6.1027   -4.5546   -0.1865 H   0  0  0  0  0  0  0  0  0  0  0  0
   -3.9192   -2.9741    2.6939 H   0  0  0  0  0  0  0  0  0  0  0  0
   -4.2855   -4.4783    1.8219 H   0  0  0  0  0  0  0  0  0  0  0  0
  1  2  1  0
  2  3  2  0
  2  4  1  0
  4  5  1  0
  5  6  1  0
  6  7  1  0
  7  8  1  0
  8  9  1  0
  9 10  1  0
 10 11  2  0
 11 12  1  0
 12 13  2  0
 13 14  1  0
 13 15  1  0
 15 16  1  0
 16 17  1  0
 17 18  1  0
 18 19  1  0
 19 20  1  0
 20 21  2  0
 20 22  1  0
 22 23  1  0
 22 24  1  0
 24 25  1  0
 25 26  2  0
 25 27  1  0
 27 28  1  0
 27 29  1  0
 29 30  1  0
 30 31  2  0
 30 32  1  0
 32 33  1  0
 32 34  1  0
 34 35  1  0
 35 36  2  0
 35 37  1  0
 37 38  1  0
 37 39  1  0
 39 40  1  0
 40 41  2  0
 40 42  1  0
 42 43  1  0
 42 44  1  0
 44 45  1  0
 45 46  2  0
 45 47  1  0
 47 48  1  0
 47 49  1  0
 49 50  1  0
 50 51  2  0
 50 52  1  0
 52 53  1  0
 52 54  1  0
 54 55  1  0
 55 56  2  0
 55 57  1  0
 57 58  1  0
 57 59  1  0
 59 60  1  0
 60 61  2  0
 60 62  1  0
 62 63  1  0
 62 64  1  0
 64 65  1  0
 65 66  2  0
 18 67  1  0
 67 68  2  0
 67 69  1  0
 69 70  1  0
 70 71  1  0
 70 72  1  0
 72 73  2  0
 72 74  1  0
 74 75  1  0
 75 76  1  0
 75 77  1  0
 77 78  2  0
 77 79  1  0
 79 80  1  0
 80 81  1  0
 80 82  1  0
 82 83  2  0
 82 84  1  0
 84 85  1  0
 85 86  1  0
 85 87  1  0
 87 88  2  0
 87 89  1  0
 89 90  1  0
 90 91  1  0
 90 92  1  0
 92 93  2  0
 92 94  1  0
 94 95  1  0
 95 96  1  0
 96 97  1  0
 96 98  2  0
 95 99  1  0
 99100  1  0
100101  1  0
 65  5  1  0
 14  9  2  0
101 11  1  0
  1102  1  0
  1103  1  0
  1104  1  0
  4105  1  0
  5106  1  1
  6107  1  0
  6108  1  0
  8109  1  0
  8110  1  0
 10111  1  0
 12112  1  0
 14113  1  0
 15114  1  0
 15115  1  0
 17116  1  0
 17117  1  0
 18118  1  6
 19119  1  0
 22120  1  6
 23121  1  0
 23122  1  0
 23123  1  0
 24124  1  0
 27125  1  6
 28126  1  0
 28127  1  0
 28128  1  0
 29129  1  0
 32130  1  6
 33131  1  0
 33132  1  0
 33133  1  0
 34134  1  0
 37135  1  6
 38136  1  0
 38137  1  0
 38138  1  0
 39139  1  0
 42140  1  6
 43141  1  0
 43142  1  0
 43143  1  0
 44144  1  0
 47145  1  6
 48146  1  0
 48147  1  0
 48148  1  0
 49149  1  0
 52150  1  1
 53151  1  0
 53152  1  0
 53153  1  0
 54154  1  0
 57155  1  6
 58156  1  0
 58157  1  0
 58158  1  0
 59159  1  0
 62160  1  1
 63161  1  0
 63162  1  0
 63163  1  0
 64164  1  0
 69165  1  0
 70166  1  6
 71167  1  0
 71168  1  0
 71169  1  0
 74170  1  0
 75171  1  6
 76172  1  0
 76173  1  0
 76174  1  0
 79175  1  0
 80176  1  1
 81177  1  0
 81178  1  0
 81179  1  0
 84180  1  0
 85181  1  1
 86182  1  0
 86183  1  0
 86184  1  0
 89185  1  0
 90186  1  6
 91187  1  0
 91188  1  0
 91189  1  0
 94190  1  0
 95191  1  6
 97192  1  0
 97193  1  0
 99194  1  0
 99195  1  0
101196  1  0
101197  1  0
M  END
