
     RDKit          3D

207209  0  0  0  0  0  0  0  0999 V2000
   -2.0439  -11.1969    0.6733 C   0  0  0  0  0  0  0  0  0  0  0  0
   -1.7329   -9.8195    0.1834 C   0  0  0  0  0  0  0  0  0  0  0  0
   -0.8299   -9.6651   -0.6810 O   0  0  0  0  0  0  0  0  0  0  0  0
   -2.4436   -8.6866    0.6994 N   0  0  0  0  0  0  0  0  0  0  0  0
   -2.2130   -7.3129    0.2346 C   0  0  2  0  0  0  0  0  0  0  0  0
   -1.8087   -6.4032    1.4200 C   0  0  0  0  0  0  0  0  0  0  0  0
   -0.0186   -6.0325    1.4332 S   0  0  0  0  0  0  0  0  0  0  0  0
    0.0161   -5.0767   -0.1338 C   0  0  0  0  0  0  0  0  0  0  0  0
    0.9260   -3.8847   -0.0494 C   0  0  0  0  0  0  0  0  0  0  0  0
    2.2365   -4.0044    0.4240 C   0  0  0  0  0  0  0  0  0  0  0  0
    3.1011   -2.9011    0.4283 C   0  0  0  0  0  0  0  0  0  0  0  0
    2.6634   -1.6804   -0.1118 C   0  0  0  0  0  0  0  0  0  0  0  0
    1.3598   -1.5493   -0.6118 C   0  0  0  0  0  0  0  0  0  0  0  0
    0.4928   -2.6512   -0.5685 C   0  0  0  0  0  0  0  0  0  0  0  0
    0.9250   -0.2807   -1.3049 C   0  0  0  0  0  0  0  0  0  0  0  0
    0.8728    1.1557   -0.1579 S   0  0  0  0  0  0  0  0  0  0  0  0
    2.4362    1.9465   -0.6842 C   0  0  0  0  0  0  0  0  0  0  0  0
    2.3463    3.4783   -0.5647 C   0  0  2  0  0  0  0  0  0  0  0  0
    1.4270    3.9951   -1.5879 N   0  0  0  0  0  0  0  0  0  0  0  0
    0.1461    4.5896   -1.3152 C   0  0  0  0  0  0  0  0  0  0  0  0
   -0.7990    4.3833   -2.1223 O   0  0  0  0  0  0  0  0  0  0  0  0
   -0.0930    5.4858   -0.1225 C   0  0  1  0  0  0  0  0  0  0  0  0
   -0.6043    6.8650   -0.5710 C   0  0  0  0  0  0  0  0  0  0  0  0
   -0.9876    4.8187    0.8323 N   0  0  0  0  0  0  0  0  0  0  0  0
   -2.3140    5.2531    1.1609 C   0  0  0  0  0  0  0  0  0  0  0  0
   -2.5523    5.6521    2.3368 O   0  0  0  0  0  0  0  0  0  0  0  0
   -3.4501    5.1024    0.1824 C   0  0  1  0  0  0  0  0  0  0  0  0
   -4.2820    3.8574    0.5299 C   0  0  0  0  0  0  0  0  0  0  0  0
   -4.2529    6.3362    0.1212 N   0  0  0  0  0  0  0  0  0  0  0  0
   -5.5230    6.5514    0.7680 C   0  0  0  0  0  0  0  0  0  0  0  0
   -5.8007    5.9436    1.8396 O   0  0  0  0  0  0  0  0  0  0  0  0
   -6.5702    7.4488    0.1582 C   0  0  1  0  0  0  0  0  0  0  0  0
   -5.9932    8.7953   -0.3019 C   0  0  0  0  0  0  0  0  0  0  0  0
   -7.2005    6.7624   -0.9717 N   0  0  0  0  0  0  0  0  0  0  0  0
   -8.5621    6.2849   -1.0125 C   0  0  0  0  0  0  0  0  0  0  0  0
   -9.0125    5.8573   -2.1103 O   0  0  0  0  0  0  0  0  0  0  0  0
   -9.4959    6.3576    0.1782 C   0  0  1  0  0  0  0  0  0  0  0  0
  -10.1723    7.7333    0.2037 C   0  0  0  0  0  0  0  0  0  0  0  0
  -10.5146    5.3006    0.0933 N   0  0  0  0  0  0  0  0  0  0  0  0
  -10.1712    3.9070    0.1608 C   0  0  0  0  0  0  0  0  0  0  0  0
   -9.0209    3.5645    0.5506 O   0  0  0  0  0  0  0  0  0  0  0  0
  -11.2082    2.8342   -0.1365 C   0  0  1  0  0  0  0  0  0  0  0  0
  -12.0509    3.1855   -1.3695 C   0  0  0  0  0  0  0  0  0  0  0  0
  -10.5567    1.5407   -0.3589 N   0  0  0  0  0  0  0  0  0  0  0  0
  -10.7012    0.4647    0.5725 C   0  0  0  0  0  0  0  0  0  0  0  0
   -9.9325    0.4026    1.5679 O   0  0  0  0  0  0  0  0  0  0  0  0
  -11.7929   -0.5641    0.4032 C   0  0  1  0  0  0  0  0  0  0  0  0
  -13.0909   -0.0810    1.0453 C   0  0  0  0  0  0  0  0  0  0  0  0
  -12.0190   -0.8389   -1.0256 N   0  0  0  0  0  0  0  0  0  0  0  0
  -11.9633   -2.1347   -1.6539 C   0  0  0  0  0  0  0  0  0  0  0  0
  -12.4204   -2.2483   -2.8258 O   0  0  0  0  0  0  0  0  0  0  0  0
  -11.4611   -3.3687   -0.9371 C   0  0  1  0  0  0  0  0  0  0  0  0
  -12.6289   -4.0259   -0.1919 C   0  0  0  0  0  0  0  0  0  0  0  0
  -10.8598   -4.3416   -1.8647 N   0  0  0  0  0  0  0  0  0  0  0  0
   -9.9495   -5.3841   -1.4672 C   0  0  0  0  0  0  0  0  0  0  0  0
   -9.5157   -6.1679   -2.3526 O   0  0  0  0  0  0  0  0  0  0  0  0
   -9.4366   -5.5371   -0.0467 C   0  0  1  0  0  0  0  0  0  0  0  0
   -9.6235   -6.9679    0.4813 C   0  0  0  0  0  0  0  0  0  0  0  0
   -8.0435   -5.0883    0.0429 N   0  0  0  0  0  0  0  0  0  0  0  0
   -6.9180   -5.9189   -0.2913 C   0  0  0  0  0  0  0  0  0  0  0  0
   -7.0345   -6.8045   -1.1770 O   0  0  0  0  0  0  0  0  0  0  0  0
   -5.5883   -5.7064    0.3904 C   0  0  1  0  0  0  0  0  0  0  0  0
   -5.7447   -5.4694    1.8941 C   0  0  0  0  0  0  0  0  0  0  0  0
   -4.7285   -6.8730    0.1888 N   0  0  0  0  0  0  0  0  0  0  0  0
   -3.4406   -6.7534   -0.4295 C   0  0  0  0  0  0  0  0  0  0  0  0
   -3.3234   -6.0757   -1.4825 O   0  0  0  0  0  0  0  0  0  0  0  0
    3.7053    4.1153   -0.7358 C   0  0  0  0  0  0  0  0  0  0  0  0
    4.6734    3.4457   -1.2033 O   0  0  0  0  0  0  0  0  0  0  0  0
    3.9081    5.4884   -0.3816 N   0  0  0  0  0  0  0  0  0  0  0  0
    5.1453    5.9384    0.2706 C   0  0  2  0  0  0  0  0  0  0  0  0
    4.8229    6.3743    1.6988 C   0  0  0  0  0  0  0  0  0  0  0  0
    5.7648    7.0823   -0.4949 C   0  0  0  0  0  0  0  0  0  0  0  0
    5.0096    7.9457   -1.0221 O   0  0  0  0  0  0  0  0  0  0  0  0
    7.1853    7.2381   -0.6432 N   0  0  0  0  0  0  0  0  0  0  0  0
    8.2124    6.5196    0.1295 C   0  0  2  0  0  0  0  0  0  0  0  0
    9.2846    7.5259    0.5623 C   0  0  0  0  0  0  0  0  0  0  0  0
    8.8157    5.4161   -0.7066 C   0  0  0  0  0  0  0  0  0  0  0  0
    8.2100    5.0165   -1.7466 O   0  0  0  0  0  0  0  0  0  0  0  0
   10.0669    4.8071   -0.3580 N   0  0  0  0  0  0  0  0  0  0  0  0
   10.3269    4.2079    0.9515 C   0  0  2  0  0  0  0  0  0  0  0  0
   11.7627    4.5358    1.3802 C   0  0  0  0  0  0  0  0  0  0  0  0
   10.0686    2.7212    0.8767 C   0  0  0  0  0  0  0  0  0  0  0  0
    8.8745    2.3123    0.8499 O   0  0  0  0  0  0  0  0  0  0  0  0
   11.1507    1.7732    0.8184 N   0  0  0  0  0  0  0  0  0  0  0  0
   11.3863    0.8952   -0.3403 C   0  0  2  0  0  0  0  0  0  0  0  0
   11.4702    1.7058   -1.6353 C   0  0  0  0  0  0  0  0  0  0  0  0
   10.3300   -0.1855   -0.4409 C   0  0  0  0  0  0  0  0  0  0  0  0
    9.1514    0.1444   -0.7415 O   0  0  0  0  0  0  0  0  0  0  0  0
   10.5977   -1.5834   -0.2136 N   0  0  0  0  0  0  0  0  0  0  0  0
   11.9213   -2.1800    0.0345 C   0  0  2  0  0  0  0  0  0  0  0  0
   12.7084   -2.2650   -1.2786 C   0  0  0  0  0  0  0  0  0  0  0  0
   11.7336   -3.5401    0.6689 C   0  0  0  0  0  0  0  0  0  0  0  0
   11.2566   -3.6123    1.8317 O   0  0  0  0  0  0  0  0  0  0  0  0
   12.0160   -4.7483   -0.0507 N   0  0  0  0  0  0  0  0  0  0  0  0
   10.9591   -5.7319   -0.3049 C   0  0  2  0  0  0  0  0  0  0  0  0
   11.5444   -6.9958   -0.9448 C   0  0  0  0  0  0  0  0  0  0  0  0
    9.9126   -5.1059   -1.2092 C   0  0  0  0  0  0  0  0  0  0  0  0
   10.2179   -4.8598   -2.4030 O   0  0  0  0  0  0  0  0  0  0  0  0
    8.6187   -4.6940   -0.7306 N   0  0  0  0  0  0  0  0  0  0  0  0
    8.1011   -4.9602    0.6226 C   0  0  2  0  0  0  0  0  0  0  0  0
    7.6568   -6.3954    0.7534 C   0  0  0  0  0  0  0  0  0  0  0  0
    7.4680   -6.9746    2.0470 N   0  0  0  0  0  0  0  0  0  0  0  0
    7.4454   -7.0943   -0.2735 O   0  0  0  0  0  0  0  0  0  0  0  0
    6.9822   -3.9748    1.0051 C   0  0  0  0  0  0  0  0  0  0  0  0
    5.4861   -4.1479   -0.0329 S   0  0  0  0  0  0  0  0  0  0  0  0
    4.4762   -3.0366    1.0024 C   0  0  0  0  0  0  0  0  0  0  0  0
   -2.3538  -11.8334   -0.1818 H   0  0  0  0  0  0  0  0  0  0  0  0
   -1.1384  -11.6374    1.1392 H   0  0  0  0  0  0  0  0  0  0  0  0
   -2.8609  -11.1798    1.4214 H   0  0  0  0  0  0  0  0  0  0  0  0
   -3.1579   -8.8415    1.4464 H   0  0  0  0  0  0  0  0  0  0  0  0
   -1.4104   -7.3088   -0.5323 H   0  0  0  0  0  0  0  0  0  0  0  0
   -2.0731   -6.8786    2.3888 H   0  0  0  0  0  0  0  0  0  0  0  0
   -2.3476   -5.4309    1.4011 H   0  0  0  0  0  0  0  0  0  0  0  0
   -1.0087   -4.7492   -0.3999 H   0  0  0  0  0  0  0  0  0  0  0  0
    0.3672   -5.7385   -0.9495 H   0  0  0  0  0  0  0  0  0  0  0  0
    2.5845   -4.9557    0.8074 H   0  0  0  0  0  0  0  0  0  0  0  0
    3.3376   -0.8343   -0.1425 H   0  0  0  0  0  0  0  0  0  0  0  0
   -0.5085   -2.5646   -0.9763 H   0  0  0  0  0  0  0  0  0  0  0  0
   -0.1005   -0.3991   -1.7102 H   0  0  0  0  0  0  0  0  0  0  0  0
    1.5767   -0.1030   -2.1844 H   0  0  0  0  0  0  0  0  0  0  0  0
    3.2463    1.5539   -0.0289 H   0  0  0  0  0  0  0  0  0  0  0  0
    2.6806    1.6973   -1.7344 H   0  0  0  0  0  0  0  0  0  0  0  0
    1.9904    3.7208    0.4609 H   0  0  0  0  0  0  0  0  0  0  0  0
    1.6271    3.7440   -2.5815 H   0  0  0  0  0  0  0  0  0  0  0  0
    0.8702    5.6854    0.3943 H   0  0  0  0  0  0  0  0  0  0  0  0
    0.1793    7.3762   -1.1783 H   0  0  0  0  0  0  0  0  0  0  0  0
   -0.8260    7.5016    0.3177 H   0  0  0  0  0  0  0  0  0  0  0  0
   -1.5187    6.7830   -1.1951 H   0  0  0  0  0  0  0  0  0  0  0  0
   -0.5350    4.1440    1.4953 H   0  0  0  0  0  0  0  0  0  0  0  0
   -3.0264    4.9232   -0.8262 H   0  0  0  0  0  0  0  0  0  0  0  0
   -3.6886    2.9439    0.3009 H   0  0  0  0  0  0  0  0  0  0  0  0
   -5.2117    3.8299   -0.0739 H   0  0  0  0  0  0  0  0  0  0  0  0
   -4.5456    3.8318    1.6093 H   0  0  0  0  0  0  0  0  0  0  0  0
   -3.8019    7.1601   -0.3399 H   0  0  0  0  0  0  0  0  0  0  0  0
   -7.3089    7.6889    0.9491 H   0  0  0  0  0  0  0  0  0  0  0  0
   -6.8309    9.4733   -0.5820 H   0  0  0  0  0  0  0  0  0  0  0  0
   -5.4119    9.2712    0.5187 H   0  0  0  0  0  0  0  0  0  0  0  0
   -5.3480    8.6698   -1.1942 H   0  0  0  0  0  0  0  0  0  0  0  0
   -6.6027    6.5746   -1.8126 H   0  0  0  0  0  0  0  0  0  0  0  0
   -8.9360    6.2063    1.1194 H   0  0  0  0  0  0  0  0  0  0  0  0
  -10.8636    7.7942    1.0706 H   0  0  0  0  0  0  0  0  0  0  0  0
   -9.4218    8.5389    0.3132 H   0  0  0  0  0  0  0  0  0  0  0  0
  -10.7412    7.9030   -0.7393 H   0  0  0  0  0  0  0  0  0  0  0  0
  -11.5028    5.5703   -0.0958 H   0  0  0  0  0  0  0  0  0  0  0  0
  -11.8894    2.7712    0.7424 H   0  0  0  0  0  0  0  0  0  0  0  0
  -11.4050    3.4337   -2.2319 H   0  0  0  0  0  0  0  0  0  0  0  0
  -12.7257    4.0384   -1.1578 H   0  0  0  0  0  0  0  0  0  0  0  0
  -12.6924    2.3227   -1.6367 H   0  0  0  0  0  0  0  0  0  0  0  0
   -9.9316    1.4141   -1.1868 H   0  0  0  0  0  0  0  0  0  0  0  0
  -11.4820   -1.4749    0.9487 H   0  0  0  0  0  0  0  0  0  0  0  0
  -12.9397    0.0661    2.1308 H   0  0  0  0  0  0  0  0  0  0  0  0
  -13.4332    0.8694    0.5902 H   0  0  0  0  0  0  0  0  0  0  0  0
  -13.8821   -0.8468    0.9086 H   0  0  0  0  0  0  0  0  0  0  0  0
  -12.3391   -0.0470   -1.6258 H   0  0  0  0  0  0  0  0  0  0  0  0
  -10.6743   -3.0463   -0.2339 H   0  0  0  0  0  0  0  0  0  0  0  0
  -12.9991   -3.3590    0.6170 H   0  0  0  0  0  0  0  0  0  0  0  0
  -12.3239   -4.9929    0.2560 H   0  0  0  0  0  0  0  0  0  0  0  0
  -13.4691   -4.2351   -0.8909 H   0  0  0  0  0  0  0  0  0  0  0  0
  -11.1117   -4.3028   -2.8788 H   0  0  0  0  0  0  0  0  0  0  0  0
  -10.0294   -4.9117    0.6502 H   0  0  0  0  0  0  0  0  0  0  0  0
   -9.1762   -7.0591    1.4953 H   0  0  0  0  0  0  0  0  0  0  0  0
  -10.7086   -7.2092    0.5550 H   0  0  0  0  0  0  0  0  0  0  0  0
   -9.1514   -7.7134   -0.1853 H   0  0  0  0  0  0  0  0  0  0  0  0
   -7.8655   -4.1508    0.4678 H   0  0  0  0  0  0  0  0  0  0  0  0
   -5.1179   -4.8028   -0.0597 H   0  0  0  0  0  0  0  0  0  0  0  0
   -4.7422   -5.4519    2.3751 H   0  0  0  0  0  0  0  0  0  0  0  0
   -6.2314   -4.4913    2.0848 H   0  0  0  0  0  0  0  0  0  0  0  0
   -6.3424   -6.2846    2.3584 H   0  0  0  0  0  0  0  0  0  0  0  0
   -5.0157   -7.7859    0.6096 H   0  0  0  0  0  0  0  0  0  0  0  0
    3.0930    6.1437   -0.4186 H   0  0  0  0  0  0  0  0  0  0  0  0
    5.8678    5.0929    0.3267 H   0  0  0  0  0  0  0  0  0  0  0  0
    4.0863    7.2083    1.6867 H   0  0  0  0  0  0  0  0  0  0  0  0
    4.3834    5.5243    2.2619 H   0  0  0  0  0  0  0  0  0  0  0  0
    5.7382    6.7119    2.2258 H   0  0  0  0  0  0  0  0  0  0  0  0
    7.5175    7.9076   -1.3775 H   0  0  0  0  0  0  0  0  0  0  0  0
    7.7786    6.0825    1.0517 H   0  0  0  0  0  0  0  0  0  0  0  0
    8.8088    8.4092    1.0385 H   0  0  0  0  0  0  0  0  0  0  0  0
    9.8755    7.8722   -0.3135 H   0  0  0  0  0  0  0  0  0  0  0  0
    9.9722    7.0743    1.3094 H   0  0  0  0  0  0  0  0  0  0  0  0
   10.6844    4.5247   -1.1575 H   0  0  0  0  0  0  0  0  0  0  0  0
    9.6453    4.6431    1.7140 H   0  0  0  0  0  0  0  0  0  0  0  0
   12.4912    4.1084    0.6541 H   0  0  0  0  0  0  0  0  0  0  0  0
   11.9089    5.6361    1.4136 H   0  0  0  0  0  0  0  0  0  0  0  0
   11.9638    4.1217    2.3875 H   0  0  0  0  0  0  0  0  0  0  0  0
   11.9222    1.8514    1.5171 H   0  0  0  0  0  0  0  0  0  0  0  0
   12.3832    0.4359   -0.2003 H   0  0  0  0  0  0  0  0  0  0  0  0
   10.4994    2.1914   -1.8699 H   0  0  0  0  0  0  0  0  0  0  0  0
   11.7479    1.0371   -2.4837 H   0  0  0  0  0  0  0  0  0  0  0  0
   12.2467    2.4936   -1.5356 H   0  0  0  0  0  0  0  0  0  0  0  0
    9.7690   -2.2154   -0.2314 H   0  0  0  0  0  0  0  0  0  0  0  0
   12.4889   -1.5644    0.7618 H   0  0  0  0  0  0  0  0  0  0  0  0
   13.7165   -2.6943   -1.0944 H   0  0  0  0  0  0  0  0  0  0  0  0
   12.1701   -2.8966   -2.0176 H   0  0  0  0  0  0  0  0  0  0  0  0
   12.8478   -1.2583   -1.7181 H   0  0  0  0  0  0  0  0  0  0  0  0
   13.0121   -4.9525   -0.3124 H   0  0  0  0  0  0  0  0  0  0  0  0
   10.5293   -6.0435    0.6652 H   0  0  0  0  0  0  0  0  0  0  0  0
   10.7336   -7.7381   -1.1038 H   0  0  0  0  0  0  0  0  0  0  0  0
   12.2962   -7.4456   -0.2632 H   0  0  0  0  0  0  0  0  0  0  0  0
   12.0274   -6.7637   -1.9168 H   0  0  0  0  0  0  0  0  0  0  0  0
    8.0318   -4.1250   -1.3836 H   0  0  0  0  0  0  0  0  0  0  0  0
    8.9121   -4.7751    1.3577 H   0  0  0  0  0  0  0  0  0  0  0  0
    7.1409   -7.9613    2.1420 H   0  0  0  0  0  0  0  0  0  0  0  0
    7.6860   -6.4301    2.9092 H   0  0  0  0  0  0  0  0  0  0  0  0
    6.7102   -4.1336    2.0741 H   0  0  0  0  0  0  0  0  0  0  0  0
    7.3646   -2.9360    0.9020 H   0  0  0  0  0  0  0  0  0  0  0  0
    4.3957   -3.4577    2.0271 H   0  0  0  0  0  0  0  0  0  0  0  0
    4.9726   -2.0427    1.0775 H   0  0  0  0  0  0  0  0  0  0  0  0
  1  2  1  0
  2  3  2  0
  2  4  1  0
  4  5  1  0
  5  6  1  0
  6  7  1  0
  7  8  1  0
  8  9  1  0
  9 10  1  0
 10 11  2  0
 11 12  1  0
 12 13  2  0
 13 14  1  0
 13 15  1  0
 15 16  1  0
 16 17  1  0
 17 18  1  0
 18 19  1  0
 19 20  1  0
 20 21  2  0
 20 22  1  0
 22 23  1  0
 22 24  1  0
 24 25  1  0
 25 26  2  0
 25 27  1  0
 27 28  1  0
 27 29  1  0
 29 30  1  0
 30 31  2  0
 30 32  1  0
 32 33  1  0
 32 34  1  0
 34 35  1  0
 35 36  2  0
 35 37  1  0
 37 38  1  0
 37 39  1  0
 39 40  1  0
 40 41  2  0
 40 42  1  0
 42 43  1  0
 42 44  1  0
 44 45  1  0
 45 46  2  0
 45 47  1  0
 47 48  1  0
 47 49  1  0
 49 50  1  0
 50 51  2  0
 50 52  1  0
 52 53  1  0
 52 54  1  0
 54 55  1  0
 55 56  2  0
 55 57  1  0
 57 58  1  0
 57 59  1  0
 59 60  1  0
 60 61  2  0
 60 62  1  0
 62 63  1  0
 62 64  1  0
 64 65  1  0
 65 66  2  0
 18 67  1  0
 67 68  2  0
 67 69  1  0
 69 70  1  0
 70 71  1  0
 70 72  1  0
 72 73  2  0
 72 74  1  0
 74 75  1  0
 75 76  1  0
 75 77  1  0
 77 78  2  0
 77 79  1  0
 79 80  1  0
 80 81  1  0
 80 82  1  0
 82 83  2  0
 82 84  1  0
 84 85  1  0
 85 86  1  0
 85 87  1  0
 87 88  2  0
 87 89  1  0
 89 90  1  0
 90 91  1  0
 90 92  1  0
 92 93  2  0
 92 94  1  0
 94 95  1  0
 95 96  1  0
 95 97  1  0
 97 98  2  0
 97 99  1  0
 99100  1  0
100101  1  0
101102  1  0
101103  2  0
100104  1  0
104105  1  0
105106  1  0
 65  5  1  0
 14  9  2  0
106 11  1  0
  1107  1  0
  1108  1  0
  1109  1  0
  4110  1  0
  5111  1  6
  6112  1  0
  6113  1  0
  8114  1  0
  8115  1  0
 10116  1  0
 12117  1  0
 14118  1  0
 15119  1  0
 15120  1  0
 17121  1  0
 17122  1  0
 18123  1  1
 19124  1  0
 22125  1  1
 23126  1  0
 23127  1  0
 23128  1  0
 24129  1  0
 27130  1  6
 28131  1  0
 28132  1  0
 28133  1  0
 29134  1  0
 32135  1  1
 33136  1  0
 33137  1  0
 33138  1  0
 34139  1  0
 37140  1  1
 38141  1  0
 38142  1  0
 38143  1  0
 39144  1  0
 42145  1  1
 43146  1  0
 43147  1  0
 43148  1  0
 44149  1  0
 47150  1  1
 48151  1  0
 48152  1  0
 48153  1  0
 49154  1  0
 52155  1  1
 53156  1  0
 53157  1  0
 53158  1  0
 54159  1  0
 57160  1  1
 58161  1  0
 58162  1  0
 58163  1  0
 59164  1  0
 62165  1  6
 63166  1  0
 63167  1  0
 63168  1  0
 64169  1  0
 69170  1  0
 70171  1  1
 71172  1  0
 71173  1  0
 71174  1  0
 74175  1  0
 75176  1  1
 76177  1  0
 76178  1  0
 76179  1  0
 79180  1  0
 80181  1  1
 81182  1  0
 81183  1  0
 81184  1  0
 84185  1  0
 85186  1  1
 86187  1  0
 86188  1  0
 86189  1  0
 89190  1  0
 90191  1  1
 91192  1  0
 91193  1  0
 91194  1  0
 94195  1  0
 95196  1  1
 96197  1  0
 96198  1  0
 96199  1  0
 99200  1  0
100201  1  1
102202  1  0
102203  1  0
104204  1  0
104205  1  0
106206  1  0
106207  1  0
M  END
