
     RDKit          3D

207209  0  0  0  0  0  0  0  0999 V2000
   -2.7338   -9.1543    3.2985 C   0  0  0  0  0  0  0  0  0  0  0  0
   -3.6372   -7.9580    3.3128 C   0  0  0  0  0  0  0  0  0  0  0  0
   -4.4216   -7.7944    4.2835 O   0  0  0  0  0  0  0  0  0  0  0  0
   -3.6340   -6.9965    2.2427 N   0  0  0  0  0  0  0  0  0  0  0  0
   -2.9363   -7.2156    0.9675 C   0  0  2  0  0  0  0  0  0  0  0  0
   -2.8059   -5.9112    0.1628 C   0  0  0  0  0  0  0  0  0  0  0  0
   -1.5612   -4.8021    0.9216 S   0  0  0  0  0  0  0  0  0  0  0  0
   -0.2672   -5.0339   -0.3526 C   0  0  0  0  0  0  0  0  0  0  0  0
    0.8584   -4.0480   -0.1755 C   0  0  0  0  0  0  0  0  0  0  0  0
    2.1898   -4.4850   -0.1255 C   0  0  0  0  0  0  0  0  0  0  0  0
    3.2448   -3.5606   -0.0604 C   0  0  0  0  0  0  0  0  0  0  0  0
    2.9581   -2.1917   -0.0158 C   0  0  0  0  0  0  0  0  0  0  0  0
    1.6301   -1.7411   -0.0515 C   0  0  0  0  0  0  0  0  0  0  0  0
    0.5889   -2.6739   -0.1620 C   0  0  0  0  0  0  0  0  0  0  0  0
    1.3409   -0.2636   -0.0139 C   0  0  0  0  0  0  0  0  0  0  0  0
    1.9044    0.4403    1.5770 S   0  0  0  0  0  0  0  0  0  0  0  0
    1.1299    2.0915    1.4175 C   0  0  0  0  0  0  0  0  0  0  0  0
    2.1754    3.1748    1.0761 C   0  0  2  0  0  0  0  0  0  0  0  0
    1.7990    4.4733    1.6612 N   0  0  0  0  0  0  0  0  0  0  0  0
    0.7091    5.3335    1.2755 C   0  0  0  0  0  0  0  0  0  0  0  0
    0.6866    6.5051    1.7461 O   0  0  0  0  0  0  0  0  0  0  0  0
   -0.4722    4.8704    0.4447 C   0  0  1  0  0  0  0  0  0  0  0  0
   -1.5696    4.3630    1.3887 C   0  0  0  0  0  0  0  0  0  0  0  0
   -0.9721    5.9768   -0.3852 N   0  0  0  0  0  0  0  0  0  0  0  0
   -2.1713    5.8653   -1.1659 C   0  0  0  0  0  0  0  0  0  0  0  0
   -2.0925    5.4452   -2.3501 O   0  0  0  0  0  0  0  0  0  0  0  0
   -3.5079    6.2835   -0.5848 C   0  0  1  0  0  0  0  0  0  0  0  0
   -3.3812    7.6479    0.1063 C   0  0  0  0  0  0  0  0  0  0  0  0
   -4.5500    6.2617   -1.6230 N   0  0  0  0  0  0  0  0  0  0  0  0
   -5.1975    7.4220   -2.1647 C   0  0  0  0  0  0  0  0  0  0  0  0
   -4.8635    7.8317   -3.3087 O   0  0  0  0  0  0  0  0  0  0  0  0
   -6.3624    8.0543   -1.4520 C   0  0  1  0  0  0  0  0  0  0  0  0
   -6.2168    9.5762   -1.3982 C   0  0  0  0  0  0  0  0  0  0  0  0
   -7.6075    7.6914   -2.1259 N   0  0  0  0  0  0  0  0  0  0  0  0
   -8.7907    7.4082   -1.3812 C   0  0  0  0  0  0  0  0  0  0  0  0
   -9.3695    8.3401   -0.7499 O   0  0  0  0  0  0  0  0  0  0  0  0
   -9.4109    6.0419   -1.4163 C   0  0  1  0  0  0  0  0  0  0  0  0
  -10.2891    5.8794   -2.6586 C   0  0  0  0  0  0  0  0  0  0  0  0
   -8.3685    5.0164   -1.4001 N   0  0  0  0  0  0  0  0  0  0  0  0
   -7.9395    4.3939   -0.1843 C   0  0  0  0  0  0  0  0  0  0  0  0
   -6.8376    4.7397    0.3208 O   0  0  0  0  0  0  0  0  0  0  0  0
   -8.7468    3.3051    0.4863 C   0  0  1  0  0  0  0  0  0  0  0  0
   -9.7097    3.8809    1.5260 C   0  0  0  0  0  0  0  0  0  0  0  0
   -9.4852    2.5116   -0.5037 N   0  0  0  0  0  0  0  0  0  0  0  0
   -9.6908    1.0908   -0.4441 C   0  0  0  0  0  0  0  0  0  0  0  0
  -10.0803    0.4975   -1.4890 O   0  0  0  0  0  0  0  0  0  0  0  0
   -9.5364    0.2796    0.8277 C   0  0  1  0  0  0  0  0  0  0  0  0
  -10.9151    0.0761    1.4702 C   0  0  0  0  0  0  0  0  0  0  0  0
   -8.8770   -0.9936    0.5078 N   0  0  0  0  0  0  0  0  0  0  0  0
   -9.1666   -2.2278    1.1725 C   0  0  0  0  0  0  0  0  0  0  0  0
   -8.7300   -2.4133    2.3417 O   0  0  0  0  0  0  0  0  0  0  0  0
  -10.0137   -3.2920    0.5235 C   0  0  1  0  0  0  0  0  0  0  0  0
  -10.3703   -2.9676   -0.9361 C   0  0  0  0  0  0  0  0  0  0  0  0
   -9.3744   -4.6111    0.6742 N   0  0  0  0  0  0  0  0  0  0  0  0
   -8.9158   -5.4318   -0.4120 C   0  0  0  0  0  0  0  0  0  0  0  0
   -9.5825   -6.4575   -0.7197 O   0  0  0  0  0  0  0  0  0  0  0  0
   -7.6667   -5.0921   -1.1942 C   0  0  1  0  0  0  0  0  0  0  0  0
   -6.6710   -4.2447   -0.3896 C   0  0  0  0  0  0  0  0  0  0  0  0
   -7.0175   -6.2956   -1.7418 N   0  0  0  0  0  0  0  0  0  0  0  0
   -6.7948   -7.5235   -1.0262 C   0  0  0  0  0  0  0  0  0  0  0  0
   -7.1520   -8.6085   -1.5622 O   0  0  0  0  0  0  0  0  0  0  0  0
   -6.0809   -7.5703    0.3024 C   0  0  1  0  0  0  0  0  0  0  0  0
   -7.0597   -7.9155    1.4232 C   0  0  0  0  0  0  0  0  0  0  0  0
   -5.0209   -8.5845    0.2497 N   0  0  0  0  0  0  0  0  0  0  0  0
   -3.6164   -8.2902    0.1461 C   0  0  0  0  0  0  0  0  0  0  0  0
   -2.9038   -8.9996   -0.6210 O   0  0  0  0  0  0  0  0  0  0  0  0
    2.4887    3.3214   -0.4027 C   0  0  0  0  0  0  0  0  0  0  0  0
    1.7707    2.7292   -1.2556 O   0  0  0  0  0  0  0  0  0  0  0  0
    3.5717    4.1455   -0.8772 N   0  0  0  0  0  0  0  0  0  0  0  0
    4.6048    4.7564   -0.0318 C   0  0  2  0  0  0  0  0  0  0  0  0
    4.5892    6.2709   -0.2328 C   0  0  0  0  0  0  0  0  0  0  0  0
    5.9554    4.1810   -0.3826 C   0  0  0  0  0  0  0  0  0  0  0  0
    6.4146    4.3460   -1.5461 O   0  0  0  0  0  0  0  0  0  0  0  0
    6.6661    3.3314    0.5293 N   0  0  0  0  0  0  0  0  0  0  0  0
    7.3384    3.7871    1.7548 C   0  0  2  0  0  0  0  0  0  0  0  0
    6.3329    4.0784    2.8735 C   0  0  0  0  0  0  0  0  0  0  0  0
    8.2202    4.9861    1.4798 C   0  0  0  0  0  0  0  0  0  0  0  0
    7.6763    6.1010    1.2602 O   0  0  0  0  0  0  0  0  0  0  0  0
    9.6537    4.9233    1.4804 N   0  0  0  0  0  0  0  0  0  0  0  0
   10.4580    3.6941    1.5090 C   0  0  2  0  0  0  0  0  0  0  0  0
   10.8346    3.3584    2.9545 C   0  0  0  0  0  0  0  0  0  0  0  0
   11.7117    3.8735    0.6791 C   0  0  0  0  0  0  0  0  0  0  0  0
   12.4012    4.9231    0.8337 O   0  0  0  0  0  0  0  0  0  0  0  0
   12.1580    2.9006   -0.2803 N   0  0  0  0  0  0  0  0  0  0  0  0
   11.6518    1.5264   -0.3705 C   0  0  2  0  0  0  0  0  0  0  0  0
   12.6932    0.6285   -1.0502 C   0  0  0  0  0  0  0  0  0  0  0  0
   10.3544    1.4957   -1.1356 C   0  0  0  0  0  0  0  0  0  0  0  0
   10.0983    2.3869   -1.9941 O   0  0  0  0  0  0  0  0  0  0  0  0
    9.3760    0.4909   -0.8560 N   0  0  0  0  0  0  0  0  0  0  0  0
    9.4875   -0.8697   -1.3830 C   0  0  2  0  0  0  0  0  0  0  0  0
    8.2392   -1.1962   -2.2096 C   0  0  0  0  0  0  0  0  0  0  0  0
    9.7514   -1.8352   -0.2555 C   0  0  0  0  0  0  0  0  0  0  0  0
   10.6643   -1.5693    0.5761 O   0  0  0  0  0  0  0  0  0  0  0  0
    9.0073   -3.0539   -0.1041 N   0  0  0  0  0  0  0  0  0  0  0  0
    9.6694   -4.2967    0.3176 C   0  0  2  0  0  0  0  0  0  0  0  0
   10.7154   -4.7384   -0.7131 C   0  0  0  0  0  0  0  0  0  0  0  0
    8.6752   -5.4012    0.5875 C   0  0  0  0  0  0  0  0  0  0  0  0
    8.8881   -6.1717    1.5627 O   0  0  0  0  0  0  0  0  0  0  0  0
    7.4944   -5.6054   -0.2077 N   0  0  0  0  0  0  0  0  0  0  0  0
    7.4573   -5.5028   -1.6685 C   0  0  1  0  0  0  0  0  0  0  0  0
    8.0963   -6.7188   -2.2923 C   0  0  0  0  0  0  0  0  0  0  0  0
    7.7264   -8.0320   -1.8742 N   0  0  0  0  0  0  0  0  0  0  0  0
    8.9505   -6.5750   -3.2056 O   0  0  0  0  0  0  0  0  0  0  0  0
    6.0134   -5.3496   -2.1740 C   0  0  0  0  0  0  0  0  0  0  0  0
    5.3238   -3.6921   -1.8092 S   0  0  0  0  0  0  0  0  0  0  0  0
    4.6676   -4.0254   -0.1320 C   0  0  0  0  0  0  0  0  0  0  0  0
   -2.8733   -9.7630    4.2170 H   0  0  0  0  0  0  0  0  0  0  0  0
   -1.6749   -8.8238    3.2551 H   0  0  0  0  0  0  0  0  0  0  0  0
   -2.9598   -9.7911    2.4181 H   0  0  0  0  0  0  0  0  0  0  0  0
   -4.1600   -6.1079    2.3932 H   0  0  0  0  0  0  0  0  0  0  0  0
   -1.9057   -7.5618    1.1897 H   0  0  0  0  0  0  0  0  0  0  0  0
   -3.7713   -5.3664    0.1480 H   0  0  0  0  0  0  0  0  0  0  0  0
   -2.5548   -6.1335   -0.8992 H   0  0  0  0  0  0  0  0  0  0  0  0
    0.1044   -6.0764   -0.2855 H   0  0  0  0  0  0  0  0  0  0  0  0
   -0.6943   -4.8784   -1.3647 H   0  0  0  0  0  0  0  0  0  0  0  0
    2.4085   -5.5383   -0.1772 H   0  0  0  0  0  0  0  0  0  0  0  0
    3.7662   -1.4738    0.0482 H   0  0  0  0  0  0  0  0  0  0  0  0
   -0.4338   -2.3266   -0.2349 H   0  0  0  0  0  0  0  0  0  0  0  0
    1.8920    0.2274   -0.8492 H   0  0  0  0  0  0  0  0  0  0  0  0
    0.2535   -0.0732   -0.1551 H   0  0  0  0  0  0  0  0  0  0  0  0
    0.2822    2.0697    0.7065 H   0  0  0  0  0  0  0  0  0  0  0  0
    0.7124    2.3151    2.4194 H   0  0  0  0  0  0  0  0  0  0  0  0
    3.1179    2.8501    1.5759 H   0  0  0  0  0  0  0  0  0  0  0  0
    2.4435    4.8479    2.3931 H   0  0  0  0  0  0  0  0  0  0  0  0
   -0.1674    4.0591   -0.2323 H   0  0  0  0  0  0  0  0  0  0  0  0
   -2.3418    3.8120    0.8090 H   0  0  0  0  0  0  0  0  0  0  0  0
   -1.1599    3.6623    2.1409 H   0  0  0  0  0  0  0  0  0  0  0  0
   -2.0443    5.2120    1.9282 H   0  0  0  0  0  0  0  0  0  0  0  0
   -0.2907    6.6944   -0.7078 H   0  0  0  0  0  0  0  0  0  0  0  0
   -3.8049    5.5453    0.1889 H   0  0  0  0  0  0  0  0  0  0  0  0
   -4.3344    7.9217    0.6057 H   0  0  0  0  0  0  0  0  0  0  0  0
   -3.1077    8.4389   -0.6244 H   0  0  0  0  0  0  0  0  0  0  0  0
   -2.6047    7.6087    0.9004 H   0  0  0  0  0  0  0  0  0  0  0  0
   -4.7247    5.3546   -2.1112 H   0  0  0  0  0  0  0  0  0  0  0  0
   -6.3959    7.6742   -0.4051 H   0  0  0  0  0  0  0  0  0  0  0  0
   -5.2876    9.8519   -0.8495 H   0  0  0  0  0  0  0  0  0  0  0  0
   -7.0822   10.0154   -0.8569 H   0  0  0  0  0  0  0  0  0  0  0  0
   -6.1709   10.0114   -2.4222 H   0  0  0  0  0  0  0  0  0  0  0  0
   -7.6728    7.7783   -3.1696 H   0  0  0  0  0  0  0  0  0  0  0  0
  -10.0605    5.9344   -0.5232 H   0  0  0  0  0  0  0  0  0  0  0  0
  -11.0516    6.6903   -2.7012 H   0  0  0  0  0  0  0  0  0  0  0  0
  -10.8218    4.9048   -2.6174 H   0  0  0  0  0  0  0  0  0  0  0  0
   -9.6724    5.9130   -3.5830 H   0  0  0  0  0  0  0  0  0  0  0  0
   -7.7095    4.9698   -2.2131 H   0  0  0  0  0  0  0  0  0  0  0  0
   -8.0071    2.6641    1.0153 H   0  0  0  0  0  0  0  0  0  0  0  0
  -10.5806    4.3687    1.0388 H   0  0  0  0  0  0  0  0  0  0  0  0
  -10.0975    3.0674    2.1712 H   0  0  0  0  0  0  0  0  0  0  0  0
   -9.1946    4.6201    2.1770 H   0  0  0  0  0  0  0  0  0  0  0  0
   -9.9188    3.0094   -1.3141 H   0  0  0  0  0  0  0  0  0  0  0  0
   -8.9056    0.8048    1.5626 H   0  0  0  0  0  0  0  0  0  0  0  0
  -11.4105    1.0502    1.6417 H   0  0  0  0  0  0  0  0  0  0  0  0
  -11.5693   -0.5395    0.8163 H   0  0  0  0  0  0  0  0  0  0  0  0
  -10.8117   -0.4310    2.4514 H   0  0  0  0  0  0  0  0  0  0  0  0
   -8.0204   -0.9646   -0.0896 H   0  0  0  0  0  0  0  0  0  0  0  0
  -10.9754   -3.3185    1.0823 H   0  0  0  0  0  0  0  0  0  0  0  0
   -9.4593   -2.7714   -1.5375 H   0  0  0  0  0  0  0  0  0  0  0  0
  -11.0141   -2.0658   -0.9765 H   0  0  0  0  0  0  0  0  0  0  0  0
  -10.9415   -3.8029   -1.3909 H   0  0  0  0  0  0  0  0  0  0  0  0
   -9.5214   -5.0909    1.5908 H   0  0  0  0  0  0  0  0  0  0  0  0
   -7.9887   -4.4705   -2.0596 H   0  0  0  0  0  0  0  0  0  0  0  0
   -5.6781   -4.2555   -0.8832 H   0  0  0  0  0  0  0  0  0  0  0  0
   -7.0156   -3.1936   -0.3524 H   0  0  0  0  0  0  0  0  0  0  0  0
   -6.5796   -4.6033    0.6561 H   0  0  0  0  0  0  0  0  0  0  0  0
   -7.0030   -6.3684   -2.7849 H   0  0  0  0  0  0  0  0  0  0  0  0
   -5.6351   -6.5912    0.5170 H   0  0  0  0  0  0  0  0  0  0  0  0
   -7.4715   -8.9377    1.2835 H   0  0  0  0  0  0  0  0  0  0  0  0
   -6.5416   -7.8738    2.4035 H   0  0  0  0  0  0  0  0  0  0  0  0
   -7.8949   -7.1902    1.4485 H   0  0  0  0  0  0  0  0  0  0  0  0
   -5.3067   -9.5756    0.0714 H   0  0  0  0  0  0  0  0  0  0  0  0
    3.6562    4.2796   -1.9106 H   0  0  0  0  0  0  0  0  0  0  0  0
    4.3982    4.5604    1.0304 H   0  0  0  0  0  0  0  0  0  0  0  0
    5.3230    6.7615    0.4374 H   0  0  0  0  0  0  0  0  0  0  0  0
    3.5812    6.6727    0.0107 H   0  0  0  0  0  0  0  0  0  0  0  0
    4.8266    6.5338   -1.2867 H   0  0  0  0  0  0  0  0  0  0  0  0
    6.9449    2.3967    0.1636 H   0  0  0  0  0  0  0  0  0  0  0  0
    7.9540    2.9511    2.1304 H   0  0  0  0  0  0  0  0  0  0  0  0
    6.8668    4.1410    3.8446 H   0  0  0  0  0  0  0  0  0  0  0  0
    5.5880    3.2573    2.9391 H   0  0  0  0  0  0  0  0  0  0  0  0
    5.8069    5.0388    2.7115 H   0  0  0  0  0  0  0  0  0  0  0  0
   10.1582    5.8390    1.5256 H   0  0  0  0  0  0  0  0  0  0  0  0
    9.8722    2.8570    1.0988 H   0  0  0  0  0  0  0  0  0  0  0  0
   11.4629    2.4428    2.9837 H   0  0  0  0  0  0  0  0  0  0  0  0
    9.9204    3.1708    3.5566 H   0  0  0  0  0  0  0  0  0  0  0  0
   11.3976    4.1990    3.4131 H   0  0  0  0  0  0  0  0  0  0  0  0
   12.9700    3.1688   -0.8789 H   0  0  0  0  0  0  0  0  0  0  0  0
   11.4864    1.1271    0.6548 H   0  0  0  0  0  0  0  0  0  0  0  0
   12.8373    0.9304   -2.1089 H   0  0  0  0  0  0  0  0  0  0  0  0
   13.6624    0.7112   -0.5107 H   0  0  0  0  0  0  0  0  0  0  0  0
   12.3785   -0.4342   -1.0188 H   0  0  0  0  0  0  0  0  0  0  0  0
    8.5098    0.7685   -0.3402 H   0  0  0  0  0  0  0  0  0  0  0  0
   10.3522   -0.9213   -2.0796 H   0  0  0  0  0  0  0  0  0  0  0  0
    8.1106   -0.4379   -3.0038 H   0  0  0  0  0  0  0  0  0  0  0  0
    8.3462   -2.1866   -2.6954 H   0  0  0  0  0  0  0  0  0  0  0  0
    7.3352   -1.1900   -1.5686 H   0  0  0  0  0  0  0  0  0  0  0  0
    7.9729   -3.0253   -0.2381 H   0  0  0  0  0  0  0  0  0  0  0  0
   10.2139   -4.0970    1.2677 H   0  0  0  0  0  0  0  0  0  0  0  0
   11.1329   -5.7353   -0.4496 H   0  0  0  0  0  0  0  0  0  0  0  0
   11.5574   -4.0099   -0.7365 H   0  0  0  0  0  0  0  0  0  0  0  0
   10.2816   -4.7901   -1.7328 H   0  0  0  0  0  0  0  0  0  0  0  0
    6.7413   -6.1671    0.2450 H   0  0  0  0  0  0  0  0  0  0  0  0
    8.0111   -4.6031   -2.0023 H   0  0  0  0  0  0  0  0  0  0  0  0
    8.0933   -8.8672   -2.3829 H   0  0  0  0  0  0  0  0  0  0  0  0
    7.0450   -8.1841   -1.1003 H   0  0  0  0  0  0  0  0  0  0  0  0
    6.0172   -5.4540   -3.2816 H   0  0  0  0  0  0  0  0  0  0  0  0
    5.3562   -6.1559   -1.7809 H   0  0  0  0  0  0  0  0  0  0  0  0
    5.2832   -3.4621    0.5976 H   0  0  0  0  0  0  0  0  0  0  0  0
    4.7264   -5.0978    0.1399 H   0  0  0  0  0  0  0  0  0  0  0  0
  1  2  1  0
  2  3  2  0
  2  4  1  0
  4  5  1  0
  5  6  1  0
  6  7  1  0
  7  8  1  0
  8  9  1  0
  9 10  1  0
 10 11  2  0
 11 12  1  0
 12 13  2  0
 13 14  1  0
 13 15  1  0
 15 16  1  0
 16 17  1  0
 17 18  1  0
 18 19  1  0
 19 20  1  0
 20 21  2  0
 20 22  1  0
 22 23  1  0
 22 24  1  0
 24 25  1  0
 25 26  2  0
 25 27  1  0
 27 28  1  0
 27 29  1  0
 29 30  1  0
 30 31  2  0
 30 32  1  0
 32 33  1  0
 32 34  1  0
 34 35  1  0
 35 36  2  0
 35 37  1  0
 37 38  1  0
 37 39  1  0
 39 40  1  0
 40 41  2  0
 40 42  1  0
 42 43  1  0
 42 44  1  0
 44 45  1  0
 45 46  2  0
 45 47  1  0
 47 48  1  0
 47 49  1  0
 49 50  1  0
 50 51  2  0
 50 52  1  0
 52 53  1  0
 52 54  1  0
 54 55  1  0
 55 56  2  0
 55 57  1  0
 57 58  1  0
 57 59  1  0
 59 60  1  0
 60 61  2  0
 60 62  1  0
 62 63  1  0
 62 64  1  0
 64 65  1  0
 65 66  2  0
 18 67  1  0
 67 68  2  0
 67 69  1  0
 69 70  1  0
 70 71  1  0
 70 72  1  0
 72 73  2  0
 72 74  1  0
 74 75  1  0
 75 76  1  0
 75 77  1  0
 77 78  2  0
 77 79  1  0
 79 80  1  0
 80 81  1  0
 80 82  1  0
 82 83  2  0
 82 84  1  0
 84 85  1  0
 85 86  1  0
 85 87  1  0
 87 88  2  0
 87 89  1  0
 89 90  1  0
 90 91  1  0
 90 92  1  0
 92 93  2  0
 92 94  1  0
 94 95  1  0
 95 96  1  0
 95 97  1  0
 97 98  2  0
 97 99  1  0
 99100  1  0
100101  1  0
101102  1  0
101103  2  0
100104  1  0
104105  1  0
105106  1  0
 65  5  1  0
 14  9  2  0
106 11  1  0
  1107  1  0
  1108  1  0
  1109  1  0
  4110  1  0
  5111  1  1
  6112  1  0
  6113  1  0
  8114  1  0
  8115  1  0
 10116  1  0
 12117  1  0
 14118  1  0
 15119  1  0
 15120  1  0
 17121  1  0
 17122  1  0
 18123  1  1
 19124  1  0
 22125  1  6
 23126  1  0
 23127  1  0
 23128  1  0
 24129  1  0
 27130  1  1
 28131  1  0
 28132  1  0
 28133  1  0
 29134  1  0
 32135  1  1
 33136  1  0
 33137  1  0
 33138  1  0
 34139  1  0
 37140  1  1
 38141  1  0
 38142  1  0
 38143  1  0
 39144  1  0
 42145  1  1
 43146  1  0
 43147  1  0
 43148  1  0
 44149  1  0
 47150  1  1
 48151  1  0
 48152  1  0
 48153  1  0
 49154  1  0
 52155  1  1
 53156  1  0
 53157  1  0
 53158  1  0
 54159  1  0
 57160  1  6
 58161  1  0
 58162  1  0
 58163  1  0
 59164  1  0
 62165  1  1
 63166  1  0
 63167  1  0
 63168  1  0
 64169  1  0
 69170  1  0
 70171  1  1
 71172  1  0
 71173  1  0
 71174  1  0
 74175  1  0
 75176  1  1
 76177  1  0
 76178  1  0
 76179  1  0
 79180  1  0
 80181  1  6
 81182  1  0
 81183  1  0
 81184  1  0
 84185  1  0
 85186  1  1
 86187  1  0
 86188  1  0
 86189  1  0
 89190  1  0
 90191  1  6
 91192  1  0
 91193  1  0
 91194  1  0
 94195  1  0
 95196  1  1
 96197  1  0
 96198  1  0
 96199  1  0
 99200  1  0
100201  1  1
102202  1  0
102203  1  0
104204  1  0
104205  1  0
106206  1  0
106207  1  0
M  END
