
     RDKit          3D

187189  0  0  0  0  0  0  0  0999 V2000
    1.2209    9.5327    0.3943 C   0  0  0  0  0  0  0  0  0  0  0  0
    0.8092    8.9490    1.7126 C   0  0  0  0  0  0  0  0  0  0  0  0
    0.1780    9.6749    2.5277 O   0  0  0  0  0  0  0  0  0  0  0  0
    1.1131    7.5892    2.0829 N   0  0  0  0  0  0  0  0  0  0  0  0
    1.5489    6.5379    1.1510 C   0  0  2  0  0  0  0  0  0  0  0  0
    0.3425    5.7016    0.6748 C   0  0  0  0  0  0  0  0  0  0  0  0
   -1.0105    6.7730    0.0462 S   0  0  0  0  0  0  0  0  0  0  0  0
   -1.6205    5.6610   -1.2648 C   0  0  0  0  0  0  0  0  0  0  0  0
   -2.1373    4.3615   -0.7139 C   0  0  0  0  0  0  0  0  0  0  0  0
   -3.1743    4.3552    0.2340 C   0  0  0  0  0  0  0  0  0  0  0  0
   -3.7120    3.1414    0.6933 C   0  0  0  0  0  0  0  0  0  0  0  0
   -3.2187    1.9331    0.1783 C   0  0  0  0  0  0  0  0  0  0  0  0
   -2.1961    1.9297   -0.7818 C   0  0  0  0  0  0  0  0  0  0  0  0
   -1.6467    3.1461   -1.2096 C   0  0  0  0  0  0  0  0  0  0  0  0
   -1.8208    0.6507   -1.4776 C   0  0  0  0  0  0  0  0  0  0  0  0
   -1.3333   -0.6460   -0.2821 S   0  0  0  0  0  0  0  0  0  0  0  0
   -2.3212   -1.9627   -1.0727 C   0  0  0  0  0  0  0  0  0  0  0  0
   -1.9270   -3.3395   -0.5164 C   0  0  2  0  0  0  0  0  0  0  0  0
   -0.5557   -3.6462   -0.9319 N   0  0  0  0  0  0  0  0  0  0  0  0
    0.4509   -4.3383   -0.1655 C   0  0  0  0  0  0  0  0  0  0  0  0
    1.6198   -4.3330   -0.6226 O   0  0  0  0  0  0  0  0  0  0  0  0
    0.1889   -5.1469    1.0878 C   0  0  1  0  0  0  0  0  0  0  0  0
   -0.2594   -4.3019    2.2918 C   0  0  0  0  0  0  0  0  0  0  0  0
   -0.7458   -6.2424    0.8157 N   0  0  0  0  0  0  0  0  0  0  0  0
   -0.3647   -7.5026    0.2322 C   0  0  0  0  0  0  0  0  0  0  0  0
   -1.2744   -8.2340   -0.2501 O   0  0  0  0  0  0  0  0  0  0  0  0
    1.0826   -7.9584    0.1630 C   0  0  1  0  0  0  0  0  0  0  0  0
    1.1949   -9.4726   -0.0772 C   0  0  0  0  0  0  0  0  0  0  0  0
    1.7901   -7.2463   -0.9048 N   0  0  0  0  0  0  0  0  0  0  0  0
    3.2158   -7.0286   -0.9542 C   0  0  0  0  0  0  0  0  0  0  0  0
    3.7160   -6.6057   -2.0326 O   0  0  0  0  0  0  0  0  0  0  0  0
    4.1138   -7.2544    0.2471 C   0  0  1  0  0  0  0  0  0  0  0  0
    5.5730   -7.5893   -0.1110 C   0  0  0  0  0  0  0  0  0  0  0  0
    4.0086   -6.1494    1.2112 N   0  0  0  0  0  0  0  0  0  0  0  0
    4.1578   -4.7395    0.9593 C   0  0  0  0  0  0  0  0  0  0  0  0
    3.4654   -3.9341    1.6401 O   0  0  0  0  0  0  0  0  0  0  0  0
    5.1688   -4.1664   -0.0050 C   0  0  1  0  0  0  0  0  0  0  0  0
    4.4892   -3.3674   -1.1245 C   0  0  0  0  0  0  0  0  0  0  0  0
    6.0772   -3.2846    0.7277 N   0  0  0  0  0  0  0  0  0  0  0  0
    7.4693   -3.5684    0.8794 C   0  0  0  0  0  0  0  0  0  0  0  0
    7.8840   -4.0713    1.9605 O   0  0  0  0  0  0  0  0  0  0  0  0
    8.4590   -3.1937   -0.1918 C   0  0  1  0  0  0  0  0  0  0  0  0
    8.3452   -4.1142   -1.4108 C   0  0  0  0  0  0  0  0  0  0  0  0
    8.2602   -1.7983   -0.5896 N   0  0  0  0  0  0  0  0  0  0  0  0
    9.3640   -0.8972   -0.7110 C   0  0  0  0  0  0  0  0  0  0  0  0
   10.3277   -1.1952   -1.4728 O   0  0  0  0  0  0  0  0  0  0  0  0
    9.3386    0.4374    0.0004 C   0  0  1  0  0  0  0  0  0  0  0  0
    8.9430    0.2438    1.4692 C   0  0  0  0  0  0  0  0  0  0  0  0
   10.6656    1.0647   -0.0523 N   0  0  0  0  0  0  0  0  0  0  0  0
   10.9109    2.4595   -0.2987 C   0  0  0  0  0  0  0  0  0  0  0  0
   12.0941    2.8210   -0.5502 O   0  0  0  0  0  0  0  0  0  0  0  0
    9.8085    3.5014   -0.3125 C   0  0  1  0  0  0  0  0  0  0  0  0
   10.3257    4.8085    0.3126 C   0  0  0  0  0  0  0  0  0  0  0  0
    9.3649    3.7161   -1.6984 N   0  0  0  0  0  0  0  0  0  0  0  0
    8.1758    4.4110   -2.1203 C   0  0  0  0  0  0  0  0  0  0  0  0
    7.9089    4.4394   -3.3527 O   0  0  0  0  0  0  0  0  0  0  0  0
    7.3027    5.2137   -1.1751 C   0  0  1  0  0  0  0  0  0  0  0  0
    7.7193    6.6899   -1.2623 C   0  0  0  0  0  0  0  0  0  0  0  0
    5.8800    5.0738   -1.5329 N   0  0  0  0  0  0  0  0  0  0  0  0
    4.7948    5.7617   -0.8814 C   0  0  0  0  0  0  0  0  0  0  0  0
    3.7619    6.0291   -1.5542 O   0  0  0  0  0  0  0  0  0  0  0  0
    4.7950    6.0703    0.5984 C   0  0  1  0  0  0  0  0  0  0  0  0
    4.6188    7.5718    0.8744 C   0  0  0  0  0  0  0  0  0  0  0  0
    3.7900    5.2247    1.2627 N   0  0  0  0  0  0  0  0  0  0  0  0
    2.5439    5.6358    1.8570 C   0  0  0  0  0  0  0  0  0  0  0  0
    2.2201    5.1326    2.9692 O   0  0  0  0  0  0  0  0  0  0  0  0
   -2.8762   -4.3994   -1.0340 C   0  0  0  0  0  0  0  0  0  0  0  0
   -2.4753   -5.1868   -1.9364 O   0  0  0  0  0  0  0  0  0  0  0  0
   -4.2284   -4.5313   -0.5628 N   0  0  0  0  0  0  0  0  0  0  0  0
   -4.8309   -3.7675    0.5358 C   0  0  2  0  0  0  0  0  0  0  0  0
   -5.1516   -4.7191    1.6903 C   0  0  0  0  0  0  0  0  0  0  0  0
   -6.0307   -2.9967    0.0209 C   0  0  0  0  0  0  0  0  0  0  0  0
   -5.8729   -2.2193   -0.9567 O   0  0  0  0  0  0  0  0  0  0  0  0
   -7.3086   -3.0202    0.6735 N   0  0  0  0  0  0  0  0  0  0  0  0
   -8.2523   -4.1441    0.5649 C   0  0  2  0  0  0  0  0  0  0  0  0
   -8.2029   -4.7989   -0.8228 C   0  0  0  0  0  0  0  0  0  0  0  0
   -9.6694   -3.7161    0.8781 C   0  0  0  0  0  0  0  0  0  0  0  0
  -10.5061   -4.5893    1.2371 O   0  0  0  0  0  0  0  0  0  0  0  0
  -10.0882   -2.3474    0.7906 N   0  0  0  0  0  0  0  0  0  0  0  0
  -10.7876   -1.7658   -0.3625 C   0  0  2  0  0  0  0  0  0  0  0  0
  -11.4578   -2.8277   -1.2455 C   0  0  0  0  0  0  0  0  0  0  0  0
   -9.8428   -0.9219   -1.1767 C   0  0  0  0  0  0  0  0  0  0  0  0
   -8.8069   -1.4452   -1.6702 O   0  0  0  0  0  0  0  0  0  0  0  0
  -10.1568    0.4397   -1.4928 N   0  0  0  0  0  0  0  0  0  0  0  0
   -9.9798    1.5259   -0.5180 C   0  0  2  0  0  0  0  0  0  0  0  0
  -11.1367    1.5462    0.4915 C   0  0  0  0  0  0  0  0  0  0  0  0
   -9.9293    2.8675   -1.2305 C   0  0  0  0  0  0  0  0  0  0  0  0
  -10.8049    3.1298   -2.1024 O   0  0  0  0  0  0  0  0  0  0  0  0
   -8.9642    3.8835   -0.9082 N   0  0  0  0  0  0  0  0  0  0  0  0
   -8.0438    3.8172    0.2338 C   0  0  2  0  0  0  0  0  0  0  0  0
   -7.6950    5.2189    0.6874 C   0  0  0  0  0  0  0  0  0  0  0  0
   -8.6312    5.9736    1.4525 N   0  0  0  0  0  0  0  0  0  0  0  0
   -6.5929    5.7510    0.3710 O   0  0  0  0  0  0  0  0  0  0  0  0
   -6.8094    2.9706   -0.1322 C   0  0  0  0  0  0  0  0  0  0  0  0
   -6.1912    2.0445    1.3240 S   0  0  0  0  0  0  0  0  0  0  0  0
   -4.7933    3.1483    1.7434 C   0  0  0  0  0  0  0  0  0  0  0  0
    0.7924   10.5524    0.2782 H   0  0  0  0  0  0  0  0  0  0  0  0
    0.8540    8.9153   -0.4454 H   0  0  0  0  0  0  0  0  0  0  0  0
    2.3246    9.6214    0.3482 H   0  0  0  0  0  0  0  0  0  0  0  0
    0.7736    7.2799    3.0234 H   0  0  0  0  0  0  0  0  0  0  0  0
    2.0156    6.9752    0.2492 H   0  0  0  0  0  0  0  0  0  0  0  0
    0.6840    5.0029   -0.1209 H   0  0  0  0  0  0  0  0  0  0  0  0
   -0.0672    5.1006    1.5168 H   0  0  0  0  0  0  0  0  0  0  0  0
   -2.4522    6.1767   -1.7846 H   0  0  0  0  0  0  0  0  0  0  0  0
   -0.8137    5.4994   -2.0099 H   0  0  0  0  0  0  0  0  0  0  0  0
   -3.5635    5.2980    0.6046 H   0  0  0  0  0  0  0  0  0  0  0  0
   -3.6514    0.9954    0.4989 H   0  0  0  0  0  0  0  0  0  0  0  0
   -0.8715    3.1504   -1.9690 H   0  0  0  0  0  0  0  0  0  0  0  0
   -0.9619    0.8032   -2.1651 H   0  0  0  0  0  0  0  0  0  0  0  0
   -2.6878    0.3442   -2.1019 H   0  0  0  0  0  0  0  0  0  0  0  0
   -3.3857   -1.7461   -0.8820 H   0  0  0  0  0  0  0  0  0  0  0  0
   -2.1561   -1.9502   -2.1686 H   0  0  0  0  0  0  0  0  0  0  0  0
   -1.9797   -3.3010    0.5794 H   0  0  0  0  0  0  0  0  0  0  0  0
   -0.2363   -3.2602   -1.8536 H   0  0  0  0  0  0  0  0  0  0  0  0
    1.1593   -5.5764    1.4000 H   0  0  0  0  0  0  0  0  0  0  0  0
   -1.3623   -4.2939    2.4136 H   0  0  0  0  0  0  0  0  0  0  0  0
    0.1095   -3.2552    2.2057 H   0  0  0  0  0  0  0  0  0  0  0  0
    0.1577   -4.7318    3.2246 H   0  0  0  0  0  0  0  0  0  0  0  0
   -1.7664   -6.0577    0.9319 H   0  0  0  0  0  0  0  0  0  0  0  0
    1.5512   -7.7465    1.1442 H   0  0  0  0  0  0  0  0  0  0  0  0
    2.2593   -9.7811   -0.1289 H   0  0  0  0  0  0  0  0  0  0  0  0
    0.7097   -9.7467   -1.0383 H   0  0  0  0  0  0  0  0  0  0  0  0
    0.7046  -10.0278    0.7495 H   0  0  0  0  0  0  0  0  0  0  0  0
    1.2373   -6.9644   -1.7498 H   0  0  0  0  0  0  0  0  0  0  0  0
    3.7472   -8.1691    0.7614 H   0  0  0  0  0  0  0  0  0  0  0  0
    5.9396   -7.0441   -1.0029 H   0  0  0  0  0  0  0  0  0  0  0  0
    5.6622   -8.6717   -0.3409 H   0  0  0  0  0  0  0  0  0  0  0  0
    6.2412   -7.3670    0.7467 H   0  0  0  0  0  0  0  0  0  0  0  0
    3.5922   -6.3986    2.1392 H   0  0  0  0  0  0  0  0  0  0  0  0
    5.7518   -4.9713   -0.4724 H   0  0  0  0  0  0  0  0  0  0  0  0
    5.2522   -2.9847   -1.8363 H   0  0  0  0  0  0  0  0  0  0  0  0
    3.9450   -2.4968   -0.7025 H   0  0  0  0  0  0  0  0  0  0  0  0
    3.7934   -4.0133   -1.6903 H   0  0  0  0  0  0  0  0  0  0  0  0
    5.6851   -2.4865    1.2786 H   0  0  0  0  0  0  0  0  0  0  0  0
    9.4883   -3.3175    0.2222 H   0  0  0  0  0  0  0  0  0  0  0  0
    9.1827   -3.9139   -2.1070 H   0  0  0  0  0  0  0  0  0  0  0  0
    7.3934   -3.9408   -1.9514 H   0  0  0  0  0  0  0  0  0  0  0  0
    8.3955   -5.1769   -1.0946 H   0  0  0  0  0  0  0  0  0  0  0  0
    7.2912   -1.4223   -0.7274 H   0  0  0  0  0  0  0  0  0  0  0  0
    8.5748    1.0717   -0.4954 H   0  0  0  0  0  0  0  0  0  0  0  0
    7.9048   -0.1459    1.5419 H   0  0  0  0  0  0  0  0  0  0  0  0
    9.6382   -0.4674    1.9633 H   0  0  0  0  0  0  0  0  0  0  0  0
    8.9882    1.2162    2.0008 H   0  0  0  0  0  0  0  0  0  0  0  0
   11.5002    0.4638    0.1461 H   0  0  0  0  0  0  0  0  0  0  0  0
    8.9561    3.1431    0.3032 H   0  0  0  0  0  0  0  0  0  0  0  0
   11.0313    5.3209   -0.3771 H   0  0  0  0  0  0  0  0  0  0  0  0
    9.4963    5.4997    0.5572 H   0  0  0  0  0  0  0  0  0  0  0  0
   10.8499    4.5951    1.2690 H   0  0  0  0  0  0  0  0  0  0  0  0
    9.9281    3.2786   -2.4657 H   0  0  0  0  0  0  0  0  0  0  0  0
    7.4394    4.8405   -0.1447 H   0  0  0  0  0  0  0  0  0  0  0  0
    7.3534    7.2456   -0.3759 H   0  0  0  0  0  0  0  0  0  0  0  0
    7.3047    7.1596   -2.1814 H   0  0  0  0  0  0  0  0  0  0  0  0
    8.8269    6.7977   -1.2877 H   0  0  0  0  0  0  0  0  0  0  0  0
    5.6232    4.5444   -2.3982 H   0  0  0  0  0  0  0  0  0  0  0  0
    5.7794    5.7976    1.0347 H   0  0  0  0  0  0  0  0  0  0  0  0
    3.9437    8.0487    0.1353 H   0  0  0  0  0  0  0  0  0  0  0  0
    5.5915    8.0959    0.7945 H   0  0  0  0  0  0  0  0  0  0  0  0
    4.2372    7.7521    1.9010 H   0  0  0  0  0  0  0  0  0  0  0  0
    4.1063    4.2540    1.4977 H   0  0  0  0  0  0  0  0  0  0  0  0
   -4.8090   -5.2731   -1.0134 H   0  0  0  0  0  0  0  0  0  0  0  0
   -4.1295   -3.0142    0.9341 H   0  0  0  0  0  0  0  0  0  0  0  0
   -5.6871   -4.1864    2.5055 H   0  0  0  0  0  0  0  0  0  0  0  0
   -4.2027   -5.1236    2.1073 H   0  0  0  0  0  0  0  0  0  0  0  0
   -5.7630   -5.5735    1.3357 H   0  0  0  0  0  0  0  0  0  0  0  0
   -7.6246   -2.1132    1.0763 H   0  0  0  0  0  0  0  0  0  0  0  0
   -7.9714   -4.9082    1.3184 H   0  0  0  0  0  0  0  0  0  0  0  0
   -7.2261   -5.3068   -0.9687 H   0  0  0  0  0  0  0  0  0  0  0  0
   -8.9951   -5.5689   -0.9174 H   0  0  0  0  0  0  0  0  0  0  0  0
   -8.3315   -4.0423   -1.6229 H   0  0  0  0  0  0  0  0  0  0  0  0
  -10.0765   -1.7920    1.6754 H   0  0  0  0  0  0  0  0  0  0  0  0
  -11.6091   -1.1268    0.0127 H   0  0  0  0  0  0  0  0  0  0  0  0
  -10.7102   -3.5047   -1.7005 H   0  0  0  0  0  0  0  0  0  0  0  0
  -12.0304   -2.3365   -2.0592 H   0  0  0  0  0  0  0  0  0  0  0  0
  -12.1695   -3.4289   -0.6437 H   0  0  0  0  0  0  0  0  0  0  0  0
  -10.1724    0.6756   -2.5099 H   0  0  0  0  0  0  0  0  0  0  0  0
   -9.0447    1.3457    0.0430 H   0  0  0  0  0  0  0  0  0  0  0  0
  -12.1112    1.4704   -0.0349 H   0  0  0  0  0  0  0  0  0  0  0  0
  -11.1115    2.4838    1.0832 H   0  0  0  0  0  0  0  0  0  0  0  0
  -11.0285    0.7067    1.2070 H   0  0  0  0  0  0  0  0  0  0  0  0
   -8.9989    4.7660   -1.4632 H   0  0  0  0  0  0  0  0  0  0  0  0
   -8.5758    3.3430    1.0874 H   0  0  0  0  0  0  0  0  0  0  0  0
   -9.5641    5.5761    1.6945 H   0  0  0  0  0  0  0  0  0  0  0  0
   -8.3943    6.9322    1.7865 H   0  0  0  0  0  0  0  0  0  0  0  0
   -7.0890    2.2022   -0.8869 H   0  0  0  0  0  0  0  0  0  0  0  0
   -6.0165    3.5786   -0.6223 H   0  0  0  0  0  0  0  0  0  0  0  0
   -5.1802    4.1717    1.9244 H   0  0  0  0  0  0  0  0  0  0  0  0
   -4.3505    2.7996    2.6978 H   0  0  0  0  0  0  0  0  0  0  0  0
  1  2  1  0
  2  3  2  0
  2  4  1  0
  4  5  1  0
  5  6  1  0
  6  7  1  0
  7  8  1  0
  8  9  1  0
  9 10  1  0
 10 11  2  0
 11 12  1  0
 12 13  2  0
 13 14  1  0
 13 15  1  0
 15 16  1  0
 16 17  1  0
 17 18  1  0
 18 19  1  0
 19 20  1  0
 20 21  2  0
 20 22  1  0
 22 23  1  0
 22 24  1  0
 24 25  1  0
 25 26  2  0
 25 27  1  0
 27 28  1  0
 27 29  1  0
 29 30  1  0
 30 31  2  0
 30 32  1  0
 32 33  1  0
 32 34  1  0
 34 35  1  0
 35 36  2  0
 35 37  1  0
 37 38  1  0
 37 39  1  0
 39 40  1  0
 40 41  2  0
 40 42  1  0
 42 43  1  0
 42 44  1  0
 44 45  1  0
 45 46  2  0
 45 47  1  0
 47 48  1  0
 47 49  1  0
 49 50  1  0
 50 51  2  0
 50 52  1  0
 52 53  1  0
 52 54  1  0
 54 55  1  0
 55 56  2  0
 55 57  1  0
 57 58  1  0
 57 59  1  0
 59 60  1  0
 60 61  2  0
 60 62  1  0
 62 63  1  0
 62 64  1  0
 64 65  1  0
 65 66  2  0
 18 67  1  0
 67 68  2  0
 67 69  1  0
 69 70  1  0
 70 71  1  0
 70 72  1  0
 72 73  2  0
 72 74  1  0
 74 75  1  0
 75 76  1  0
 75 77  1  0
 77 78  2  0
 77 79  1  0
 79 80  1  0
 80 81  1  0
 80 82  1  0
 82 83  2  0
 82 84  1  0
 84 85  1  0
 85 86  1  0
 85 87  1  0
 87 88  2  0
 87 89  1  0
 89 90  1  0
 90 91  1  0
 91 92  1  0
 91 93  2  0
 90 94  1  0
 94 95  1  0
 95 96  1  0
 65  5  1  0
 14  9  2  0
 96 11  1  0
  1 97  1  0
  1 98  1  0
  1 99  1  0
  4100  1  0
  5101  1  6
  6102  1  0
  6103  1  0
  8104  1  0
  8105  1  0
 10106  1  0
 12107  1  0
 14108  1  0
 15109  1  0
 15110  1  0
 17111  1  0
 17112  1  0
 18113  1  1
 19114  1  0
 22115  1  1
 23116  1  0
 23117  1  0
 23118  1  0
 24119  1  0
 27120  1  1
 28121  1  0
 28122  1  0
 28123  1  0
 29124  1  0
 32125  1  1
 33126  1  0
 33127  1  0
 33128  1  0
 34129  1  0
 37130  1  6
 38131  1  0
 38132  1  0
 38133  1  0
 39134  1  0
 42135  1  1
 43136  1  0
 43137  1  0
 43138  1  0
 44139  1  0
 47140  1  6
 48141  1  0
 48142  1  0
 48143  1  0
 49144  1  0
 52145  1  1
 53146  1  0
 53147  1  0
 53148  1  0
 54149  1  0
 57150  1  1
 58151  1  0
 58152  1  0
 58153  1  0
 59154  1  0
 62155  1  1
 63156  1  0
 63157  1  0
 63158  1  0
 64159  1  0
 69160  1  0
 70161  1  1
 71162  1  0
 71163  1  0
 71164  1  0
 74165  1  0
 75166  1  1
 76167  1  0
 76168  1  0
 76169  1  0
 79170  1  0
 80171  1  1
 81172  1  0
 81173  1  0
 81174  1  0
 84175  1  0
 85176  1  1
 86177  1  0
 86178  1  0
 86179  1  0
 89180  1  0
 90181  1  1
 92182  1  0
 92183  1  0
 94184  1  0
 94185  1  0
 96186  1  0
 96187  1  0
M  END
