
     RDKit          3D

147149  0  0  0  0  0  0  0  0999 V2000
   10.2469   -0.7791   -2.1291 C   0  0  0  0  0  0  0  0  0  0  0  0
   10.3651   -1.5213   -0.8317 C   0  0  0  0  0  0  0  0  0  0  0  0
   11.2767   -2.3835   -0.7044 O   0  0  0  0  0  0  0  0  0  0  0  0
    9.4841   -1.2676    0.2786 N   0  0  0  0  0  0  0  0  0  0  0  0
    8.2671   -0.4467    0.1935 C   0  0  1  0  0  0  0  0  0  0  0  0
    7.0725   -1.2979   -0.2919 C   0  0  0  0  0  0  0  0  0  0  0  0
    6.9237   -2.9479    0.5119 S   0  0  0  0  0  0  0  0  0  0  0  0
    5.8211   -2.4873    1.8944 C   0  0  0  0  0  0  0  0  0  0  0  0
    4.3984   -2.8688    1.5987 C   0  0  0  0  0  0  0  0  0  0  0  0
    3.8442   -4.0509    2.1190 C   0  0  0  0  0  0  0  0  0  0  0  0
    2.4866   -4.3573    1.9309 C   0  0  0  0  0  0  0  0  0  0  0  0
    1.6849   -3.4636    1.1884 C   0  0  0  0  0  0  0  0  0  0  0  0
    2.2415   -2.3098    0.5977 C   0  0  0  0  0  0  0  0  0  0  0  0
    3.5916   -2.0106    0.8437 C   0  0  0  0  0  0  0  0  0  0  0  0
    1.3448   -1.3860   -0.2087 C   0  0  0  0  0  0  0  0  0  0  0  0
    2.2410   -0.3051   -1.4054 S   0  0  0  0  0  0  0  0  0  0  0  0
    2.5037    1.1258   -0.2849 C   0  0  0  0  0  0  0  0  0  0  0  0
    3.9151    1.7197   -0.4664 C   0  0  2  0  0  0  0  0  0  0  0  0
    4.2712    2.5992    0.6556 N   0  0  0  0  0  0  0  0  0  0  0  0
    5.6031    3.0770    0.9252 C   0  0  0  0  0  0  0  0  0  0  0  0
    5.7369    4.1057    1.6495 O   0  0  0  0  0  0  0  0  0  0  0  0
    6.8487    2.3268    0.4856 C   0  0  1  0  0  0  0  0  0  0  0  0
    7.9301    3.3045    0.0138 C   0  0  0  0  0  0  0  0  0  0  0  0
    7.3650    1.5317    1.6097 N   0  0  0  0  0  0  0  0  0  0  0  0
    7.9647    0.2240    1.5195 C   0  0  0  0  0  0  0  0  0  0  0  0
    8.2232   -0.3928    2.5970 O   0  0  0  0  0  0  0  0  0  0  0  0
    4.0683    2.4353   -1.7933 C   0  0  0  0  0  0  0  0  0  0  0  0
    4.5787    1.8008   -2.7583 O   0  0  0  0  0  0  0  0  0  0  0  0
    3.7291    3.8198   -1.9893 N   0  0  0  0  0  0  0  0  0  0  0  0
    2.6529    4.5441   -1.2996 C   0  0  2  0  0  0  0  0  0  0  0  0
    1.4431    4.5988   -2.2391 C   0  0  0  0  0  0  0  0  0  0  0  0
    3.1669    5.9149   -0.8814 C   0  0  0  0  0  0  0  0  0  0  0  0
    4.4209    6.0833   -0.8036 O   0  0  0  0  0  0  0  0  0  0  0  0
    2.3255    7.0308   -0.5034 N   0  0  0  0  0  0  0  0  0  0  0  0
    0.8973    7.0003   -0.1576 C   0  0  2  0  0  0  0  0  0  0  0  0
    0.4585    8.3969    0.2941 C   0  0  0  0  0  0  0  0  0  0  0  0
    0.6261    5.9957    0.9370 C   0  0  0  0  0  0  0  0  0  0  0  0
    1.4993    5.8017    1.8269 O   0  0  0  0  0  0  0  0  0  0  0  0
   -0.5990    5.2468    0.9989 N   0  0  0  0  0  0  0  0  0  0  0  0
   -1.8965    5.7873    0.5891 C   0  0  2  0  0  0  0  0  0  0  0  0
   -2.5407    6.5213    1.7735 C   0  0  0  0  0  0  0  0  0  0  0  0
   -2.7750    4.6900    0.0369 C   0  0  0  0  0  0  0  0  0  0  0  0
   -2.3784    4.0280   -0.9542 O   0  0  0  0  0  0  0  0  0  0  0  0
   -4.0810    4.4282    0.5714 N   0  0  0  0  0  0  0  0  0  0  0  0
   -5.2391    4.1456   -0.3001 C   0  0  2  0  0  0  0  0  0  0  0  0
   -5.4493    5.2967   -1.2984 C   0  0  0  0  0  0  0  0  0  0  0  0
   -6.5039    3.9547    0.5087 C   0  0  0  0  0  0  0  0  0  0  0  0
   -6.6744    4.6494    1.5464 O   0  0  0  0  0  0  0  0  0  0  0  0
   -7.5496    3.0505    0.1080 N   0  0  0  0  0  0  0  0  0  0  0  0
   -7.6288    2.3324   -1.1633 C   0  0  2  0  0  0  0  0  0  0  0  0
   -8.9706    2.6551   -1.8341 C   0  0  0  0  0  0  0  0  0  0  0  0
   -7.4938    0.8416   -0.9569 C   0  0  0  0  0  0  0  0  0  0  0  0
   -7.6494    0.0765   -1.9506 O   0  0  0  0  0  0  0  0  0  0  0  0
   -7.1405    0.2772    0.3195 N   0  0  0  0  0  0  0  0  0  0  0  0
   -7.4928   -1.1018    0.6722 C   0  0  2  0  0  0  0  0  0  0  0  0
   -8.9155   -1.1356    1.2414 C   0  0  0  0  0  0  0  0  0  0  0  0
   -6.5055   -1.6336    1.6895 C   0  0  0  0  0  0  0  0  0  0  0  0
   -6.4448   -1.0755    2.8189 O   0  0  0  0  0  0  0  0  0  0  0  0
   -5.6287   -2.7473    1.4288 N   0  0  0  0  0  0  0  0  0  0  0  0
   -5.5753   -3.5017    0.1686 C   0  0  2  0  0  0  0  0  0  0  0  0
   -6.7529   -4.4859    0.0896 C   0  0  0  0  0  0  0  0  0  0  0  0
   -4.2407   -4.1996    0.0484 C   0  0  0  0  0  0  0  0  0  0  0  0
   -3.2070   -3.5142   -0.2075 O   0  0  0  0  0  0  0  0  0  0  0  0
   -4.1124   -5.6109    0.2445 N   0  0  0  0  0  0  0  0  0  0  0  0
   -4.0876   -6.5385   -0.8873 C   0  0  2  0  0  0  0  0  0  0  0  0
   -5.0343   -7.7106   -0.5976 C   0  0  0  0  0  0  0  0  0  0  0  0
   -2.6963   -7.0580   -1.1681 C   0  0  0  0  0  0  0  0  0  0  0  0
   -2.5359   -7.8824   -2.1098 O   0  0  0  0  0  0  0  0  0  0  0  0
   -1.5518   -6.6297   -0.4055 N   0  0  0  0  0  0  0  0  0  0  0  0
   -0.3295   -7.4446   -0.3419 C   0  0  2  0  0  0  0  0  0  0  0  0
   -0.6385   -8.7948    0.2632 C   0  0  0  0  0  0  0  0  0  0  0  0
   -0.4714   -9.9854   -0.5136 N   0  0  0  0  0  0  0  0  0  0  0  0
   -1.0727   -8.8786    1.4443 O   0  0  0  0  0  0  0  0  0  0  0  0
    0.8089   -6.7343    0.4230 C   0  0  0  0  0  0  0  0  0  0  0  0
    0.2882   -6.1379    2.0732 S   0  0  0  0  0  0  0  0  0  0  0  0
    1.9409   -5.5831    2.6302 C   0  0  0  0  0  0  0  0  0  0  0  0
    9.2457   -0.9513   -2.5721 H   0  0  0  0  0  0  0  0  0  0  0  0
   11.0144   -1.1342   -2.8529 H   0  0  0  0  0  0  0  0  0  0  0  0
   10.4002    0.3076   -1.9642 H   0  0  0  0  0  0  0  0  0  0  0  0
    9.6296   -1.8591    1.1309 H   0  0  0  0  0  0  0  0  0  0  0  0
    8.4384    0.3533   -0.5551 H   0  0  0  0  0  0  0  0  0  0  0  0
    7.2049   -1.4905   -1.3790 H   0  0  0  0  0  0  0  0  0  0  0  0
    6.1350   -0.7348   -0.1955 H   0  0  0  0  0  0  0  0  0  0  0  0
    5.8746   -1.3992    2.1298 H   0  0  0  0  0  0  0  0  0  0  0  0
    6.1790   -3.0365    2.7939 H   0  0  0  0  0  0  0  0  0  0  0  0
    4.4583   -4.7106    2.7188 H   0  0  0  0  0  0  0  0  0  0  0  0
    0.6226   -3.6414    1.0738 H   0  0  0  0  0  0  0  0  0  0  0  0
    4.0205   -1.0991    0.4830 H   0  0  0  0  0  0  0  0  0  0  0  0
    0.7105   -0.7815    0.4737 H   0  0  0  0  0  0  0  0  0  0  0  0
    0.6514   -2.0131   -0.8193 H   0  0  0  0  0  0  0  0  0  0  0  0
    1.7104    1.8808   -0.4843 H   0  0  0  0  0  0  0  0  0  0  0  0
    2.3946    0.8079    0.7708 H   0  0  0  0  0  0  0  0  0  0  0  0
    4.5972    0.8571   -0.4610 H   0  0  0  0  0  0  0  0  0  0  0  0
    3.5064    2.9583    1.2680 H   0  0  0  0  0  0  0  0  0  0  0  0
    6.6163    1.6694   -0.3715 H   0  0  0  0  0  0  0  0  0  0  0  0
    7.5393    3.9443   -0.8127 H   0  0  0  0  0  0  0  0  0  0  0  0
    8.8125    2.7314   -0.3643 H   0  0  0  0  0  0  0  0  0  0  0  0
    8.2714    3.9567    0.8552 H   0  0  0  0  0  0  0  0  0  0  0  0
    7.3311    1.9646    2.5580 H   0  0  0  0  0  0  0  0  0  0  0  0
    4.1376    4.2802   -2.8365 H   0  0  0  0  0  0  0  0  0  0  0  0
    2.3495    4.0175   -0.3822 H   0  0  0  0  0  0  0  0  0  0  0  0
    1.5096    5.4567   -2.9334 H   0  0  0  0  0  0  0  0  0  0  0  0
    0.5016    4.6351   -1.6609 H   0  0  0  0  0  0  0  0  0  0  0  0
    1.3856    3.6627   -2.8462 H   0  0  0  0  0  0  0  0  0  0  0  0
    2.8380    7.9370   -0.3727 H   0  0  0  0  0  0  0  0  0  0  0  0
    0.3219    6.7679   -1.0666 H   0  0  0  0  0  0  0  0  0  0  0  0
    0.6898    9.1504   -0.4883 H   0  0  0  0  0  0  0  0  0  0  0  0
    0.9706    8.6912    1.2336 H   0  0  0  0  0  0  0  0  0  0  0  0
   -0.6365    8.4397    0.4607 H   0  0  0  0  0  0  0  0  0  0  0  0
   -0.6065    4.4064    1.6263 H   0  0  0  0  0  0  0  0  0  0  0  0
   -1.7706    6.5104   -0.2322 H   0  0  0  0  0  0  0  0  0  0  0  0
   -3.5160    6.9601    1.4712 H   0  0  0  0  0  0  0  0  0  0  0  0
   -2.6951    5.8337    2.6301 H   0  0  0  0  0  0  0  0  0  0  0  0
   -1.8777    7.3461    2.1181 H   0  0  0  0  0  0  0  0  0  0  0  0
   -4.1873    4.3515    1.6098 H   0  0  0  0  0  0  0  0  0  0  0  0
   -5.0051    3.2140   -0.8663 H   0  0  0  0  0  0  0  0  0  0  0  0
   -6.3476    5.1038   -1.9205 H   0  0  0  0  0  0  0  0  0  0  0  0
   -5.5856    6.2621   -0.7578 H   0  0  0  0  0  0  0  0  0  0  0  0
   -4.5714    5.3877   -1.9783 H   0  0  0  0  0  0  0  0  0  0  0  0
   -8.3047    2.8708    0.8090 H   0  0  0  0  0  0  0  0  0  0  0  0
   -6.8298    2.6631   -1.8618 H   0  0  0  0  0  0  0  0  0  0  0  0
   -9.0335    2.1536   -2.8227 H   0  0  0  0  0  0  0  0  0  0  0  0
   -9.8093    2.3193   -1.1953 H   0  0  0  0  0  0  0  0  0  0  0  0
   -9.0444    3.7507   -1.9972 H   0  0  0  0  0  0  0  0  0  0  0  0
   -6.7716    0.9085    1.0778 H   0  0  0  0  0  0  0  0  0  0  0  0
   -7.4948   -1.7224   -0.2394 H   0  0  0  0  0  0  0  0  0  0  0  0
   -9.0087   -0.4510    2.1146 H   0  0  0  0  0  0  0  0  0  0  0  0
   -9.1771   -2.1662    1.5563 H   0  0  0  0  0  0  0  0  0  0  0  0
   -9.6430   -0.8130    0.4693 H   0  0  0  0  0  0  0  0  0  0  0  0
   -4.9813   -3.0282    2.1985 H   0  0  0  0  0  0  0  0  0  0  0  0
   -5.6377   -2.8016   -0.6892 H   0  0  0  0  0  0  0  0  0  0  0  0
   -6.7429   -5.0025   -0.8878 H   0  0  0  0  0  0  0  0  0  0  0  0
   -7.7202   -3.9548    0.1890 H   0  0  0  0  0  0  0  0  0  0  0  0
   -6.6844   -5.2347    0.9105 H   0  0  0  0  0  0  0  0  0  0  0  0
   -3.7815   -5.9492    1.1776 H   0  0  0  0  0  0  0  0  0  0  0  0
   -4.4510   -6.0218   -1.8030 H   0  0  0  0  0  0  0  0  0  0  0  0
   -4.6716   -8.2995    0.2716 H   0  0  0  0  0  0  0  0  0  0  0  0
   -5.0985   -8.3846   -1.4824 H   0  0  0  0  0  0  0  0  0  0  0  0
   -6.0544   -7.3377   -0.3778 H   0  0  0  0  0  0  0  0  0  0  0  0
   -1.5927   -5.7277    0.1209 H   0  0  0  0  0  0  0  0  0  0  0  0
    0.0360   -7.5912   -1.3832 H   0  0  0  0  0  0  0  0  0  0  0  0
   -0.1329   -9.9365   -1.5036 H   0  0  0  0  0  0  0  0  0  0  0  0
   -0.6673  -10.9186   -0.0992 H   0  0  0  0  0  0  0  0  0  0  0  0
    1.6675   -7.4314    0.5382 H   0  0  0  0  0  0  0  0  0  0  0  0
    1.1569   -5.8701   -0.1874 H   0  0  0  0  0  0  0  0  0  0  0  0
    1.8581   -5.3476    3.7103 H   0  0  0  0  0  0  0  0  0  0  0  0
    2.6535   -6.4282    2.5168 H   0  0  0  0  0  0  0  0  0  0  0  0
  1  2  1  0
  2  3  2  0
  2  4  1  0
  4  5  1  0
  5  6  1  0
  6  7  1  0
  7  8  1  0
  8  9  1  0
  9 10  1  0
 10 11  2  0
 11 12  1  0
 12 13  2  0
 13 14  1  0
 13 15  1  0
 15 16  1  0
 16 17  1  0
 17 18  1  0
 18 19  1  0
 19 20  1  0
 20 21  2  0
 20 22  1  0
 22 23  1  0
 22 24  1  0
 24 25  1  0
 25 26  2  0
 18 27  1  0
 27 28  2  0
 27 29  1  0
 29 30  1  0
 30 31  1  0
 30 32  1  0
 32 33  2  0
 32 34  1  0
 34 35  1  0
 35 36  1  0
 35 37  1  0
 37 38  2  0
 37 39  1  0
 39 40  1  0
 40 41  1  0
 40 42  1  0
 42 43  2  0
 42 44  1  0
 44 45  1  0
 45 46  1  0
 45 47  1  0
 47 48  2  0
 47 49  1  0
 49 50  1  0
 50 51  1  0
 50 52  1  0
 52 53  2  0
 52 54  1  0
 54 55  1  0
 55 56  1  0
 55 57  1  0
 57 58  2  0
 57 59  1  0
 59 60  1  0
 60 61  1  0
 60 62  1  0
 62 63  2  0
 62 64  1  0
 64 65  1  0
 65 66  1  0
 65 67  1  0
 67 68  2  0
 67 69  1  0
 69 70  1  0
 70 71  1  0
 71 72  1  0
 71 73  2  0
 70 74  1  0
 74 75  1  0
 75 76  1  0
 25  5  1  0
 14  9  2  0
 76 11  1  0
  1 77  1  0
  1 78  1  0
  1 79  1  0
  4 80  1  0
  5 81  1  6
  6 82  1  0
  6 83  1  0
  8 84  1  0
  8 85  1  0
 10 86  1  0
 12 87  1  0
 14 88  1  0
 15 89  1  0
 15 90  1  0
 17 91  1  0
 17 92  1  0
 18 93  1  6
 19 94  1  0
 22 95  1  6
 23 96  1  0
 23 97  1  0
 23 98  1  0
 24 99  1  0
 29100  1  0
 30101  1  1
 31102  1  0
 31103  1  0
 31104  1  0
 34105  1  0
 35106  1  6
 36107  1  0
 36108  1  0
 36109  1  0
 39110  1  0
 40111  1  6
 41112  1  0
 41113  1  0
 41114  1  0
 44115  1  0
 45116  1  6
 46117  1  0
 46118  1  0
 46119  1  0
 49120  1  0
 50121  1  6
 51122  1  0
 51123  1  0
 51124  1  0
 54125  1  0
 55126  1  6
 56127  1  0
 56128  1  0
 56129  1  0
 59130  1  0
 60131  1  6
 61132  1  0
 61133  1  0
 61134  1  0
 64135  1  0
 65136  1  6
 66137  1  0
 66138  1  0
 66139  1  0
 69140  1  0
 70141  1  6
 72142  1  0
 72143  1  0
 74144  1  0
 74145  1  0
 76146  1  0
 76147  1  0
M  END
