
     RDKit          3D

187189  0  0  0  0  0  0  0  0999 V2000
   -0.7527    9.8748    0.6108 C   0  0  0  0  0  0  0  0  0  0  0  0
   -0.1290    8.5685    0.9867 C   0  0  0  0  0  0  0  0  0  0  0  0
   -0.2571    8.1526    2.1710 O   0  0  0  0  0  0  0  0  0  0  0  0
    0.5987    7.8052    0.0152 N   0  0  0  0  0  0  0  0  0  0  0  0
    1.3097    6.5633    0.3316 C   0  0  1  0  0  0  0  0  0  0  0  0
    0.6222    5.3879   -0.4088 C   0  0  0  0  0  0  0  0  0  0  0  0
    0.2897    3.9786    0.7166 S   0  0  0  0  0  0  0  0  0  0  0  0
   -1.3184    4.5898    1.3559 C   0  0  0  0  0  0  0  0  0  0  0  0
   -2.4456    4.0849    0.5003 C   0  0  0  0  0  0  0  0  0  0  0  0
   -3.1240    4.9415   -0.3826 C   0  0  0  0  0  0  0  0  0  0  0  0
   -4.1477    4.4546   -1.2105 C   0  0  0  0  0  0  0  0  0  0  0  0
   -4.4634    3.0850   -1.1734 C   0  0  0  0  0  0  0  0  0  0  0  0
   -3.8307    2.2313   -0.2640 C   0  0  0  0  0  0  0  0  0  0  0  0
   -2.8061    2.7301    0.5512 C   0  0  0  0  0  0  0  0  0  0  0  0
   -4.2057    0.7791   -0.2170 C   0  0  0  0  0  0  0  0  0  0  0  0
   -3.4767   -0.0866   -1.6508 S   0  0  0  0  0  0  0  0  0  0  0  0
   -2.2026   -1.0289   -0.7296 C   0  0  0  0  0  0  0  0  0  0  0  0
   -2.8083   -2.2972   -0.0855 C   0  0  2  0  0  0  0  0  0  0  0  0
   -1.8338   -2.9083    0.8363 N   0  0  0  0  0  0  0  0  0  0  0  0
   -0.6523   -3.5995    0.3729 C   0  0  0  0  0  0  0  0  0  0  0  0
    0.0476   -3.0965   -0.5477 O   0  0  0  0  0  0  0  0  0  0  0  0
   -0.2672   -4.9592    0.9200 C   0  0  1  0  0  0  0  0  0  0  0  0
   -0.6284   -5.1387    2.3989 C   0  0  0  0  0  0  0  0  0  0  0  0
   -0.9420   -5.9890    0.1267 N   0  0  0  0  0  0  0  0  0  0  0  0
   -0.2716   -7.0773   -0.5271 C   0  0  0  0  0  0  0  0  0  0  0  0
   -0.7857   -7.5713   -1.5655 O   0  0  0  0  0  0  0  0  0  0  0  0
    1.0192   -7.6631   -0.0017 C   0  0  1  0  0  0  0  0  0  0  0  0
    0.8572   -9.1741    0.2020 C   0  0  0  0  0  0  0  0  0  0  0  0
    2.1085   -7.3883   -0.9505 N   0  0  0  0  0  0  0  0  0  0  0  0
    3.4860   -7.7604   -0.7634 C   0  0  0  0  0  0  0  0  0  0  0  0
    4.2044   -7.9362   -1.7853 O   0  0  0  0  0  0  0  0  0  0  0  0
    4.1137   -7.9063    0.6100 C   0  0  1  0  0  0  0  0  0  0  0  0
    4.7232   -9.3103    0.7440 C   0  0  0  0  0  0  0  0  0  0  0  0
    5.1634   -6.9039    0.8590 N   0  0  0  0  0  0  0  0  0  0  0  0
    5.5377   -5.8602   -0.0539 C   0  0  0  0  0  0  0  0  0  0  0  0
    4.6414   -5.1479   -0.5895 O   0  0  0  0  0  0  0  0  0  0  0  0
    6.9969   -5.5702   -0.3191 C   0  0  1  0  0  0  0  0  0  0  0  0
    7.7765   -6.8812   -0.5167 C   0  0  0  0  0  0  0  0  0  0  0  0
    7.1493   -4.7384   -1.5196 N   0  0  0  0  0  0  0  0  0  0  0  0
    8.0599   -3.6307   -1.6450 C   0  0  0  0  0  0  0  0  0  0  0  0
    8.3428   -3.2219   -2.8060 O   0  0  0  0  0  0  0  0  0  0  0  0
    8.7188   -2.9718   -0.4563 C   0  0  1  0  0  0  0  0  0  0  0  0
    9.9479   -3.7707   -0.0079 C   0  0  0  0  0  0  0  0  0  0  0  0
    9.1383   -1.6072   -0.8026 N   0  0  0  0  0  0  0  0  0  0  0  0
    8.5016   -0.4680   -0.2238 C   0  0  0  0  0  0  0  0  0  0  0  0
    7.2705   -0.2754   -0.4267 O   0  0  0  0  0  0  0  0  0  0  0  0
    9.2951    0.5432    0.5546 C   0  0  1  0  0  0  0  0  0  0  0  0
   10.2408   -0.1637    1.5363 C   0  0  0  0  0  0  0  0  0  0  0  0
   10.0740    1.3842   -0.3665 N   0  0  0  0  0  0  0  0  0  0  0  0
   10.0830    2.8238   -0.4074 C   0  0  0  0  0  0  0  0  0  0  0  0
   10.8330    3.3883   -1.2457 O   0  0  0  0  0  0  0  0  0  0  0  0
    9.2638    3.6822    0.5361 C   0  0  1  0  0  0  0  0  0  0  0  0
    9.9384    3.7595    1.9139 C   0  0  0  0  0  0  0  0  0  0  0  0
    9.1159    5.0409    0.0002 N   0  0  0  0  0  0  0  0  0  0  0  0
    7.9243    5.7918    0.2340 C   0  0  0  0  0  0  0  0  0  0  0  0
    7.8413    6.5069    1.2661 O   0  0  0  0  0  0  0  0  0  0  0  0
    6.8077    5.8000   -0.7726 C   0  0  1  0  0  0  0  0  0  0  0  0
    7.2411    6.5319   -2.0412 C   0  0  0  0  0  0  0  0  0  0  0  0
    6.4101    4.4253   -1.1109 N   0  0  0  0  0  0  0  0  0  0  0  0
    5.0697    3.8824   -1.0378 C   0  0  0  0  0  0  0  0  0  0  0  0
    4.8296    2.8096   -1.6569 O   0  0  0  0  0  0  0  0  0  0  0  0
    3.9516    4.4892   -0.2108 C   0  0  1  0  0  0  0  0  0  0  0  0
    4.3419    4.5571    1.2756 C   0  0  0  0  0  0  0  0  0  0  0  0
    3.5466    5.7985   -0.7428 N   0  0  0  0  0  0  0  0  0  0  0  0
    2.7796    6.7552   -0.0017 C   0  0  0  0  0  0  0  0  0  0  0  0
    3.3478    7.8156    0.3702 O   0  0  0  0  0  0  0  0  0  0  0  0
   -3.2954   -3.3147   -1.1033 C   0  0  0  0  0  0  0  0  0  0  0  0
   -2.9622   -3.1984   -2.3086 O   0  0  0  0  0  0  0  0  0  0  0  0
   -4.1492   -4.4119   -0.7291 N   0  0  0  0  0  0  0  0  0  0  0  0
   -4.7943   -4.5660    0.5894 C   0  0  2  0  0  0  0  0  0  0  0  0
   -5.0424   -6.0547    0.8799 C   0  0  0  0  0  0  0  0  0  0  0  0
   -6.0915   -3.7995    0.6582 C   0  0  0  0  0  0  0  0  0  0  0  0
   -6.2969   -3.0493    1.6499 O   0  0  0  0  0  0  0  0  0  0  0  0
   -7.1015   -3.9634   -0.3449 N   0  0  0  0  0  0  0  0  0  0  0  0
   -8.4902   -4.2928    0.0043 C   0  0  2  0  0  0  0  0  0  0  0  0
   -9.3172   -4.5891   -1.2610 C   0  0  0  0  0  0  0  0  0  0  0  0
   -9.1334   -3.2244    0.8629 C   0  0  0  0  0  0  0  0  0  0  0  0
   -9.8211   -3.5892    1.8595 O   0  0  0  0  0  0  0  0  0  0  0  0
   -8.8790   -1.8236    0.6813 N   0  0  0  0  0  0  0  0  0  0  0  0
   -9.1438   -1.1102   -0.5663 C   0  0  2  0  0  0  0  0  0  0  0  0
   -7.8850   -0.3758   -1.0199 C   0  0  0  0  0  0  0  0  0  0  0  0
  -10.3213   -0.1806   -0.3740 C   0  0  0  0  0  0  0  0  0  0  0  0
  -11.4849   -0.6700   -0.3412 O   0  0  0  0  0  0  0  0  0  0  0  0
  -10.1557    1.2394   -0.2678 N   0  0  0  0  0  0  0  0  0  0  0  0
   -9.7154    1.8663    0.9803 C   0  0  2  0  0  0  0  0  0  0  0  0
  -10.8758    2.6340    1.6222 C   0  0  0  0  0  0  0  0  0  0  0  0
   -8.5691    2.8105    0.7397 C   0  0  0  0  0  0  0  0  0  0  0  0
   -7.6915    2.9629    1.6279 O   0  0  0  0  0  0  0  0  0  0  0  0
   -8.5117    3.6102   -0.4441 N   0  0  0  0  0  0  0  0  0  0  0  0
   -8.4727    5.0745   -0.3728 C   0  0  2  0  0  0  0  0  0  0  0  0
   -9.5752    5.6780   -1.2064 C   0  0  0  0  0  0  0  0  0  0  0  0
  -10.0999    6.9658   -0.8802 N   0  0  0  0  0  0  0  0  0  0  0  0
  -10.0661    5.0476   -2.1812 O   0  0  0  0  0  0  0  0  0  0  0  0
   -7.0839    5.6103   -0.7622 C   0  0  0  0  0  0  0  0  0  0  0  0
   -6.5760    5.0756   -2.4415 S   0  0  0  0  0  0  0  0  0  0  0  0
   -4.7788    5.3620   -2.2378 C   0  0  0  0  0  0  0  0  0  0  0  0
   -1.8504    9.8425    0.7857 H   0  0  0  0  0  0  0  0  0  0  0  0
   -0.3150   10.6853    1.2320 H   0  0  0  0  0  0  0  0  0  0  0  0
   -0.5702   10.1119   -0.4611 H   0  0  0  0  0  0  0  0  0  0  0  0
    0.6231    8.1426   -0.9742 H   0  0  0  0  0  0  0  0  0  0  0  0
    1.2674    6.3891    1.4302 H   0  0  0  0  0  0  0  0  0  0  0  0
    1.2365    5.0219   -1.2574 H   0  0  0  0  0  0  0  0  0  0  0  0
   -0.3349    5.7162   -0.8688 H   0  0  0  0  0  0  0  0  0  0  0  0
   -1.3208    5.6987    1.4054 H   0  0  0  0  0  0  0  0  0  0  0  0
   -1.4550    4.2139    2.3919 H   0  0  0  0  0  0  0  0  0  0  0  0
   -2.8301    5.9799   -0.4539 H   0  0  0  0  0  0  0  0  0  0  0  0
   -5.2041    2.6644   -1.8432 H   0  0  0  0  0  0  0  0  0  0  0  0
   -2.2788    2.0622    1.2282 H   0  0  0  0  0  0  0  0  0  0  0  0
   -5.3054    0.6838   -0.2801 H   0  0  0  0  0  0  0  0  0  0  0  0
   -3.9043    0.3292    0.7522 H   0  0  0  0  0  0  0  0  0  0  0  0
   -1.4057   -1.2926   -1.4569 H   0  0  0  0  0  0  0  0  0  0  0  0
   -1.7438   -0.3819    0.0511 H   0  0  0  0  0  0  0  0  0  0  0  0
   -3.6812   -1.9713    0.5071 H   0  0  0  0  0  0  0  0  0  0  0  0
   -2.1778   -3.0939    1.7911 H   0  0  0  0  0  0  0  0  0  0  0  0
    0.8389   -5.0508    0.8286 H   0  0  0  0  0  0  0  0  0  0  0  0
   -0.1980   -4.3124    3.0023 H   0  0  0  0  0  0  0  0  0  0  0  0
   -1.7277   -5.1784    2.5459 H   0  0  0  0  0  0  0  0  0  0  0  0
   -0.2084   -6.0998    2.7684 H   0  0  0  0  0  0  0  0  0  0  0  0
   -1.9648   -5.8732   -0.0720 H   0  0  0  0  0  0  0  0  0  0  0  0
    1.2466   -7.2192    0.9869 H   0  0  0  0  0  0  0  0  0  0  0  0
   -0.1166   -9.3999    0.6930 H   0  0  0  0  0  0  0  0  0  0  0  0
    1.6712   -9.5705    0.8413 H   0  0  0  0  0  0  0  0  0  0  0  0
    0.8788   -9.6990   -0.7831 H   0  0  0  0  0  0  0  0  0  0  0  0
    1.8528   -7.0299   -1.8995 H   0  0  0  0  0  0  0  0  0  0  0  0
    3.3526   -7.7902    1.4033 H   0  0  0  0  0  0  0  0  0  0  0  0
    5.5927   -9.4243    0.0601 H   0  0  0  0  0  0  0  0  0  0  0  0
    3.9689  -10.0896    0.5021 H   0  0  0  0  0  0  0  0  0  0  0  0
    5.0683   -9.4726    1.7857 H   0  0  0  0  0  0  0  0  0  0  0  0
    5.7748   -7.0397    1.6955 H   0  0  0  0  0  0  0  0  0  0  0  0
    7.3912   -5.0576    0.5840 H   0  0  0  0  0  0  0  0  0  0  0  0
    8.8259   -6.6613   -0.8071 H   0  0  0  0  0  0  0  0  0  0  0  0
    7.8017   -7.4699    0.4279 H   0  0  0  0  0  0  0  0  0  0  0  0
    7.3070   -7.4976   -1.3176 H   0  0  0  0  0  0  0  0  0  0  0  0
    6.7002   -5.0929   -2.3976 H   0  0  0  0  0  0  0  0  0  0  0  0
    7.9912   -2.9232    0.3861 H   0  0  0  0  0  0  0  0  0  0  0  0
    9.6687   -4.7687    0.3874 H   0  0  0  0  0  0  0  0  0  0  0  0
   10.6552   -3.9112   -0.8520 H   0  0  0  0  0  0  0  0  0  0  0  0
   10.4848   -3.2296    0.8046 H   0  0  0  0  0  0  0  0  0  0  0  0
   10.0635   -1.4679   -1.2620 H   0  0  0  0  0  0  0  0  0  0  0  0
    8.5860    1.1500    1.1568 H   0  0  0  0  0  0  0  0  0  0  0  0
    9.6601   -0.8321    2.2098 H   0  0  0  0  0  0  0  0  0  0  0  0
   10.9986   -0.7654    0.9971 H   0  0  0  0  0  0  0  0  0  0  0  0
   10.7647    0.5864    2.1640 H   0  0  0  0  0  0  0  0  0  0  0  0
   10.7219    0.8891   -1.0253 H   0  0  0  0  0  0  0  0  0  0  0  0
    8.2481    3.2395    0.6523 H   0  0  0  0  0  0  0  0  0  0  0  0
   10.9758    4.1475    1.8161 H   0  0  0  0  0  0  0  0  0  0  0  0
    9.3613    4.4305    2.5816 H   0  0  0  0  0  0  0  0  0  0  0  0
    9.9732    2.7555    2.3924 H   0  0  0  0  0  0  0  0  0  0  0  0
    9.9915    5.5852   -0.1942 H   0  0  0  0  0  0  0  0  0  0  0  0
    5.9606    6.3632   -0.3432 H   0  0  0  0  0  0  0  0  0  0  0  0
    6.4087    6.5346   -2.7821 H   0  0  0  0  0  0  0  0  0  0  0  0
    7.4948    7.5884   -1.8002 H   0  0  0  0  0  0  0  0  0  0  0  0
    8.1324    6.0397   -2.4992 H   0  0  0  0  0  0  0  0  0  0  0  0
    7.1252    3.8213   -1.5730 H   0  0  0  0  0  0  0  0  0  0  0  0
    3.0761    3.8100   -0.2806 H   0  0  0  0  0  0  0  0  0  0  0  0
    4.7619    3.5808    1.6089 H   0  0  0  0  0  0  0  0  0  0  0  0
    3.4449    4.7732    1.8983 H   0  0  0  0  0  0  0  0  0  0  0  0
    5.0943    5.3482    1.4778 H   0  0  0  0  0  0  0  0  0  0  0  0
    4.0382    6.1642   -1.5955 H   0  0  0  0  0  0  0  0  0  0  0  0
   -4.4731   -5.0414   -1.4988 H   0  0  0  0  0  0  0  0  0  0  0  0
   -4.1130   -4.2024    1.3868 H   0  0  0  0  0  0  0  0  0  0  0  0
   -5.5424   -6.1694    1.8664 H   0  0  0  0  0  0  0  0  0  0  0  0
   -5.6817   -6.5138    0.0968 H   0  0  0  0  0  0  0  0  0  0  0  0
   -4.0737   -6.5992    0.9176 H   0  0  0  0  0  0  0  0  0  0  0  0
   -6.7747   -4.1560   -1.3166 H   0  0  0  0  0  0  0  0  0  0  0  0
   -8.4795   -5.2321    0.5967 H   0  0  0  0  0  0  0  0  0  0  0  0
   -9.1076   -3.8581   -2.0618 H   0  0  0  0  0  0  0  0  0  0  0  0
   -9.0504   -5.5935   -1.6419 H   0  0  0  0  0  0  0  0  0  0  0  0
  -10.4026   -4.5811   -1.0282 H   0  0  0  0  0  0  0  0  0  0  0  0
   -8.7026   -1.2593    1.5385 H   0  0  0  0  0  0  0  0  0  0  0  0
   -9.4229   -1.8135   -1.3655 H   0  0  0  0  0  0  0  0  0  0  0  0
   -7.5207    0.2897   -0.2085 H   0  0  0  0  0  0  0  0  0  0  0  0
   -7.0829   -1.1171   -1.2507 H   0  0  0  0  0  0  0  0  0  0  0  0
   -8.0835    0.2293   -1.9319 H   0  0  0  0  0  0  0  0  0  0  0  0
  -10.6764    1.8305   -0.9536 H   0  0  0  0  0  0  0  0  0  0  0  0
   -9.3812    1.0806    1.6994 H   0  0  0  0  0  0  0  0  0  0  0  0
  -11.2176    3.4520    0.9495 H   0  0  0  0  0  0  0  0  0  0  0  0
  -11.7315    1.9479    1.8164 H   0  0  0  0  0  0  0  0  0  0  0  0
  -10.5585    3.0816    2.5901 H   0  0  0  0  0  0  0  0  0  0  0  0
   -8.5616    3.1322   -1.3772 H   0  0  0  0  0  0  0  0  0  0  0  0
   -8.6593    5.3816    0.6843 H   0  0  0  0  0  0  0  0  0  0  0  0
   -9.6653    7.5454   -0.1270 H   0  0  0  0  0  0  0  0  0  0  0  0
  -11.0002    7.2857   -1.2981 H   0  0  0  0  0  0  0  0  0  0  0  0
   -6.3622    5.2567   -0.0067 H   0  0  0  0  0  0  0  0  0  0  0  0
   -7.0895    6.7246   -0.7230 H   0  0  0  0  0  0  0  0  0  0  0  0
   -4.6038    6.4285   -1.9968 H   0  0  0  0  0  0  0  0  0  0  0  0
   -4.2985    5.1539   -3.2156 H   0  0  0  0  0  0  0  0  0  0  0  0
  1  2  1  0
  2  3  2  0
  2  4  1  0
  4  5  1  0
  5  6  1  0
  6  7  1  0
  7  8  1  0
  8  9  1  0
  9 10  1  0
 10 11  2  0
 11 12  1  0
 12 13  2  0
 13 14  1  0
 13 15  1  0
 15 16  1  0
 16 17  1  0
 17 18  1  0
 18 19  1  0
 19 20  1  0
 20 21  2  0
 20 22  1  0
 22 23  1  0
 22 24  1  0
 24 25  1  0
 25 26  2  0
 25 27  1  0
 27 28  1  0
 27 29  1  0
 29 30  1  0
 30 31  2  0
 30 32  1  0
 32 33  1  0
 32 34  1  0
 34 35  1  0
 35 36  2  0
 35 37  1  0
 37 38  1  0
 37 39  1  0
 39 40  1  0
 40 41  2  0
 40 42  1  0
 42 43  1  0
 42 44  1  0
 44 45  1  0
 45 46  2  0
 45 47  1  0
 47 48  1  0
 47 49  1  0
 49 50  1  0
 50 51  2  0
 50 52  1  0
 52 53  1  0
 52 54  1  0
 54 55  1  0
 55 56  2  0
 55 57  1  0
 57 58  1  0
 57 59  1  0
 59 60  1  0
 60 61  2  0
 60 62  1  0
 62 63  1  0
 62 64  1  0
 64 65  1  0
 65 66  2  0
 18 67  1  0
 67 68  2  0
 67 69  1  0
 69 70  1  0
 70 71  1  0
 70 72  1  0
 72 73  2  0
 72 74  1  0
 74 75  1  0
 75 76  1  0
 75 77  1  0
 77 78  2  0
 77 79  1  0
 79 80  1  0
 80 81  1  0
 80 82  1  0
 82 83  2  0
 82 84  1  0
 84 85  1  0
 85 86  1  0
 85 87  1  0
 87 88  2  0
 87 89  1  0
 89 90  1  0
 90 91  1  0
 91 92  1  0
 91 93  2  0
 90 94  1  0
 94 95  1  0
 95 96  1  0
 65  5  1  0
 14  9  2  0
 96 11  1  0
  1 97  1  0
  1 98  1  0
  1 99  1  0
  4100  1  0
  5101  1  1
  6102  1  0
  6103  1  0
  8104  1  0
  8105  1  0
 10106  1  0
 12107  1  0
 14108  1  0
 15109  1  0
 15110  1  0
 17111  1  0
 17112  1  0
 18113  1  1
 19114  1  0
 22115  1  1
 23116  1  0
 23117  1  0
 23118  1  0
 24119  1  0
 27120  1  1
 28121  1  0
 28122  1  0
 28123  1  0
 29124  1  0
 32125  1  1
 33126  1  0
 33127  1  0
 33128  1  0
 34129  1  0
 37130  1  1
 38131  1  0
 38132  1  0
 38133  1  0
 39134  1  0
 42135  1  1
 43136  1  0
 43137  1  0
 43138  1  0
 44139  1  0
 47140  1  1
 48141  1  0
 48142  1  0
 48143  1  0
 49144  1  0
 52145  1  1
 53146  1  0
 53147  1  0
 53148  1  0
 54149  1  0
 57150  1  1
 58151  1  0
 58152  1  0
 58153  1  0
 59154  1  0
 62155  1  1
 63156  1  0
 63157  1  0
 63158  1  0
 64159  1  0
 69160  1  0
 70161  1  1
 71162  1  0
 71163  1  0
 71164  1  0
 74165  1  0
 75166  1  1
 76167  1  0
 76168  1  0
 76169  1  0
 79170  1  0
 80171  1  6
 81172  1  0
 81173  1  0
 81174  1  0
 84175  1  0
 85176  1  1
 86177  1  0
 86178  1  0
 86179  1  0
 89180  1  0
 90181  1  1
 92182  1  0
 92183  1  0
 94184  1  0
 94185  1  0
 96186  1  0
 96187  1  0
M  END
