
     RDKit          3D

197199  0  0  0  0  0  0  0  0999 V2000
   -1.8992    7.3540   -3.6825 C   0  0  0  0  0  0  0  0  0  0  0  0
   -1.8122    7.1729   -2.2013 C   0  0  0  0  0  0  0  0  0  0  0  0
   -1.2845    8.0793   -1.5017 O   0  0  0  0  0  0  0  0  0  0  0  0
   -2.3163    5.9779   -1.5864 N   0  0  0  0  0  0  0  0  0  0  0  0
   -2.3004    5.7281   -0.1398 C   0  0  1  0  0  0  0  0  0  0  0  0
   -0.8552    5.6105    0.3722 C   0  0  0  0  0  0  0  0  0  0  0  0
   -0.8320    4.8321    2.0321 S   0  0  0  0  0  0  0  0  0  0  0  0
    0.9771    4.5347    2.0937 C   0  0  0  0  0  0  0  0  0  0  0  0
    1.4290    3.5547    1.0361 C   0  0  0  0  0  0  0  0  0  0  0  0
    2.4571    3.8964    0.1505 C   0  0  0  0  0  0  0  0  0  0  0  0
    2.8328    3.0228   -0.8819 C   0  0  0  0  0  0  0  0  0  0  0  0
    2.1220    1.8246   -1.0684 C   0  0  0  0  0  0  0  0  0  0  0  0
    1.0468    1.4918   -0.2210 C   0  0  0  0  0  0  0  0  0  0  0  0
    0.7543    2.3315    0.8666 C   0  0  0  0  0  0  0  0  0  0  0  0
    0.0430    0.4143   -0.5681 C   0  0  0  0  0  0  0  0  0  0  0  0
    0.6519   -0.9101   -1.6784 S   0  0  0  0  0  0  0  0  0  0  0  0
    1.5268   -1.8692   -0.3905 C   0  0  0  0  0  0  0  0  0  0  0  0
    1.6920   -3.3361   -0.8212 C   0  0  2  0  0  0  0  0  0  0  0  0
    2.2747   -4.1415    0.2606 N   0  0  0  0  0  0  0  0  0  0  0  0
    1.6987   -5.3449    0.8107 C   0  0  0  0  0  0  0  0  0  0  0  0
    2.4789   -6.1998    1.3113 O   0  0  0  0  0  0  0  0  0  0  0  0
    0.2089   -5.6470    0.8304 C   0  0  1  0  0  0  0  0  0  0  0  0
   -0.6033   -4.4893    1.4359 C   0  0  0  0  0  0  0  0  0  0  0  0
   -0.2772   -6.0186   -0.5063 N   0  0  0  0  0  0  0  0  0  0  0  0
   -1.6295   -6.4140   -0.7756 C   0  0  0  0  0  0  0  0  0  0  0  0
   -2.2842   -5.7720   -1.6428 O   0  0  0  0  0  0  0  0  0  0  0  0
   -2.2809   -7.6029   -0.1015 C   0  0  1  0  0  0  0  0  0  0  0  0
   -1.3320   -8.8012    0.0054 C   0  0  0  0  0  0  0  0  0  0  0  0
   -2.7874   -7.2341    1.2274 N   0  0  0  0  0  0  0  0  0  0  0  0
   -4.1720   -7.0329    1.5659 C   0  0  0  0  0  0  0  0  0  0  0  0
   -4.4737   -6.8094    2.7714 O   0  0  0  0  0  0  0  0  0  0  0  0
   -5.2867   -7.1232    0.5487 C   0  0  1  0  0  0  0  0  0  0  0  0
   -5.7501   -8.5741    0.4035 C   0  0  0  0  0  0  0  0  0  0  0  0
   -6.4256   -6.2873    0.9438 N   0  0  0  0  0  0  0  0  0  0  0  0
   -6.6199   -4.9946    0.3603 C   0  0  0  0  0  0  0  0  0  0  0  0
   -5.9682   -4.0127    0.8105 O   0  0  0  0  0  0  0  0  0  0  0  0
   -7.6338   -4.7726   -0.7327 C   0  0  1  0  0  0  0  0  0  0  0  0
   -7.7958   -6.0069   -1.6193 C   0  0  0  0  0  0  0  0  0  0  0  0
   -8.9284   -4.4142   -0.1434 N   0  0  0  0  0  0  0  0  0  0  0  0
   -9.7284   -3.2728   -0.5150 C   0  0  0  0  0  0  0  0  0  0  0  0
  -10.9302   -3.2409   -0.1380 O   0  0  0  0  0  0  0  0  0  0  0  0
   -9.1570   -2.0959   -1.2853 C   0  0  1  0  0  0  0  0  0  0  0  0
  -10.2597   -1.1703   -1.8322 C   0  0  0  0  0  0  0  0  0  0  0  0
   -8.1782   -1.3847   -0.4472 N   0  0  0  0  0  0  0  0  0  0  0  0
   -8.2293    0.0103   -0.1205 C   0  0  0  0  0  0  0  0  0  0  0  0
   -7.4779    0.8063   -0.7399 O   0  0  0  0  0  0  0  0  0  0  0  0
   -9.1654    0.5544    0.9344 C   0  0  1  0  0  0  0  0  0  0  0  0
   -9.6345   -0.5288    1.9128 C   0  0  0  0  0  0  0  0  0  0  0  0
   -8.4941    1.6197    1.6893 N   0  0  0  0  0  0  0  0  0  0  0  0
   -8.8838    3.0052    1.7001 C   0  0  0  0  0  0  0  0  0  0  0  0
   -8.4881    3.7375    2.6492 O   0  0  0  0  0  0  0  0  0  0  0  0
   -9.7591    3.6065    0.6290 C   0  0  1  0  0  0  0  0  0  0  0  0
  -11.2234    3.5453    1.0614 C   0  0  0  0  0  0  0  0  0  0  0  0
   -9.3752    5.0008    0.3738 N   0  0  0  0  0  0  0  0  0  0  0  0
   -8.4122    5.3908   -0.6178 C   0  0  0  0  0  0  0  0  0  0  0  0
   -8.5660    6.4973   -1.2042 O   0  0  0  0  0  0  0  0  0  0  0  0
   -7.2166    4.5202   -0.9494 C   0  0  1  0  0  0  0  0  0  0  0  0
   -6.3566    5.0626   -2.0990 C   0  0  0  0  0  0  0  0  0  0  0  0
   -6.3903    4.2449    0.2339 N   0  0  0  0  0  0  0  0  0  0  0  0
   -5.6961    5.1824    1.0814 C   0  0  0  0  0  0  0  0  0  0  0  0
   -5.0321    4.7274    2.0524 O   0  0  0  0  0  0  0  0  0  0  0  0
   -5.6713    6.6796    0.8391 C   0  0  1  0  0  0  0  0  0  0  0  0
   -5.7943    7.4704    2.1458 C   0  0  0  0  0  0  0  0  0  0  0  0
   -4.4512    7.0615    0.1147 N   0  0  0  0  0  0  0  0  0  0  0  0
   -3.1316    6.7647    0.5864 C   0  0  0  0  0  0  0  0  0  0  0  0
   -2.6786    7.3722    1.5942 O   0  0  0  0  0  0  0  0  0  0  0  0
    2.4557   -3.5434   -2.1167 C   0  0  0  0  0  0  0  0  0  0  0  0
    1.8399   -4.0889   -3.0681 O   0  0  0  0  0  0  0  0  0  0  0  0
    3.8568   -3.2549   -2.3141 N   0  0  0  0  0  0  0  0  0  0  0  0
    4.7618   -2.5048   -1.4354 C   0  0  2  0  0  0  0  0  0  0  0  0
    5.1215   -1.1706   -2.1079 C   0  0  0  0  0  0  0  0  0  0  0  0
    5.9836   -3.3301   -1.1090 C   0  0  0  0  0  0  0  0  0  0  0  0
    6.1208   -4.4811   -1.5891 O   0  0  0  0  0  0  0  0  0  0  0  0
    6.9110   -2.8640   -0.1146 N   0  0  0  0  0  0  0  0  0  0  0  0
    7.7130   -3.7855    0.6905 C   0  0  2  0  0  0  0  0  0  0  0  0
    6.7984   -4.7200    1.5047 C   0  0  0  0  0  0  0  0  0  0  0  0
    8.6311   -3.0235    1.6185 C   0  0  0  0  0  0  0  0  0  0  0  0
    8.1465   -2.4720    2.6430 O   0  0  0  0  0  0  0  0  0  0  0  0
   10.0497   -2.9578    1.3929 N   0  0  0  0  0  0  0  0  0  0  0  0
   10.6245   -2.4312    0.1449 C   0  0  2  0  0  0  0  0  0  0  0  0
   10.9742   -3.5771   -0.8109 C   0  0  0  0  0  0  0  0  0  0  0  0
   11.8784   -1.6284    0.4521 C   0  0  0  0  0  0  0  0  0  0  0  0
   12.8170   -2.1975    1.0778 O   0  0  0  0  0  0  0  0  0  0  0  0
   12.0483   -0.2566    0.0601 N   0  0  0  0  0  0  0  0  0  0  0  0
   11.1860    0.4887   -0.8695 C   0  0  2  0  0  0  0  0  0  0  0  0
   11.2950   -0.0928   -2.2838 C   0  0  0  0  0  0  0  0  0  0  0  0
   11.5832    1.9438   -0.8918 C   0  0  0  0  0  0  0  0  0  0  0  0
   12.7153    2.2701   -1.3429 O   0  0  0  0  0  0  0  0  0  0  0  0
   10.6794    2.9751   -0.4754 N   0  0  0  0  0  0  0  0  0  0  0  0
   10.2620    3.1762    0.9211 C   0  0  2  0  0  0  0  0  0  0  0  0
   11.4506    3.0601    1.8826 C   0  0  0  0  0  0  0  0  0  0  0  0
    9.1298    2.2391    1.2884 C   0  0  0  0  0  0  0  0  0  0  0  0
    9.3969    1.1303    1.8256 O   0  0  0  0  0  0  0  0  0  0  0  0
    7.7523    2.5591    1.0233 N   0  0  0  0  0  0  0  0  0  0  0  0
    7.2735    3.8702    0.5673 C   0  0  2  0  0  0  0  0  0  0  0  0
    7.4255    4.8897    1.6606 C   0  0  0  0  0  0  0  0  0  0  0  0
    6.9538    4.6306    2.9869 N   0  0  0  0  0  0  0  0  0  0  0  0
    7.9647    5.9999    1.4040 O   0  0  0  0  0  0  0  0  0  0  0  0
    5.7900    3.8066    0.1506 C   0  0  0  0  0  0  0  0  0  0  0  0
    5.5487    2.6984   -1.2853 S   0  0  0  0  0  0  0  0  0  0  0  0
    3.9466    3.4013   -1.8253 C   0  0  0  0  0  0  0  0  0  0  0  0
   -2.4721    8.2782   -3.9170 H   0  0  0  0  0  0  0  0  0  0  0  0
   -2.4159    6.4939   -4.1608 H   0  0  0  0  0  0  0  0  0  0  0  0
   -0.8739    7.4349   -4.1101 H   0  0  0  0  0  0  0  0  0  0  0  0
   -2.7381    5.2429   -2.2012 H   0  0  0  0  0  0  0  0  0  0  0  0
   -2.7990    4.7481    0.0302 H   0  0  0  0  0  0  0  0  0  0  0  0
   -0.3616    6.6070    0.4273 H   0  0  0  0  0  0  0  0  0  0  0  0
   -0.2926    4.9773   -0.3414 H   0  0  0  0  0  0  0  0  0  0  0  0
    1.2268    4.1177    3.0910 H   0  0  0  0  0  0  0  0  0  0  0  0
    1.5032    5.5089    1.9897 H   0  0  0  0  0  0  0  0  0  0  0  0
    2.9513    4.8560    0.2480 H   0  0  0  0  0  0  0  0  0  0  0  0
    2.3792    1.1945   -1.9067 H   0  0  0  0  0  0  0  0  0  0  0  0
   -0.0726    2.0768    1.5225 H   0  0  0  0  0  0  0  0  0  0  0  0
   -0.8031    0.9068   -1.0905 H   0  0  0  0  0  0  0  0  0  0  0  0
   -0.3820   -0.0397    0.3548 H   0  0  0  0  0  0  0  0  0  0  0  0
    2.4655   -1.3454   -0.1627 H   0  0  0  0  0  0  0  0  0  0  0  0
    0.9311   -1.8673    0.5448 H   0  0  0  0  0  0  0  0  0  0  0  0
    0.6650   -3.6843   -1.0203 H   0  0  0  0  0  0  0  0  0  0  0  0
    3.2646   -3.9517    0.5174 H   0  0  0  0  0  0  0  0  0  0  0  0
    0.0707   -6.5166    1.5042 H   0  0  0  0  0  0  0  0  0  0  0  0
   -1.6531   -4.8026    1.6029 H   0  0  0  0  0  0  0  0  0  0  0  0
   -0.6302   -3.6094    0.7681 H   0  0  0  0  0  0  0  0  0  0  0  0
   -0.1787   -4.1943    2.4222 H   0  0  0  0  0  0  0  0  0  0  0  0
    0.3539   -5.9026   -1.3295 H   0  0  0  0  0  0  0  0  0  0  0  0
   -3.1080   -7.9453   -0.7562 H   0  0  0  0  0  0  0  0  0  0  0  0
   -1.8603   -9.6454    0.4932 H   0  0  0  0  0  0  0  0  0  0  0  0
   -0.4338   -8.5592    0.6030 H   0  0  0  0  0  0  0  0  0  0  0  0
   -1.0143   -9.1328   -1.0042 H   0  0  0  0  0  0  0  0  0  0  0  0
   -2.0937   -7.1195    2.0015 H   0  0  0  0  0  0  0  0  0  0  0  0
   -4.9168   -6.7645   -0.4375 H   0  0  0  0  0  0  0  0  0  0  0  0
   -6.5247   -8.6451   -0.3891 H   0  0  0  0  0  0  0  0  0  0  0  0
   -4.9064   -9.2345    0.1196 H   0  0  0  0  0  0  0  0  0  0  0  0
   -6.1889   -8.9385    1.3550 H   0  0  0  0  0  0  0  0  0  0  0  0
   -7.0099   -6.5580    1.7718 H   0  0  0  0  0  0  0  0  0  0  0  0
   -7.2449   -3.9656   -1.3805 H   0  0  0  0  0  0  0  0  0  0  0  0
   -6.8193   -6.3043   -2.0588 H   0  0  0  0  0  0  0  0  0  0  0  0
   -8.4985   -5.7815   -2.4488 H   0  0  0  0  0  0  0  0  0  0  0  0
   -8.2112   -6.8609   -1.0361 H   0  0  0  0  0  0  0  0  0  0  0  0
   -9.3618   -5.1082    0.5073 H   0  0  0  0  0  0  0  0  0  0  0  0
   -8.6365   -2.4866   -2.1842 H   0  0  0  0  0  0  0  0  0  0  0  0
  -10.8963   -0.7718   -1.0133 H   0  0  0  0  0  0  0  0  0  0  0  0
  -10.9108   -1.7310   -2.5360 H   0  0  0  0  0  0  0  0  0  0  0  0
   -9.8064   -0.3203   -2.3923 H   0  0  0  0  0  0  0  0  0  0  0  0
   -7.2418   -1.8356   -0.3335 H   0  0  0  0  0  0  0  0  0  0  0  0
  -10.0637    0.9431    0.4236 H   0  0  0  0  0  0  0  0  0  0  0  0
  -10.3137   -1.2465    1.4085 H   0  0  0  0  0  0  0  0  0  0  0  0
   -8.7709   -1.0849    2.3378 H   0  0  0  0  0  0  0  0  0  0  0  0
  -10.2038   -0.0650    2.7485 H   0  0  0  0  0  0  0  0  0  0  0  0
   -7.7169    1.3355    2.3277 H   0  0  0  0  0  0  0  0  0  0  0  0
   -9.6610    3.0333   -0.3174 H   0  0  0  0  0  0  0  0  0  0  0  0
  -11.5568    2.4964    1.2088 H   0  0  0  0  0  0  0  0  0  0  0  0
  -11.8715    4.0048    0.2859 H   0  0  0  0  0  0  0  0  0  0  0  0
  -11.3715    4.1004    2.0172 H   0  0  0  0  0  0  0  0  0  0  0  0
   -9.9458    5.7646    0.8042 H   0  0  0  0  0  0  0  0  0  0  0  0
   -7.6209    3.5572   -1.3116 H   0  0  0  0  0  0  0  0  0  0  0  0
   -6.0652    6.1192   -1.9364 H   0  0  0  0  0  0  0  0  0  0  0  0
   -5.4410    4.4460   -2.2110 H   0  0  0  0  0  0  0  0  0  0  0  0
   -6.9309    5.0134   -3.0503 H   0  0  0  0  0  0  0  0  0  0  0  0
   -6.2771    3.2352    0.4840 H   0  0  0  0  0  0  0  0  0  0  0  0
   -6.5410    6.9757    0.2272 H   0  0  0  0  0  0  0  0  0  0  0  0
   -4.9702    7.2320    2.8515 H   0  0  0  0  0  0  0  0  0  0  0  0
   -5.7716    8.5614    1.9332 H   0  0  0  0  0  0  0  0  0  0  0  0
   -6.7571    7.2333    2.6451 H   0  0  0  0  0  0  0  0  0  0  0  0
   -4.5495    7.4507   -0.8524 H   0  0  0  0  0  0  0  0  0  0  0  0
    4.2513   -3.5465   -3.2447 H   0  0  0  0  0  0  0  0  0  0  0  0
    4.2942   -2.2782   -0.4725 H   0  0  0  0  0  0  0  0  0  0  0  0
    4.1973   -0.5672   -2.2533 H   0  0  0  0  0  0  0  0  0  0  0  0
    5.5743   -1.3558   -3.1018 H   0  0  0  0  0  0  0  0  0  0  0  0
    5.8268   -0.5773   -1.4906 H   0  0  0  0  0  0  0  0  0  0  0  0
    7.1558   -1.8369   -0.1131 H   0  0  0  0  0  0  0  0  0  0  0  0
    8.3230   -4.4225    0.0200 H   0  0  0  0  0  0  0  0  0  0  0  0
    7.4097   -5.3713    2.1721 H   0  0  0  0  0  0  0  0  0  0  0  0
    6.0929   -4.1334    2.1346 H   0  0  0  0  0  0  0  0  0  0  0  0
    6.2105   -5.3804    0.8341 H   0  0  0  0  0  0  0  0  0  0  0  0
   10.6415   -2.9649    2.2552 H   0  0  0  0  0  0  0  0  0  0  0  0
    9.8685   -1.7908   -0.3485 H   0  0  0  0  0  0  0  0  0  0  0  0
   10.0641   -3.9790   -1.3017 H   0  0  0  0  0  0  0  0  0  0  0  0
   11.6465   -3.2170   -1.6227 H   0  0  0  0  0  0  0  0  0  0  0  0
   11.4889   -4.4045   -0.2675 H   0  0  0  0  0  0  0  0  0  0  0  0
   12.8794    0.2350    0.4598 H   0  0  0  0  0  0  0  0  0  0  0  0
   10.1338    0.4200   -0.5408 H   0  0  0  0  0  0  0  0  0  0  0  0
   10.7511   -1.0532   -2.3637 H   0  0  0  0  0  0  0  0  0  0  0  0
   12.3586   -0.2697   -2.5539 H   0  0  0  0  0  0  0  0  0  0  0  0
   10.8494    0.6031   -3.0257 H   0  0  0  0  0  0  0  0  0  0  0  0
   10.6062    3.8118   -1.0939 H   0  0  0  0  0  0  0  0  0  0  0  0
    9.9077    4.2204    1.0246 H   0  0  0  0  0  0  0  0  0  0  0  0
   12.2586    3.7546    1.5734 H   0  0  0  0  0  0  0  0  0  0  0  0
   11.8592    2.0329    1.8986 H   0  0  0  0  0  0  0  0  0  0  0  0
   11.1305    3.3372    2.9107 H   0  0  0  0  0  0  0  0  0  0  0  0
    7.0450    1.8076    1.2013 H   0  0  0  0  0  0  0  0  0  0  0  0
    7.8564    4.1882   -0.3253 H   0  0  0  0  0  0  0  0  0  0  0  0
    6.5297    3.7107    3.2329 H   0  0  0  0  0  0  0  0  0  0  0  0
    7.0203    5.3791    3.7179 H   0  0  0  0  0  0  0  0  0  0  0  0
    5.4533    4.8313   -0.1132 H   0  0  0  0  0  0  0  0  0  0  0  0
    5.1739    3.4317    0.9945 H   0  0  0  0  0  0  0  0  0  0  0  0
    3.7142    3.0093   -2.8354 H   0  0  0  0  0  0  0  0  0  0  0  0
    4.0228    4.5069   -1.9278 H   0  0  0  0  0  0  0  0  0  0  0  0
  1  2  1  0
  2  3  2  0
  2  4  1  0
  4  5  1  0
  5  6  1  0
  6  7  1  0
  7  8  1  0
  8  9  1  0
  9 10  1  0
 10 11  2  0
 11 12  1  0
 12 13  2  0
 13 14  1  0
 13 15  1  0
 15 16  1  0
 16 17  1  0
 17 18  1  0
 18 19  1  0
 19 20  1  0
 20 21  2  0
 20 22  1  0
 22 23  1  0
 22 24  1  0
 24 25  1  0
 25 26  2  0
 25 27  1  0
 27 28  1  0
 27 29  1  0
 29 30  1  0
 30 31  2  0
 30 32  1  0
 32 33  1  0
 32 34  1  0
 34 35  1  0
 35 36  2  0
 35 37  1  0
 37 38  1  0
 37 39  1  0
 39 40  1  0
 40 41  2  0
 40 42  1  0
 42 43  1  0
 42 44  1  0
 44 45  1  0
 45 46  2  0
 45 47  1  0
 47 48  1  0
 47 49  1  0
 49 50  1  0
 50 51  2  0
 50 52  1  0
 52 53  1  0
 52 54  1  0
 54 55  1  0
 55 56  2  0
 55 57  1  0
 57 58  1  0
 57 59  1  0
 59 60  1  0
 60 61  2  0
 60 62  1  0
 62 63  1  0
 62 64  1  0
 64 65  1  0
 65 66  2  0
 18 67  1  0
 67 68  2  0
 67 69  1  0
 69 70  1  0
 70 71  1  0
 70 72  1  0
 72 73  2  0
 72 74  1  0
 74 75  1  0
 75 76  1  0
 75 77  1  0
 77 78  2  0
 77 79  1  0
 79 80  1  0
 80 81  1  0
 80 82  1  0
 82 83  2  0
 82 84  1  0
 84 85  1  0
 85 86  1  0
 85 87  1  0
 87 88  2  0
 87 89  1  0
 89 90  1  0
 90 91  1  0
 90 92  1  0
 92 93  2  0
 92 94  1  0
 94 95  1  0
 95 96  1  0
 96 97  1  0
 96 98  2  0
 95 99  1  0
 99100  1  0
100101  1  0
 65  5  1  0
 14  9  2  0
101 11  1  0
  1102  1  0
  1103  1  0
  1104  1  0
  4105  1  0
  5106  1  6
  6107  1  0
  6108  1  0
  8109  1  0
  8110  1  0
 10111  1  0
 12112  1  0
 14113  1  0
 15114  1  0
 15115  1  0
 17116  1  0
 17117  1  0
 18118  1  6
 19119  1  0
 22120  1  1
 23121  1  0
 23122  1  0
 23123  1  0
 24124  1  0
 27125  1  6
 28126  1  0
 28127  1  0
 28128  1  0
 29129  1  0
 32130  1  6
 33131  1  0
 33132  1  0
 33133  1  0
 34134  1  0
 37135  1  6
 38136  1  0
 38137  1  0
 38138  1  0
 39139  1  0
 42140  1  6
 43141  1  0
 43142  1  0
 43143  1  0
 44144  1  0
 47145  1  6
 48146  1  0
 48147  1  0
 48148  1  0
 49149  1  0
 52150  1  6
 53151  1  0
 53152  1  0
 53153  1  0
 54154  1  0
 57155  1  6
 58156  1  0
 58157  1  0
 58158  1  0
 59159  1  0
 62160  1  6
 63161  1  0
 63162  1  0
 63163  1  0
 64164  1  0
 69165  1  0
 70166  1  1
 71167  1  0
 71168  1  0
 71169  1  0
 74170  1  0
 75171  1  6
 76172  1  0
 76173  1  0
 76174  1  0
 79175  1  0
 80176  1  6
 81177  1  0
 81178  1  0
 81179  1  0
 84180  1  0
 85181  1  1
 86182  1  0
 86183  1  0
 86184  1  0
 89185  1  0
 90186  1  6
 91187  1  0
 91188  1  0
 91189  1  0
 94190  1  0
 95191  1  6
 97192  1  0
 97193  1  0
 99194  1  0
 99195  1  0
101196  1  0
101197  1  0
M  END
