
     RDKit          3D

237239  0  0  0  0  0  0  0  0999 V2000
    3.1474   -9.4756   -2.0988 C   0  0  0  0  0  0  0  0  0  0  0  0
    3.7922   -8.8587   -0.9017 C   0  0  0  0  0  0  0  0  0  0  0  0
    4.1134   -9.5774    0.0750 O   0  0  0  0  0  0  0  0  0  0  0  0
    4.0515   -7.4464   -0.8623 N   0  0  0  0  0  0  0  0  0  0  0  0
    4.4668   -6.7791    0.3818 C   0  0  2  0  0  0  0  0  0  0  0  0
    4.3611   -5.2503    0.2815 C   0  0  0  0  0  0  0  0  0  0  0  0
    2.6847   -4.7586   -0.2750 S   0  0  0  0  0  0  0  0  0  0  0  0
    2.4537   -3.3730    0.8889 C   0  0  0  0  0  0  0  0  0  0  0  0
    1.1484   -2.7082    0.5673 C   0  0  0  0  0  0  0  0  0  0  0  0
   -0.0544   -3.2824    1.0050 C   0  0  0  0  0  0  0  0  0  0  0  0
   -1.2852   -2.7672    0.5811 C   0  0  0  0  0  0  0  0  0  0  0  0
   -1.3148   -1.6707   -0.2974 C   0  0  0  0  0  0  0  0  0  0  0  0
   -0.1159   -1.0668   -0.7249 C   0  0  0  0  0  0  0  0  0  0  0  0
    1.1102   -1.5958   -0.2860 C   0  0  0  0  0  0  0  0  0  0  0  0
   -0.1227    0.0228   -1.7655 C   0  0  0  0  0  0  0  0  0  0  0  0
   -1.3812    1.3144   -1.4495 S   0  0  0  0  0  0  0  0  0  0  0  0
   -0.6373    2.0246    0.0759 C   0  0  0  0  0  0  0  0  0  0  0  0
   -0.1066    3.4645   -0.1016 C   0  0  2  0  0  0  0  0  0  0  0  0
    0.4383    3.9516    1.1751 N   0  0  0  0  0  0  0  0  0  0  0  0
    1.4099    5.0020    1.3364 C   0  0  0  0  0  0  0  0  0  0  0  0
    1.8967    5.1914    2.4807 O   0  0  0  0  0  0  0  0  0  0  0  0
    1.8600    5.9059    0.2052 C   0  0  1  0  0  0  0  0  0  0  0  0
    1.4003    7.3467    0.4861 C   0  0  0  0  0  0  0  0  0  0  0  0
    3.3250    5.8678    0.0888 N   0  0  0  0  0  0  0  0  0  0  0  0
    4.0300    6.6178   -0.9143 C   0  0  0  0  0  0  0  0  0  0  0  0
    3.4883    6.8071   -2.0363 O   0  0  0  0  0  0  0  0  0  0  0  0
    5.4120    7.1759   -0.6494 C   0  0  1  0  0  0  0  0  0  0  0  0
    5.5188    8.6194   -1.1488 C   0  0  0  0  0  0  0  0  0  0  0  0
    5.7235    7.1371    0.7841 N   0  0  0  0  0  0  0  0  0  0  0  0
    6.8265    6.3923    1.3073 C   0  0  0  0  0  0  0  0  0  0  0  0
    6.6275    5.5342    2.2069 O   0  0  0  0  0  0  0  0  0  0  0  0
    8.2300    6.6558    0.8249 C   0  0  1  0  0  0  0  0  0  0  0  0
    9.1072    7.1567    1.9838 C   0  0  0  0  0  0  0  0  0  0  0  0
    8.7742    5.4681    0.1485 N   0  0  0  0  0  0  0  0  0  0  0  0
    9.8321    4.6415    0.6631 C   0  0  0  0  0  0  0  0  0  0  0  0
    9.7567    4.1931    1.8389 O   0  0  0  0  0  0  0  0  0  0  0  0
   11.0592    4.3097   -0.1595 C   0  0  1  0  0  0  0  0  0  0  0  0
   10.8966    4.6594   -1.6415 C   0  0  0  0  0  0  0  0  0  0  0  0
   12.2149    5.0347    0.3846 N   0  0  0  0  0  0  0  0  0  0  0  0
   13.5455    4.4978    0.4984 C   0  0  0  0  0  0  0  0  0  0  0  0
   14.3410    5.0368    1.3144 O   0  0  0  0  0  0  0  0  0  0  0  0
   14.0595    3.3858   -0.3913 C   0  0  1  0  0  0  0  0  0  0  0  0
   15.0575    3.9448   -1.4097 C   0  0  0  0  0  0  0  0  0  0  0  0
   14.7184    2.3683    0.4302 N   0  0  0  0  0  0  0  0  0  0  0  0
   14.1059    1.1399    0.8535 C   0  0  0  0  0  0  0  0  0  0  0  0
   14.3407    0.7313    2.0193 O   0  0  0  0  0  0  0  0  0  0  0  0
   13.3198    0.2598   -0.0989 C   0  0  1  0  0  0  0  0  0  0  0  0
   14.2747   -0.5229   -1.0067 C   0  0  0  0  0  0  0  0  0  0  0  0
   12.4126   -0.6454    0.6269 N   0  0  0  0  0  0  0  0  0  0  0  0
   12.8407   -1.8652    1.2414 C   0  0  0  0  0  0  0  0  0  0  0  0
   13.5599   -1.8360    2.2746 O   0  0  0  0  0  0  0  0  0  0  0  0
   12.3660   -3.1850    0.6937 C   0  0  1  0  0  0  0  0  0  0  0  0
   13.5477   -4.1451    0.5328 C   0  0  0  0  0  0  0  0  0  0  0  0
   11.3757   -3.7595    1.5974 N   0  0  0  0  0  0  0  0  0  0  0  0
   10.2679   -4.5052    1.0982 C   0  0  0  0  0  0  0  0  0  0  0  0
    9.1642   -3.9310    0.9084 O   0  0  0  0  0  0  0  0  0  0  0  0
   10.4123   -5.9765    0.8366 C   0  0  1  0  0  0  0  0  0  0  0  0
    9.5349   -6.7907    1.7978 C   0  0  0  0  0  0  0  0  0  0  0  0
   10.1531   -6.2620   -0.5833 N   0  0  0  0  0  0  0  0  0  0  0  0
    9.0586   -7.0431   -1.0850 C   0  0  0  0  0  0  0  0  0  0  0  0
    9.3076   -8.0929   -1.7457 O   0  0  0  0  0  0  0  0  0  0  0  0
    7.6278   -6.5766   -0.9519 C   0  0  1  0  0  0  0  0  0  0  0  0
    7.0350   -6.3521   -2.3447 C   0  0  0  0  0  0  0  0  0  0  0  0
    6.8356   -7.5772   -0.2248 N   0  0  0  0  0  0  0  0  0  0  0  0
    5.8617   -7.2053    0.7672 C   0  0  0  0  0  0  0  0  0  0  0  0
    6.1242   -7.4047    1.9865 O   0  0  0  0  0  0  0  0  0  0  0  0
   -1.1622    4.4056   -0.6497 C   0  0  0  0  0  0  0  0  0  0  0  0
   -1.5209    4.2720   -1.8515 O   0  0  0  0  0  0  0  0  0  0  0  0
   -1.6308    5.5576    0.0717 N   0  0  0  0  0  0  0  0  0  0  0  0
   -2.5468    5.5561    1.2238 C   0  0  2  0  0  0  0  0  0  0  0  0
   -1.9211    6.3553    2.3742 C   0  0  0  0  0  0  0  0  0  0  0  0
   -2.9590    4.1610    1.6648 C   0  0  0  0  0  0  0  0  0  0  0  0
   -2.3439    3.6171    2.6208 O   0  0  0  0  0  0  0  0  0  0  0  0
   -4.0274    3.4285    1.0362 N   0  0  0  0  0  0  0  0  0  0  0  0
   -5.1774    4.0093    0.3225 C   0  0  2  0  0  0  0  0  0  0  0  0
   -4.7576    4.4500   -1.0877 C   0  0  0  0  0  0  0  0  0  0  0  0
   -5.8412    5.0850    1.1574 C   0  0  0  0  0  0  0  0  0  0  0  0
   -5.9044    4.9312    2.4082 O   0  0  0  0  0  0  0  0  0  0  0  0
   -6.3862    6.2834    0.5921 N   0  0  0  0  0  0  0  0  0  0  0  0
   -7.5880    6.2585   -0.2449 C   0  0  2  0  0  0  0  0  0  0  0  0
   -7.7492    7.5975   -0.9786 C   0  0  0  0  0  0  0  0  0  0  0  0
   -8.7952    5.9591    0.6039 C   0  0  0  0  0  0  0  0  0  0  0  0
   -9.1846    6.7964    1.4656 O   0  0  0  0  0  0  0  0  0  0  0  0
   -9.4180    4.6697    0.5425 N   0  0  0  0  0  0  0  0  0  0  0  0
  -10.4614    4.3013   -0.4196 C   0  0  2  0  0  0  0  0  0  0  0  0
  -10.0833    4.6596   -1.8614 C   0  0  0  0  0  0  0  0  0  0  0  0
  -11.7954    4.9114   -0.0565 C   0  0  0  0  0  0  0  0  0  0  0  0
  -11.8649    5.8919    0.7332 O   0  0  0  0  0  0  0  0  0  0  0  0
  -12.9881    4.4251   -0.6780 N   0  0  0  0  0  0  0  0  0  0  0  0
  -13.7409    3.2508   -0.2106 C   0  0  2  0  0  0  0  0  0  0  0  0
  -15.0247    3.7148    0.4913 C   0  0  0  0  0  0  0  0  0  0  0  0
  -12.9297    2.3448    0.6864 C   0  0  0  0  0  0  0  0  0  0  0  0
  -12.6252    2.7130    1.8530 O   0  0  0  0  0  0  0  0  0  0  0  0
  -12.4294    1.0936    0.1920 N   0  0  0  0  0  0  0  0  0  0  0  0
  -13.1497   -0.1845    0.3157 C   0  0  2  0  0  0  0  0  0  0  0  0
  -14.6717    0.0178    0.3017 C   0  0  0  0  0  0  0  0  0  0  0  0
  -12.7375   -0.9093    1.5743 C   0  0  0  0  0  0  0  0  0  0  0  0
  -12.2316   -0.2535    2.5281 O   0  0  0  0  0  0  0  0  0  0  0  0
  -13.0002   -2.3111    1.7717 N   0  0  0  0  0  0  0  0  0  0  0  0
  -12.8534   -3.3574    0.7451 C   0  0  2  0  0  0  0  0  0  0  0  0
  -14.1003   -3.4139   -0.1536 C   0  0  0  0  0  0  0  0  0  0  0  0
  -12.6907   -4.7044    1.4242 C   0  0  0  0  0  0  0  0  0  0  0  0
  -13.5982   -5.0839    2.2151 O   0  0  0  0  0  0  0  0  0  0  0  0
  -11.5433   -5.5584    1.2457 N   0  0  0  0  0  0  0  0  0  0  0  0
  -10.6775   -5.6099    0.0524 C   0  0  2  0  0  0  0  0  0  0  0  0
  -11.4548   -6.2697   -1.0921 C   0  0  0  0  0  0  0  0  0  0  0  0
   -9.4142   -6.4030    0.3438 C   0  0  0  0  0  0  0  0  0  0  0  0
   -9.1752   -6.7927    1.5202 O   0  0  0  0  0  0  0  0  0  0  0  0
   -8.4887   -6.7676   -0.6924 N   0  0  0  0  0  0  0  0  0  0  0  0
   -8.0423   -5.8545   -1.7478 C   0  0  2  0  0  0  0  0  0  0  0  0
   -7.9024   -6.6211   -3.0610 C   0  0  0  0  0  0  0  0  0  0  0  0
   -6.7287   -5.2128   -1.3691 C   0  0  0  0  0  0  0  0  0  0  0  0
   -6.1709   -4.4204   -2.1752 O   0  0  0  0  0  0  0  0  0  0  0  0
   -6.1257   -5.4588   -0.0931 N   0  0  0  0  0  0  0  0  0  0  0  0
   -5.1200   -6.4976    0.1613 C   0  0  1  0  0  0  0  0  0  0  0  0
   -4.8172   -7.3553   -1.0529 C   0  0  0  0  0  0  0  0  0  0  0  0
   -5.1737   -8.7376   -1.0625 N   0  0  0  0  0  0  0  0  0  0  0  0
   -4.2706   -6.8525   -2.0717 O   0  0  0  0  0  0  0  0  0  0  0  0
   -3.8499   -5.8729    0.7695 C   0  0  0  0  0  0  0  0  0  0  0  0
   -3.0919   -4.6130   -0.3274 S   0  0  0  0  0  0  0  0  0  0  0  0
   -2.5678   -3.4430    0.9863 C   0  0  0  0  0  0  0  0  0  0  0  0
    3.8397  -10.2145   -2.5526 H   0  0  0  0  0  0  0  0  0  0  0  0
    2.2187   -9.9954   -1.7841 H   0  0  0  0  0  0  0  0  0  0  0  0
    2.8899   -8.7088   -2.8595 H   0  0  0  0  0  0  0  0  0  0  0  0
    3.8728   -6.8814   -1.7221 H   0  0  0  0  0  0  0  0  0  0  0  0
    3.7666   -7.0974    1.1873 H   0  0  0  0  0  0  0  0  0  0  0  0
    4.5824   -4.8148    1.2844 H   0  0  0  0  0  0  0  0  0  0  0  0
    5.1030   -4.8417   -0.4384 H   0  0  0  0  0  0  0  0  0  0  0  0
    2.4349   -3.7553    1.9354 H   0  0  0  0  0  0  0  0  0  0  0  0
    3.2930   -2.6517    0.7926 H   0  0  0  0  0  0  0  0  0  0  0  0
   -0.0339   -4.1538    1.6541 H   0  0  0  0  0  0  0  0  0  0  0  0
   -2.2643   -1.3180   -0.6792 H   0  0  0  0  0  0  0  0  0  0  0  0
    2.0389   -1.1789   -0.6559 H   0  0  0  0  0  0  0  0  0  0  0  0
    0.8728    0.5046   -1.8500 H   0  0  0  0  0  0  0  0  0  0  0  0
   -0.3543   -0.4395   -2.7448 H   0  0  0  0  0  0  0  0  0  0  0  0
    0.1955    1.3842    0.4491 H   0  0  0  0  0  0  0  0  0  0  0  0
   -1.4212    2.0013    0.8562 H   0  0  0  0  0  0  0  0  0  0  0  0
    0.7286    3.4042   -0.8309 H   0  0  0  0  0  0  0  0  0  0  0  0
    0.1807    3.4326    2.0488 H   0  0  0  0  0  0  0  0  0  0  0  0
    1.4138    5.5824   -0.7557 H   0  0  0  0  0  0  0  0  0  0  0  0
    1.6690    8.0167   -0.3565 H   0  0  0  0  0  0  0  0  0  0  0  0
    1.8839    7.7335    1.4087 H   0  0  0  0  0  0  0  0  0  0  0  0
    0.2995    7.3893    0.6211 H   0  0  0  0  0  0  0  0  0  0  0  0
    3.8851    5.3910    0.8322 H   0  0  0  0  0  0  0  0  0  0  0  0
    6.1422    6.5601   -1.2132 H   0  0  0  0  0  0  0  0  0  0  0  0
    5.3617    8.6661   -2.2503 H   0  0  0  0  0  0  0  0  0  0  0  0
    4.7531    9.2562   -0.6510 H   0  0  0  0  0  0  0  0  0  0  0  0
    6.5270    9.0320   -0.9177 H   0  0  0  0  0  0  0  0  0  0  0  0
    5.0111    7.5050    1.4604 H   0  0  0  0  0  0  0  0  0  0  0  0
    8.2053    7.4787    0.0834 H   0  0  0  0  0  0  0  0  0  0  0  0
    8.7139    8.1273    2.3544 H   0  0  0  0  0  0  0  0  0  0  0  0
    9.1059    6.4420    2.8312 H   0  0  0  0  0  0  0  0  0  0  0  0
   10.1479    7.3129    1.6395 H   0  0  0  0  0  0  0  0  0  0  0  0
    8.3732    5.2294   -0.7866 H   0  0  0  0  0  0  0  0  0  0  0  0
   11.2211    3.2116   -0.0751 H   0  0  0  0  0  0  0  0  0  0  0  0
   10.0430    4.1011   -2.0870 H   0  0  0  0  0  0  0  0  0  0  0  0
   10.7324    5.7565   -1.7636 H   0  0  0  0  0  0  0  0  0  0  0  0
   11.8166    4.3906   -2.2082 H   0  0  0  0  0  0  0  0  0  0  0  0
   12.0587    6.0008    0.7530 H   0  0  0  0  0  0  0  0  0  0  0  0
   13.2366    2.9430   -0.9705 H   0  0  0  0  0  0  0  0  0  0  0  0
   15.9323    4.4029   -0.8969 H   0  0  0  0  0  0  0  0  0  0  0  0
   14.5715    4.7189   -2.0433 H   0  0  0  0  0  0  0  0  0  0  0  0
   15.4188    3.1240   -2.0691 H   0  0  0  0  0  0  0  0  0  0  0  0
   15.5749    2.6575    0.9500 H   0  0  0  0  0  0  0  0  0  0  0  0
   12.6843    0.8880   -0.7534 H   0  0  0  0  0  0  0  0  0  0  0  0
   14.9828   -1.1290   -0.4053 H   0  0  0  0  0  0  0  0  0  0  0  0
   13.6956   -1.1990   -1.6719 H   0  0  0  0  0  0  0  0  0  0  0  0
   14.8540    0.1778   -1.6411 H   0  0  0  0  0  0  0  0  0  0  0  0
   11.4745   -0.2702    0.9098 H   0  0  0  0  0  0  0  0  0  0  0  0
   11.9137   -3.0116   -0.3107 H   0  0  0  0  0  0  0  0  0  0  0  0
   13.2277   -5.0600   -0.0029 H   0  0  0  0  0  0  0  0  0  0  0  0
   13.9470   -4.4393    1.5274 H   0  0  0  0  0  0  0  0  0  0  0  0
   14.3593   -3.6718   -0.0569 H   0  0  0  0  0  0  0  0  0  0  0  0
   11.3960   -3.5363    2.6189 H   0  0  0  0  0  0  0  0  0  0  0  0
   11.4619   -6.2698    1.0530 H   0  0  0  0  0  0  0  0  0  0  0  0
    9.9097   -6.6696    2.8370 H   0  0  0  0  0  0  0  0  0  0  0  0
    8.4863   -6.4390    1.7656 H   0  0  0  0  0  0  0  0  0  0  0  0
    9.5784   -7.8706    1.5397 H   0  0  0  0  0  0  0  0  0  0  0  0
   10.9608   -6.1267   -1.2275 H   0  0  0  0  0  0  0  0  0  0  0  0
    7.6085   -5.6069   -0.4098 H   0  0  0  0  0  0  0  0  0  0  0  0
    6.9823   -7.3112   -2.9002 H   0  0  0  0  0  0  0  0  0  0  0  0
    7.6624   -5.6370   -2.9210 H   0  0  0  0  0  0  0  0  0  0  0  0
    6.0153   -5.9314   -2.2751 H   0  0  0  0  0  0  0  0  0  0  0  0
    7.1646   -8.5679   -0.2125 H   0  0  0  0  0  0  0  0  0  0  0  0
   -1.5782    6.4605   -0.4506 H   0  0  0  0  0  0  0  0  0  0  0  0
   -3.4543    6.1177    0.9411 H   0  0  0  0  0  0  0  0  0  0  0  0
   -1.7628    7.4062    2.0564 H   0  0  0  0  0  0  0  0  0  0  0  0
   -0.9405    5.9234    2.6674 H   0  0  0  0  0  0  0  0  0  0  0  0
   -2.5941    6.3634    3.2566 H   0  0  0  0  0  0  0  0  0  0  0  0
   -4.0877    2.4076    1.2491 H   0  0  0  0  0  0  0  0  0  0  0  0
   -5.9357    3.2036    0.1881 H   0  0  0  0  0  0  0  0  0  0  0  0
   -5.6365    4.5324   -1.7587 H   0  0  0  0  0  0  0  0  0  0  0  0
   -4.0898    3.6849   -1.5374 H   0  0  0  0  0  0  0  0  0  0  0  0
   -4.2315    5.4258   -1.0797 H   0  0  0  0  0  0  0  0  0  0  0  0
   -6.2080    7.1622    1.1326 H   0  0  0  0  0  0  0  0  0  0  0  0
   -7.4917    5.4616   -1.0071 H   0  0  0  0  0  0  0  0  0  0  0  0
   -6.8678    7.7761   -1.6277 H   0  0  0  0  0  0  0  0  0  0  0  0
   -8.6579    7.5849   -1.6140 H   0  0  0  0  0  0  0  0  0  0  0  0
   -7.8387    8.4353   -0.2572 H   0  0  0  0  0  0  0  0  0  0  0  0
   -9.1727    3.9832    1.2938 H   0  0  0  0  0  0  0  0  0  0  0  0
  -10.5762    3.2023   -0.3812 H   0  0  0  0  0  0  0  0  0  0  0  0
   -9.1062    4.1961   -2.1292 H   0  0  0  0  0  0  0  0  0  0  0  0
  -10.0238    5.7574   -1.9889 H   0  0  0  0  0  0  0  0  0  0  0  0
  -10.8520    4.2696   -2.5651 H   0  0  0  0  0  0  0  0  0  0  0  0
  -13.4774    5.0693   -1.3391 H   0  0  0  0  0  0  0  0  0  0  0  0
  -14.0441    2.6697   -1.1103 H   0  0  0  0  0  0  0  0  0  0  0  0
  -15.6495    4.3017   -0.2163 H   0  0  0  0  0  0  0  0  0  0  0  0
  -14.7810    4.3579    1.3649 H   0  0  0  0  0  0  0  0  0  0  0  0
  -15.6262    2.8432    0.8299 H   0  0  0  0  0  0  0  0  0  0  0  0
  -11.3944    1.0228    0.0650 H   0  0  0  0  0  0  0  0  0  0  0  0
  -12.8599   -0.7994   -0.5568 H   0  0  0  0  0  0  0  0  0  0  0  0
  -14.9863    0.5168   -0.6367 H   0  0  0  0  0  0  0  0  0  0  0  0
  -14.9919    0.6200    1.1764 H   0  0  0  0  0  0  0  0  0  0  0  0
  -15.2059   -0.9496    0.3692 H   0  0  0  0  0  0  0  0  0  0  0  0
  -13.0642   -2.6121    2.7754 H   0  0  0  0  0  0  0  0  0  0  0  0
  -11.9698   -3.1249    0.1183 H   0  0  0  0  0  0  0  0  0  0  0  0
  -14.1278   -4.3560   -0.7317 H   0  0  0  0  0  0  0  0  0  0  0  0
  -15.0222   -3.3695    0.4643 H   0  0  0  0  0  0  0  0  0  0  0  0
  -14.1101   -2.5936   -0.8946 H   0  0  0  0  0  0  0  0  0  0  0  0
  -11.5174   -6.3781    1.8952 H   0  0  0  0  0  0  0  0  0  0  0  0
  -10.3731   -4.5820   -0.2379 H   0  0  0  0  0  0  0  0  0  0  0  0
  -10.8427   -6.3306   -2.0146 H   0  0  0  0  0  0  0  0  0  0  0  0
  -12.3575   -5.6779   -1.3412 H   0  0  0  0  0  0  0  0  0  0  0  0
  -11.7700   -7.2927   -0.8019 H   0  0  0  0  0  0  0  0  0  0  0  0
   -7.9152   -7.6244   -0.5275 H   0  0  0  0  0  0  0  0  0  0  0  0
   -8.7902   -5.0432   -1.8968 H   0  0  0  0  0  0  0  0  0  0  0  0
   -8.8622   -7.1229   -3.3141 H   0  0  0  0  0  0  0  0  0  0  0  0
   -7.1111   -7.4012   -2.9827 H   0  0  0  0  0  0  0  0  0  0  0  0
   -7.6464   -5.9251   -3.8884 H   0  0  0  0  0  0  0  0  0  0  0  0
   -6.4890   -4.9196    0.7270 H   0  0  0  0  0  0  0  0  0  0  0  0
   -5.5375   -7.1652    0.9451 H   0  0  0  0  0  0  0  0  0  0  0  0
   -5.0041   -9.3208   -1.9130 H   0  0  0  0  0  0  0  0  0  0  0  0
   -5.6321   -9.1849   -0.2333 H   0  0  0  0  0  0  0  0  0  0  0  0
   -3.0940   -6.6671    0.9589 H   0  0  0  0  0  0  0  0  0  0  0  0
   -4.1275   -5.4310    1.7468 H   0  0  0  0  0  0  0  0  0  0  0  0
   -3.3720   -2.6842    1.1152 H   0  0  0  0  0  0  0  0  0  0  0  0
   -2.4315   -3.9542    1.9644 H   0  0  0  0  0  0  0  0  0  0  0  0
  1  2  1  0
  2  3  2  0
  2  4  1  0
  4  5  1  0
  5  6  1  0
  6  7  1  0
  7  8  1  0
  8  9  1  0
  9 10  2  0
 10 11  1  0
 11 12  2  0
 12 13  1  0
 13 14  2  0
 13 15  1  0
 15 16  1  0
 16 17  1  0
 17 18  1  0
 18 19  1  0
 19 20  1  0
 20 21  2  0
 20 22  1  0
 22 23  1  0
 22 24  1  0
 24 25  1  0
 25 26  2  0
 25 27  1  0
 27 28  1  0
 27 29  1  0
 29 30  1  0
 30 31  2  0
 30 32  1  0
 32 33  1  0
 32 34  1  0
 34 35  1  0
 35 36  2  0
 35 37  1  0
 37 38  1  0
 37 39  1  0
 39 40  1  0
 40 41  2  0
 40 42  1  0
 42 43  1  0
 42 44  1  0
 44 45  1  0
 45 46  2  0
 45 47  1  0
 47 48  1  0
 47 49  1  0
 49 50  1  0
 50 51  2  0
 50 52  1  0
 52 53  1  0
 52 54  1  0
 54 55  1  0
 55 56  2  0
 55 57  1  0
 57 58  1  0
 57 59  1  0
 59 60  1  0
 60 61  2  0
 60 62  1  0
 62 63  1  0
 62 64  1  0
 64 65  1  0
 65 66  2  0
 18 67  1  0
 67 68  2  0
 67 69  1  0
 69 70  1  0
 70 71  1  0
 70 72  1  0
 72 73  2  0
 72 74  1  0
 74 75  1  0
 75 76  1  0
 75 77  1  0
 77 78  2  0
 77 79  1  0
 79 80  1  0
 80 81  1  0
 80 82  1  0
 82 83  2  0
 82 84  1  0
 84 85  1  0
 85 86  1  0
 85 87  1  0
 87 88  2  0
 87 89  1  0
 89 90  1  0
 90 91  1  0
 90 92  1  0
 92 93  2  0
 92 94  1  0
 94 95  1  0
 95 96  1  0
 95 97  1  0
 97 98  2  0
 97 99  1  0
 99100  1  0
100101  1  0
100102  1  0
102103  2  0
102104  1  0
104105  1  0
105106  1  0
105107  1  0
107108  2  0
107109  1  0
109110  1  0
110111  1  0
110112  1  0
112113  2  0
112114  1  0
114115  1  0
115116  1  0
116117  1  0
116118  2  0
115119  1  0
119120  1  0
120121  1  0
 65  5  1  0
 14  9  1  0
121 11  1  0
  1122  1  0
  1123  1  0
  1124  1  0
  4125  1  0
  5126  1  1
  6127  1  0
  6128  1  0
  8129  1  0
  8130  1  0
 10131  1  0
 12132  1  0
 14133  1  0
 15134  1  0
 15135  1  0
 17136  1  0
 17137  1  0
 18138  1  6
 19139  1  0
 22140  1  6
 23141  1  0
 23142  1  0
 23143  1  0
 24144  1  0
 27145  1  6
 28146  1  0
 28147  1  0
 28148  1  0
 29149  1  0
 32150  1  6
 33151  1  0
 33152  1  0
 33153  1  0
 34154  1  0
 37155  1  6
 38156  1  0
 38157  1  0
 38158  1  0
 39159  1  0
 42160  1  6
 43161  1  0
 43162  1  0
 43163  1  0
 44164  1  0
 47165  1  6
 48166  1  0
 48167  1  0
 48168  1  0
 49169  1  0
 52170  1  6
 53171  1  0
 53172  1  0
 53173  1  0
 54174  1  0
 57175  1  1
 58176  1  0
 58177  1  0
 58178  1  0
 59179  1  0
 62180  1  1
 63181  1  0
 63182  1  0
 63183  1  0
 64184  1  0
 69185  1  0
 70186  1  6
 71187  1  0
 71188  1  0
 71189  1  0
 74190  1  0
 75191  1  6
 76192  1  0
 76193  1  0
 76194  1  0
 79195  1  0
 80196  1  6
 81197  1  0
 81198  1  0
 81199  1  0
 84200  1  0
 85201  1  6
 86202  1  0
 86203  1  0
 86204  1  0
 89205  1  0
 90206  1  6
 91207  1  0
 91208  1  0
 91209  1  0
 94210  1  0
 95211  1  6
 96212  1  0
 96213  1  0
 96214  1  0
 99215  1  0
100216  1  6
101217  1  0
101218  1  0
101219  1  0
104220  1  0
105221  1  6
106222  1  0
106223  1  0
106224  1  0
109225  1  0
110226  1  6
111227  1  0
111228  1  0
111229  1  0
114230  1  0
115231  1  1
117232  1  0
117233  1  0
119234  1  0
119235  1  0
121236  1  0
121237  1  0
M  END
