
     RDKit          3D

227229  0  0  0  0  0  0  0  0999 V2000
   -3.4136    9.3847    1.7125 C   0  0  0  0  0  0  0  0  0  0  0  0
   -3.2118    8.6080    0.4475 C   0  0  0  0  0  0  0  0  0  0  0  0
   -2.6201    9.1454   -0.5297 O   0  0  0  0  0  0  0  0  0  0  0  0
   -3.6760    7.2520    0.3648 N   0  0  0  0  0  0  0  0  0  0  0  0
   -3.9742    6.5786   -0.8980 C   0  0  1  0  0  0  0  0  0  0  0  0
   -2.8775    5.5539   -1.2227 C   0  0  0  0  0  0  0  0  0  0  0  0
   -2.7016    4.2795    0.0825 S   0  0  0  0  0  0  0  0  0  0  0  0
   -1.1327    4.8748    0.8162 C   0  0  0  0  0  0  0  0  0  0  0  0
    0.0253    4.1288    0.2267 C   0  0  0  0  0  0  0  0  0  0  0  0
    0.7797    4.7023   -0.8042 C   0  0  0  0  0  0  0  0  0  0  0  0
    1.7938    3.9740   -1.4402 C   0  0  0  0  0  0  0  0  0  0  0  0
    2.0560    2.6648   -1.0196 C   0  0  0  0  0  0  0  0  0  0  0  0
    1.3638    2.0914    0.0595 C   0  0  0  0  0  0  0  0  0  0  0  0
    0.3261    2.8219    0.6620 C   0  0  0  0  0  0  0  0  0  0  0  0
    1.7462    0.6796    0.4621 C   0  0  0  0  0  0  0  0  0  0  0  0
    0.6575   -0.1509    1.6866 S   0  0  0  0  0  0  0  0  0  0  0  0
   -0.6995   -0.5854    0.5401 C   0  0  0  0  0  0  0  0  0  0  0  0
   -0.6587   -2.0289    0.0027 C   0  0  2  0  0  0  0  0  0  0  0  0
   -0.7794   -3.0285    1.0763 N   0  0  0  0  0  0  0  0  0  0  0  0
   -1.9253   -3.8730    1.2926 C   0  0  0  0  0  0  0  0  0  0  0  0
   -2.4644   -3.8047    2.4354 O   0  0  0  0  0  0  0  0  0  0  0  0
   -2.3128   -5.0338    0.3791 C   0  0  1  0  0  0  0  0  0  0  0  0
   -2.0380   -4.8732   -1.1260 C   0  0  0  0  0  0  0  0  0  0  0  0
   -1.6808   -6.2766    0.8514 N   0  0  0  0  0  0  0  0  0  0  0  0
   -2.3716   -7.5384    0.9827 C   0  0  0  0  0  0  0  0  0  0  0  0
   -1.9876   -8.3645    1.8605 O   0  0  0  0  0  0  0  0  0  0  0  0
   -3.4419   -7.9618   -0.0053 C   0  0  1  0  0  0  0  0  0  0  0  0
   -2.8877   -9.0062   -0.9777 C   0  0  0  0  0  0  0  0  0  0  0  0
   -4.6195   -8.5162    0.6832 N   0  0  0  0  0  0  0  0  0  0  0  0
   -5.9818   -8.1664    0.3815 C   0  0  0  0  0  0  0  0  0  0  0  0
   -6.8779   -8.4181    1.2349 O   0  0  0  0  0  0  0  0  0  0  0  0
   -6.4110   -7.6158   -0.9718 C   0  0  1  0  0  0  0  0  0  0  0  0
   -7.3425   -8.5773   -1.7178 C   0  0  0  0  0  0  0  0  0  0  0  0
   -6.9715   -6.2651   -0.8201 N   0  0  0  0  0  0  0  0  0  0  0  0
   -8.2329   -5.9658   -0.1860 C   0  0  0  0  0  0  0  0  0  0  0  0
   -9.0483   -6.8847    0.0975 O   0  0  0  0  0  0  0  0  0  0  0  0
   -8.5888   -4.5253    0.1367 C   0  0  1  0  0  0  0  0  0  0  0  0
   -8.9845   -3.7892   -1.1490 C   0  0  0  0  0  0  0  0  0  0  0  0
   -9.6703   -4.4894    1.1297 N   0  0  0  0  0  0  0  0  0  0  0  0
  -10.3716   -3.2845    1.4707 C   0  0  0  0  0  0  0  0  0  0  0  0
   -9.9004   -2.5274    2.3788 O   0  0  0  0  0  0  0  0  0  0  0  0
  -11.6672   -2.9091    0.7772 C   0  0  1  0  0  0  0  0  0  0  0  0
  -12.4998   -4.1567    0.4343 C   0  0  0  0  0  0  0  0  0  0  0  0
  -12.4670   -2.0146    1.6201 N   0  0  0  0  0  0  0  0  0  0  0  0
  -13.4858   -1.1169    1.1387 C   0  0  0  0  0  0  0  0  0  0  0  0
  -14.2683   -0.6070    1.9757 O   0  0  0  0  0  0  0  0  0  0  0  0
  -13.5503   -0.6672   -0.3217 C   0  0  1  0  0  0  0  0  0  0  0  0
  -14.9595   -0.2597   -0.7460 C   0  0  0  0  0  0  0  0  0  0  0  0
  -12.6009    0.4136   -0.6086 N   0  0  0  0  0  0  0  0  0  0  0  0
  -12.3827    1.5493    0.2496 C   0  0  0  0  0  0  0  0  0  0  0  0
  -12.2821    1.3842    1.4924 O   0  0  0  0  0  0  0  0  0  0  0  0
  -12.1853    2.9232   -0.3447 C   0  0  1  0  0  0  0  0  0  0  0  0
  -12.6749    4.0423    0.5891 C   0  0  0  0  0  0  0  0  0  0  0  0
  -10.8043    3.0983   -0.7736 N   0  0  0  0  0  0  0  0  0  0  0  0
   -9.8412    3.8992   -0.0832 C   0  0  0  0  0  0  0  0  0  0  0  0
   -9.4361    3.5155    1.0446 O   0  0  0  0  0  0  0  0  0  0  0  0
   -9.3139    5.1747   -0.6788 C   0  0  1  0  0  0  0  0  0  0  0  0
   -9.9678    5.5213   -2.0208 C   0  0  0  0  0  0  0  0  0  0  0  0
   -9.5503    6.2873    0.2552 N   0  0  0  0  0  0  0  0  0  0  0  0
   -8.5544    7.2355    0.6902 C   0  0  0  0  0  0  0  0  0  0  0  0
   -8.9280    8.3887    1.0373 O   0  0  0  0  0  0  0  0  0  0  0  0
   -7.0804    6.8978    0.7974 C   0  0  1  0  0  0  0  0  0  0  0  0
   -6.8524    5.6382    1.6501 C   0  0  0  0  0  0  0  0  0  0  0  0
   -6.4744    6.8176   -0.5390 N   0  0  0  0  0  0  0  0  0  0  0  0
   -5.3517    5.9829   -0.8314 C   0  0  0  0  0  0  0  0  0  0  0  0
   -5.5449    4.7559   -1.0730 O   0  0  0  0  0  0  0  0  0  0  0  0
    0.5352   -2.3352   -0.8592 C   0  0  0  0  0  0  0  0  0  0  0  0
    0.5077   -2.0461   -2.0837 O   0  0  0  0  0  0  0  0  0  0  0  0
    1.7077   -2.9397   -0.2833 N   0  0  0  0  0  0  0  0  0  0  0  0
    2.5984   -3.8698   -0.9933 C   0  0  2  0  0  0  0  0  0  0  0  0
    1.8291   -4.8797   -1.8451 C   0  0  0  0  0  0  0  0  0  0  0  0
    3.3892   -4.6604    0.0268 C   0  0  0  0  0  0  0  0  0  0  0  0
    2.7964   -5.1954    1.0094 O   0  0  0  0  0  0  0  0  0  0  0  0
    4.7690   -4.9439   -0.2042 N   0  0  0  0  0  0  0  0  0  0  0  0
    5.3895   -6.1980    0.2386 C   0  0  2  0  0  0  0  0  0  0  0  0
    5.9232   -6.0562    1.6672 C   0  0  0  0  0  0  0  0  0  0  0  0
    6.4896   -6.6072   -0.7032 C   0  0  0  0  0  0  0  0  0  0  0  0
    6.4243   -7.7163   -1.3063 O   0  0  0  0  0  0  0  0  0  0  0  0
    7.6164   -5.7442   -0.9232 N   0  0  0  0  0  0  0  0  0  0  0  0
    9.0173   -6.0597   -0.6003 C   0  0  2  0  0  0  0  0  0  0  0  0
    9.1601   -7.3337    0.2529 C   0  0  0  0  0  0  0  0  0  0  0  0
    9.6468   -4.8935    0.1371 C   0  0  0  0  0  0  0  0  0  0  0  0
    8.9802   -3.8488    0.3353 O   0  0  0  0  0  0  0  0  0  0  0  0
   11.0006   -4.9616    0.6052 N   0  0  0  0  0  0  0  0  0  0  0  0
   12.1452   -4.8581   -0.3018 C   0  0  2  0  0  0  0  0  0  0  0  0
   12.6343   -6.2512   -0.6940 C   0  0  0  0  0  0  0  0  0  0  0  0
   13.2451   -4.0483    0.3709 C   0  0  0  0  0  0  0  0  0  0  0  0
   14.1686   -4.6475    0.9694 O   0  0  0  0  0  0  0  0  0  0  0  0
   13.1912   -2.6204    0.4587 N   0  0  0  0  0  0  0  0  0  0  0  0
   12.0512   -1.7919    0.0536 C   0  0  2  0  0  0  0  0  0  0  0  0
   12.4512   -0.9754   -1.1868 C   0  0  0  0  0  0  0  0  0  0  0  0
   11.6127   -0.9210    1.2206 C   0  0  0  0  0  0  0  0  0  0  0  0
   11.7007   -1.3785    2.3875 O   0  0  0  0  0  0  0  0  0  0  0  0
   10.9375    0.3313    1.0091 N   0  0  0  0  0  0  0  0  0  0  0  0
   11.6569    1.6075    0.8460 C   0  0  2  0  0  0  0  0  0  0  0  0
   12.8676    1.7163    1.7915 C   0  0  0  0  0  0  0  0  0  0  0  0
   10.7047    2.7593    1.0958 C   0  0  0  0  0  0  0  0  0  0  0  0
   10.3049    3.0221    2.2617 O   0  0  0  0  0  0  0  0  0  0  0  0
   10.1670    3.4840   -0.0219 N   0  0  0  0  0  0  0  0  0  0  0  0
   10.4939    4.8804   -0.3320 C   0  0  2  0  0  0  0  0  0  0  0  0
   12.0118    5.0698   -0.4745 C   0  0  0  0  0  0  0  0  0  0  0  0
    9.9293    5.8332    0.6997 C   0  0  0  0  0  0  0  0  0  0  0  0
   10.3431    5.7510    1.8945 O   0  0  0  0  0  0  0  0  0  0  0  0
    8.9698    6.8592    0.3915 N   0  0  0  0  0  0  0  0  0  0  0  0
    8.6278    7.3331   -0.9583 C   0  0  2  0  0  0  0  0  0  0  0  0
    8.3175    8.8337   -0.9342 C   0  0  0  0  0  0  0  0  0  0  0  0
    7.4727    6.5516   -1.5429 C   0  0  0  0  0  0  0  0  0  0  0  0
    6.8969    6.9661   -2.5913 O   0  0  0  0  0  0  0  0  0  0  0  0
    7.1012    5.2738   -1.0019 N   0  0  0  0  0  0  0  0  0  0  0  0
    5.9086    5.0345   -0.1921 C   0  0  1  0  0  0  0  0  0  0  0  0
    6.0241    5.7165    1.1517 C   0  0  0  0  0  0  0  0  0  0  0  0
    5.8001    7.1218    1.2995 N   0  0  0  0  0  0  0  0  0  0  0  0
    6.3735    5.0413    2.1612 O   0  0  0  0  0  0  0  0  0  0  0  0
    4.6132    5.4194   -0.9237 C   0  0  0  0  0  0  0  0  0  0  0  0
    4.3915    4.3551   -2.3987 S   0  0  0  0  0  0  0  0  0  0  0  0
    2.5766    4.5980   -2.5757 C   0  0  0  0  0  0  0  0  0  0  0  0
   -4.0147    8.7900    2.4356 H   0  0  0  0  0  0  0  0  0  0  0  0
   -2.4293    9.6201    2.1547 H   0  0  0  0  0  0  0  0  0  0  0  0
   -3.9593   10.3259    1.4830 H   0  0  0  0  0  0  0  0  0  0  0  0
   -3.8007    6.7170    1.2577 H   0  0  0  0  0  0  0  0  0  0  0  0
   -3.9980    7.3160   -1.7182 H   0  0  0  0  0  0  0  0  0  0  0  0
   -1.9171    6.0800   -1.4072 H   0  0  0  0  0  0  0  0  0  0  0  0
   -3.1350    5.0316   -2.1702 H   0  0  0  0  0  0  0  0  0  0  0  0
   -1.0163    5.9692    0.6723 H   0  0  0  0  0  0  0  0  0  0  0  0
   -1.1553    4.7025    1.9153 H   0  0  0  0  0  0  0  0  0  0  0  0
    0.5571    5.7136   -1.1349 H   0  0  0  0  0  0  0  0  0  0  0  0
    2.8378    2.0917   -1.5178 H   0  0  0  0  0  0  0  0  0  0  0  0
   -0.2682    2.3961    1.4611 H   0  0  0  0  0  0  0  0  0  0  0  0
    2.7709    0.7319    0.8917 H   0  0  0  0  0  0  0  0  0  0  0  0
    1.8145    0.0464   -0.4553 H   0  0  0  0  0  0  0  0  0  0  0  0
   -1.6460   -0.4141    1.0976 H   0  0  0  0  0  0  0  0  0  0  0  0
   -0.7206    0.1188   -0.3220 H   0  0  0  0  0  0  0  0  0  0  0  0
   -1.5595   -2.0723   -0.6249 H   0  0  0  0  0  0  0  0  0  0  0  0
   -0.1086   -2.9381    1.8723 H   0  0  0  0  0  0  0  0  0  0  0  0
   -3.4022   -5.1597    0.5240 H   0  0  0  0  0  0  0  0  0  0  0  0
   -2.8157   -5.4206   -1.6972 H   0  0  0  0  0  0  0  0  0  0  0  0
   -1.0618   -5.3180   -1.4041 H   0  0  0  0  0  0  0  0  0  0  0  0
   -2.0463   -3.8501   -1.5115 H   0  0  0  0  0  0  0  0  0  0  0  0
   -0.7226   -6.2175    1.2728 H   0  0  0  0  0  0  0  0  0  0  0  0
   -3.7537   -7.0795   -0.5845 H   0  0  0  0  0  0  0  0  0  0  0  0
   -1.9647   -8.6265   -1.4596 H   0  0  0  0  0  0  0  0  0  0  0  0
   -2.6629   -9.9568   -0.4368 H   0  0  0  0  0  0  0  0  0  0  0  0
   -3.6470   -9.2043   -1.7612 H   0  0  0  0  0  0  0  0  0  0  0  0
   -4.4688   -9.1956    1.4751 H   0  0  0  0  0  0  0  0  0  0  0  0
   -5.5256   -7.5314   -1.6414 H   0  0  0  0  0  0  0  0  0  0  0  0
   -7.5869   -8.1725   -2.7260 H   0  0  0  0  0  0  0  0  0  0  0  0
   -8.2833   -8.7764   -1.1626 H   0  0  0  0  0  0  0  0  0  0  0  0
   -6.8340   -9.5459   -1.8765 H   0  0  0  0  0  0  0  0  0  0  0  0
   -6.4339   -5.4782   -1.2410 H   0  0  0  0  0  0  0  0  0  0  0  0
   -7.6851   -4.0261    0.5711 H   0  0  0  0  0  0  0  0  0  0  0  0
   -8.1841   -3.8602   -1.9115 H   0  0  0  0  0  0  0  0  0  0  0  0
   -9.9225   -4.2062   -1.5745 H   0  0  0  0  0  0  0  0  0  0  0  0
   -9.1255   -2.6989   -0.9288 H   0  0  0  0  0  0  0  0  0  0  0  0
   -9.5623   -5.1399    1.9421 H   0  0  0  0  0  0  0  0  0  0  0  0
  -11.3931   -2.3924   -0.1574 H   0  0  0  0  0  0  0  0  0  0  0  0
  -12.7485   -4.7167    1.3568 H   0  0  0  0  0  0  0  0  0  0  0  0
  -11.9415   -4.8243   -0.2562 H   0  0  0  0  0  0  0  0  0  0  0  0
  -13.4508   -3.8652   -0.0603 H   0  0  0  0  0  0  0  0  0  0  0  0
  -12.4020   -2.1383    2.6521 H   0  0  0  0  0  0  0  0  0  0  0  0
  -13.2838   -1.5448   -0.9568 H   0  0  0  0  0  0  0  0  0  0  0  0
  -14.9534   -0.0533   -1.8380 H   0  0  0  0  0  0  0  0  0  0  0  0
  -15.6619   -1.1013   -0.5495 H   0  0  0  0  0  0  0  0  0  0  0  0
  -15.2890    0.6532   -0.2112 H   0  0  0  0  0  0  0  0  0  0  0  0
  -12.4211    0.5733   -1.6243 H   0  0  0  0  0  0  0  0  0  0  0  0
  -12.8361    2.9766   -1.2387 H   0  0  0  0  0  0  0  0  0  0  0  0
  -13.7584    3.9366    0.8028 H   0  0  0  0  0  0  0  0  0  0  0  0
  -12.1302    4.0441    1.5568 H   0  0  0  0  0  0  0  0  0  0  0  0
  -12.5255    5.0204    0.0945 H   0  0  0  0  0  0  0  0  0  0  0  0
  -10.4591    2.5034   -1.5756 H   0  0  0  0  0  0  0  0  0  0  0  0
   -8.2335    5.0475   -0.8704 H   0  0  0  0  0  0  0  0  0  0  0  0
   -9.7825    4.7091   -2.7517 H   0  0  0  0  0  0  0  0  0  0  0  0
  -11.0602    5.6640   -1.9039 H   0  0  0  0  0  0  0  0  0  0  0  0
   -9.5282    6.4561   -2.4297 H   0  0  0  0  0  0  0  0  0  0  0  0
  -10.5472    6.5030    0.5013 H   0  0  0  0  0  0  0  0  0  0  0  0
   -6.5826    7.7312    1.3412 H   0  0  0  0  0  0  0  0  0  0  0  0
   -7.1643    4.7223    1.1178 H   0  0  0  0  0  0  0  0  0  0  0  0
   -5.7827    5.5400    1.9028 H   0  0  0  0  0  0  0  0  0  0  0  0
   -7.4250    5.7085    2.5983 H   0  0  0  0  0  0  0  0  0  0  0  0
   -6.5826    7.6602   -1.1496 H   0  0  0  0  0  0  0  0  0  0  0  0
    1.9462   -2.6701    0.7001 H   0  0  0  0  0  0  0  0  0  0  0  0
    3.2748   -3.2884   -1.6649 H   0  0  0  0  0  0  0  0  0  0  0  0
    1.2135   -4.3932   -2.6403 H   0  0  0  0  0  0  0  0  0  0  0  0
    2.5503   -5.5442   -2.3759 H   0  0  0  0  0  0  0  0  0  0  0  0
    1.1723   -5.5171   -1.2163 H   0  0  0  0  0  0  0  0  0  0  0  0
    5.3536   -4.1895   -0.6281 H   0  0  0  0  0  0  0  0  0  0  0  0
    4.6102   -7.0006    0.2332 H   0  0  0  0  0  0  0  0  0  0  0  0
    6.7426   -5.3062    1.7078 H   0  0  0  0  0  0  0  0  0  0  0  0
    6.3040   -7.0429    2.0141 H   0  0  0  0  0  0  0  0  0  0  0  0
    5.0972   -5.7407    2.3509 H   0  0  0  0  0  0  0  0  0  0  0  0
    7.4347   -4.8752   -1.4759 H   0  0  0  0  0  0  0  0  0  0  0  0
    9.5581   -6.2244   -1.5517 H   0  0  0  0  0  0  0  0  0  0  0  0
    8.6706   -7.2088    1.2457 H   0  0  0  0  0  0  0  0  0  0  0  0
    8.7168   -8.2160   -0.2623 H   0  0  0  0  0  0  0  0  0  0  0  0
   10.2276   -7.5690    0.4209 H   0  0  0  0  0  0  0  0  0  0  0  0
   11.1430   -4.7330    1.6245 H   0  0  0  0  0  0  0  0  0  0  0  0
   11.8495   -4.3329   -1.2305 H   0  0  0  0  0  0  0  0  0  0  0  0
   11.8497   -6.7851   -1.2743 H   0  0  0  0  0  0  0  0  0  0  0  0
   12.8717   -6.8602    0.2093 H   0  0  0  0  0  0  0  0  0  0  0  0
   13.5354   -6.1879   -1.3344 H   0  0  0  0  0  0  0  0  0  0  0  0
   13.9946   -2.1363    0.9247 H   0  0  0  0  0  0  0  0  0  0  0  0
   11.1846   -2.3950   -0.2236 H   0  0  0  0  0  0  0  0  0  0  0  0
   13.2619   -0.2626   -0.9581 H   0  0  0  0  0  0  0  0  0  0  0  0
   11.5780   -0.4254   -1.5938 H   0  0  0  0  0  0  0  0  0  0  0  0
   12.8018   -1.6758   -1.9716 H   0  0  0  0  0  0  0  0  0  0  0  0
    9.9134    0.3467    1.2215 H   0  0  0  0  0  0  0  0  0  0  0  0
   12.0087    1.6792   -0.2040 H   0  0  0  0  0  0  0  0  0  0  0  0
   13.1788    2.7769    1.9233 H   0  0  0  0  0  0  0  0  0  0  0  0
   13.7242    1.1738    1.3514 H   0  0  0  0  0  0  0  0  0  0  0  0
   12.6233    1.2824    2.7850 H   0  0  0  0  0  0  0  0  0  0  0  0
    9.3752    3.0249   -0.5402 H   0  0  0  0  0  0  0  0  0  0  0  0
   10.0494    5.0968   -1.3230 H   0  0  0  0  0  0  0  0  0  0  0  0
   12.5249    4.8806    0.4991 H   0  0  0  0  0  0  0  0  0  0  0  0
   12.4162    4.3698   -1.2313 H   0  0  0  0  0  0  0  0  0  0  0  0
   12.2353    6.1099   -0.7979 H   0  0  0  0  0  0  0  0  0  0  0  0
    8.5737    7.3969    1.2091 H   0  0  0  0  0  0  0  0  0  0  0  0
    9.5031    7.2133   -1.6256 H   0  0  0  0  0  0  0  0  0  0  0  0
    9.1631    9.3834   -0.4658 H   0  0  0  0  0  0  0  0  0  0  0  0
    8.1885    9.2122   -1.9631 H   0  0  0  0  0  0  0  0  0  0  0  0
    7.3930    9.0487   -0.3587 H   0  0  0  0  0  0  0  0  0  0  0  0
    7.6705    4.4556   -1.3018 H   0  0  0  0  0  0  0  0  0  0  0  0
    5.8516    3.9407    0.0042 H   0  0  0  0  0  0  0  0  0  0  0  0
    5.5900    7.7271    0.4828 H   0  0  0  0  0  0  0  0  0  0  0  0
    5.8026    7.5489    2.2556 H   0  0  0  0  0  0  0  0  0  0  0  0
    4.6358    6.4870   -1.2438 H   0  0  0  0  0  0  0  0  0  0  0  0
    3.7577    5.2849   -0.2222 H   0  0  0  0  0  0  0  0  0  0  0  0
    2.3603    5.6831   -2.6729 H   0  0  0  0  0  0  0  0  0  0  0  0
    2.2582    4.1218   -3.5310 H   0  0  0  0  0  0  0  0  0  0  0  0
  1  2  1  0
  2  3  2  0
  2  4  1  0
  4  5  1  0
  5  6  1  0
  6  7  1  0
  7  8  1  0
  8  9  1  0
  9 10  1  0
 10 11  2  0
 11 12  1  0
 12 13  2  0
 13 14  1  0
 13 15  1  0
 15 16  1  0
 16 17  1  0
 17 18  1  0
 18 19  1  0
 19 20  1  0
 20 21  2  0
 20 22  1  0
 22 23  1  0
 22 24  1  0
 24 25  1  0
 25 26  2  0
 25 27  1  0
 27 28  1  0
 27 29  1  0
 29 30  1  0
 30 31  2  0
 30 32  1  0
 32 33  1  0
 32 34  1  0
 34 35  1  0
 35 36  2  0
 35 37  1  0
 37 38  1  0
 37 39  1  0
 39 40  1  0
 40 41  2  0
 40 42  1  0
 42 43  1  0
 42 44  1  0
 44 45  1  0
 45 46  2  0
 45 47  1  0
 47 48  1  0
 47 49  1  0
 49 50  1  0
 50 51  2  0
 50 52  1  0
 52 53  1  0
 52 54  1  0
 54 55  1  0
 55 56  2  0
 55 57  1  0
 57 58  1  0
 57 59  1  0
 59 60  1  0
 60 61  2  0
 60 62  1  0
 62 63  1  0
 62 64  1  0
 64 65  1  0
 65 66  2  0
 18 67  1  0
 67 68  2  0
 67 69  1  0
 69 70  1  0
 70 71  1  0
 70 72  1  0
 72 73  2  0
 72 74  1  0
 74 75  1  0
 75 76  1  0
 75 77  1  0
 77 78  2  0
 77 79  1  0
 79 80  1  0
 80 81  1  0
 80 82  1  0
 82 83  2  0
 82 84  1  0
 84 85  1  0
 85 86  1  0
 85 87  1  0
 87 88  2  0
 87 89  1  0
 89 90  1  0
 90 91  1  0
 90 92  1  0
 92 93  2  0
 92 94  1  0
 94 95  1  0
 95 96  1  0
 95 97  1  0
 97 98  2  0
 97 99  1  0
 99100  1  0
100101  1  0
100102  1  0
102103  2  0
102104  1  0
104105  1  0
105106  1  0
105107  1  0
107108  2  0
107109  1  0
109110  1  0
110111  1  0
111112  1  0
111113  2  0
110114  1  0
114115  1  0
115116  1  0
 65  5  1  0
 14  9  2  0
116 11  1  0
  1117  1  0
  1118  1  0
  1119  1  0
  4120  1  0
  5121  1  6
  6122  1  0
  6123  1  0
  8124  1  0
  8125  1  0
 10126  1  0
 12127  1  0
 14128  1  0
 15129  1  0
 15130  1  0
 17131  1  0
 17132  1  0
 18133  1  6
 19134  1  0
 22135  1  6
 23136  1  0
 23137  1  0
 23138  1  0
 24139  1  0
 27140  1  6
 28141  1  0
 28142  1  0
 28143  1  0
 29144  1  0
 32145  1  6
 33146  1  0
 33147  1  0
 33148  1  0
 34149  1  0
 37150  1  1
 38151  1  0
 38152  1  0
 38153  1  0
 39154  1  0
 42155  1  6
 43156  1  0
 43157  1  0
 43158  1  0
 44159  1  0
 47160  1  6
 48161  1  0
 48162  1  0
 48163  1  0
 49164  1  0
 52165  1  6
 53166  1  0
 53167  1  0
 53168  1  0
 54169  1  0
 57170  1  6
 58171  1  0
 58172  1  0
 58173  1  0
 59174  1  0
 62175  1  1
 63176  1  0
 63177  1  0
 63178  1  0
 64179  1  0
 69180  1  0
 70181  1  6
 71182  1  0
 71183  1  0
 71184  1  0
 74185  1  0
 75186  1  1
 76187  1  0
 76188  1  0
 76189  1  0
 79190  1  0
 80191  1  6
 81192  1  0
 81193  1  0
 81194  1  0
 84195  1  0
 85196  1  6
 86197  1  0
 86198  1  0
 86199  1  0
 89200  1  0
 90201  1  6
 91202  1  0
 91203  1  0
 91204  1  0
 94205  1  0
 95206  1  6
 96207  1  0
 96208  1  0
 96209  1  0
 99210  1  0
100211  1  6
101212  1  0
101213  1  0
101214  1  0
104215  1  0
105216  1  6
106217  1  0
106218  1  0
106219  1  0
109220  1  0
110221  1  1
112222  1  0
112223  1  0
114224  1  0
114225  1  0
116226  1  0
116227  1  0
M  END
