
     RDKit          3D

237239  0  0  0  0  0  0  0  0999 V2000
   -4.0661   -7.0057    1.5466 C   0  0  0  0  0  0  0  0  0  0  0  0
   -4.5732   -6.8575    0.1446 C   0  0  0  0  0  0  0  0  0  0  0  0
   -4.3972   -7.8012   -0.6743 O   0  0  0  0  0  0  0  0  0  0  0  0
   -5.2563   -5.6607   -0.2612 N   0  0  0  0  0  0  0  0  0  0  0  0
   -5.6464   -5.3658   -1.6429 C   0  0  1  0  0  0  0  0  0  0  0  0
   -4.4072   -5.1692   -2.5358 C   0  0  0  0  0  0  0  0  0  0  0  0
   -3.4295   -3.7189   -1.9917 S   0  0  0  0  0  0  0  0  0  0  0  0
   -2.0730   -4.6712   -1.2206 C   0  0  0  0  0  0  0  0  0  0  0  0
   -1.0562   -3.7357   -0.6389 C   0  0  0  0  0  0  0  0  0  0  0  0
    0.2816   -3.7961   -1.0569 C   0  0  0  0  0  0  0  0  0  0  0  0
    1.2479   -2.9799   -0.4510 C   0  0  0  0  0  0  0  0  0  0  0  0
    0.8751   -2.1012    0.5812 C   0  0  0  0  0  0  0  0  0  0  0  0
   -0.4740   -1.9874    0.9626 C   0  0  0  0  0  0  0  0  0  0  0  0
   -1.4266   -2.8460    0.3885 C   0  0  0  0  0  0  0  0  0  0  0  0
   -0.8601   -1.0185    2.0468 C   0  0  0  0  0  0  0  0  0  0  0  0
   -2.3575   -0.0427    1.6301 S   0  0  0  0  0  0  0  0  0  0  0  0
   -1.6836    0.9046    0.2110 C   0  0  0  0  0  0  0  0  0  0  0  0
   -1.4577    2.3901    0.5538 C   0  0  2  0  0  0  0  0  0  0  0  0
   -1.4391    3.1843   -0.6765 N   0  0  0  0  0  0  0  0  0  0  0  0
   -1.8280    4.5704   -0.7670 C   0  0  0  0  0  0  0  0  0  0  0  0
   -1.7349    5.1447   -1.8902 O   0  0  0  0  0  0  0  0  0  0  0  0
   -2.4631    5.3220    0.3845 C   0  0  1  0  0  0  0  0  0  0  0  0
   -1.9888    6.7796    0.3761 C   0  0  0  0  0  0  0  0  0  0  0  0
   -3.9248    5.2151    0.2624 N   0  0  0  0  0  0  0  0  0  0  0  0
   -4.8593    6.1846    0.7487 C   0  0  0  0  0  0  0  0  0  0  0  0
   -4.6693    6.7342    1.8663 O   0  0  0  0  0  0  0  0  0  0  0  0
   -6.1141    6.5110   -0.0367 C   0  0  1  0  0  0  0  0  0  0  0  0
   -6.3755    8.0181   -0.0584 C   0  0  0  0  0  0  0  0  0  0  0  0
   -5.9906    6.0318   -1.4214 N   0  0  0  0  0  0  0  0  0  0  0  0
   -6.9158    5.1664   -2.1077 C   0  0  0  0  0  0  0  0  0  0  0  0
   -6.7079    4.9191   -3.3292 O   0  0  0  0  0  0  0  0  0  0  0  0
   -8.1187    4.5552   -1.4318 C   0  0  1  0  0  0  0  0  0  0  0  0
   -9.2545    5.5758   -1.3455 C   0  0  0  0  0  0  0  0  0  0  0  0
   -8.5988    3.3783   -2.1665 N   0  0  0  0  0  0  0  0  0  0  0  0
   -8.8308    2.0683   -1.5962 C   0  0  0  0  0  0  0  0  0  0  0  0
   -9.6776    1.3172   -2.1357 O   0  0  0  0  0  0  0  0  0  0  0  0
   -7.9545    1.4845   -0.5074 C   0  0  1  0  0  0  0  0  0  0  0  0
   -6.4692    1.5854   -0.8958 C   0  0  0  0  0  0  0  0  0  0  0  0
   -8.2307    2.1057    0.7948 N   0  0  0  0  0  0  0  0  0  0  0  0
   -7.6101    1.6716    2.0128 C   0  0  0  0  0  0  0  0  0  0  0  0
   -6.8570    0.6628    2.0313 O   0  0  0  0  0  0  0  0  0  0  0  0
   -7.8759    2.4031    3.3061 C   0  0  1  0  0  0  0  0  0  0  0  0
   -7.2008    3.7740    3.2679 C   0  0  0  0  0  0  0  0  0  0  0  0
   -9.3221    2.5399    3.5372 N   0  0  0  0  0  0  0  0  0  0  0  0
  -10.2083    1.4056    3.4761 C   0  0  0  0  0  0  0  0  0  0  0  0
   -9.7342    0.2518    3.3225 O   0  0  0  0  0  0  0  0  0  0  0  0
  -11.7054    1.5654    3.6597 C   0  0  1  0  0  0  0  0  0  0  0  0
  -12.2519    2.8945    3.1258 C   0  0  0  0  0  0  0  0  0  0  0  0
  -12.4087    0.4295    3.0502 N   0  0  0  0  0  0  0  0  0  0  0  0
  -12.3865    0.1286    1.6388 C   0  0  0  0  0  0  0  0  0  0  0  0
  -12.0906    1.0171    0.7917 O   0  0  0  0  0  0  0  0  0  0  0  0
  -12.7238   -1.2641    1.1742 C   0  0  1  0  0  0  0  0  0  0  0  0
  -14.2274   -1.4342    0.9516 C   0  0  0  0  0  0  0  0  0  0  0  0
  -12.0033   -1.5790   -0.0646 N   0  0  0  0  0  0  0  0  0  0  0  0
  -11.0686   -2.6667   -0.1580 C   0  0  0  0  0  0  0  0  0  0  0  0
  -10.6600   -3.2462    0.8800 O   0  0  0  0  0  0  0  0  0  0  0  0
  -10.5990   -3.1509   -1.5115 C   0  0  1  0  0  0  0  0  0  0  0  0
   -9.3111   -2.4393   -1.9479 C   0  0  0  0  0  0  0  0  0  0  0  0
  -10.4462   -4.6148   -1.5184 N   0  0  0  0  0  0  0  0  0  0  0  0
   -9.2969   -5.3177   -1.0004 C   0  0  0  0  0  0  0  0  0  0  0  0
   -8.5429   -4.7589   -0.1528 O   0  0  0  0  0  0  0  0  0  0  0  0
   -9.0091   -6.7503   -1.4050 C   0  0  1  0  0  0  0  0  0  0  0  0
   -9.5285   -7.0991   -2.8019 C   0  0  0  0  0  0  0  0  0  0  0  0
   -7.5707   -7.0134   -1.3057 N   0  0  0  0  0  0  0  0  0  0  0  0
   -6.6011   -6.4067   -2.1714 C   0  0  0  0  0  0  0  0  0  0  0  0
   -6.5665   -6.7505   -3.3852 O   0  0  0  0  0  0  0  0  0  0  0  0
   -0.1908    2.6153    1.3579 C   0  0  0  0  0  0  0  0  0  0  0  0
   -0.1025    2.1265    2.5173 O   0  0  0  0  0  0  0  0  0  0  0  0
    0.8469    3.4962    0.9141 N   0  0  0  0  0  0  0  0  0  0  0  0
    1.7194    3.2950   -0.2534 C   0  0  2  0  0  0  0  0  0  0  0  0
    2.2391    1.8459   -0.3072 C   0  0  0  0  0  0  0  0  0  0  0  0
    2.8858    4.2719   -0.2430 C   0  0  0  0  0  0  0  0  0  0  0  0
    3.1973    4.8598    0.8223 O   0  0  0  0  0  0  0  0  0  0  0  0
    3.6441    4.5254   -1.4441 N   0  0  0  0  0  0  0  0  0  0  0  0
    4.5248    5.6949   -1.5550 C   0  0  2  0  0  0  0  0  0  0  0  0
    3.6821    6.9780   -1.5916 C   0  0  0  0  0  0  0  0  0  0  0  0
    5.3729    5.6139   -2.8096 C   0  0  0  0  0  0  0  0  0  0  0  0
    4.7808    5.4519   -3.9101 O   0  0  0  0  0  0  0  0  0  0  0  0
    6.8091    5.6841   -2.8062 N   0  0  0  0  0  0  0  0  0  0  0  0
    7.6708    5.7551   -1.6076 C   0  0  2  0  0  0  0  0  0  0  0  0
    7.6821    7.1793   -1.0431 C   0  0  0  0  0  0  0  0  0  0  0  0
    9.0778    5.3388   -1.9719 C   0  0  0  0  0  0  0  0  0  0  0  0
    9.7017    5.9799   -2.8628 O   0  0  0  0  0  0  0  0  0  0  0  0
    9.6979    4.1821   -1.3928 N   0  0  0  0  0  0  0  0  0  0  0  0
   10.2221    4.1078   -0.0197 C   0  0  2  0  0  0  0  0  0  0  0  0
    9.1004    4.1712    1.0187 C   0  0  0  0  0  0  0  0  0  0  0  0
   11.2533    5.1889    0.2451 C   0  0  0  0  0  0  0  0  0  0  0  0
   10.9469    6.3908    0.0005 O   0  0  0  0  0  0  0  0  0  0  0  0
   12.5483    4.9132    0.8084 N   0  0  0  0  0  0  0  0  0  0  0  0
   13.0583    3.5778    1.1493 C   0  0  2  0  0  0  0  0  0  0  0  0
   14.2486    3.7085    2.1090 C   0  0  0  0  0  0  0  0  0  0  0  0
   13.4831    2.8430   -0.1052 C   0  0  0  0  0  0  0  0  0  0  0  0
   13.6723    3.5057   -1.1658 O   0  0  0  0  0  0  0  0  0  0  0  0
   13.7538    1.4288   -0.1317 N   0  0  0  0  0  0  0  0  0  0  0  0
   13.4590    0.4660    0.9303 C   0  0  2  0  0  0  0  0  0  0  0  0
   14.7720   -0.1690    1.4028 C   0  0  0  0  0  0  0  0  0  0  0  0
   12.4506   -0.5394    0.4182 C   0  0  0  0  0  0  0  0  0  0  0  0
   11.4296   -0.1014   -0.1742 O   0  0  0  0  0  0  0  0  0  0  0  0
   12.6127   -1.9618    0.6058 N   0  0  0  0  0  0  0  0  0  0  0  0
   12.0414   -3.0046   -0.2491 C   0  0  2  0  0  0  0  0  0  0  0  0
   12.3699   -2.7443   -1.7271 C   0  0  0  0  0  0  0  0  0  0  0  0
   10.5516   -3.1294   -0.0295 C   0  0  0  0  0  0  0  0  0  0  0  0
    9.7937   -2.1844   -0.3904 O   0  0  0  0  0  0  0  0  0  0  0  0
    9.9511   -4.2722    0.6007 N   0  0  0  0  0  0  0  0  0  0  0  0
   10.4721   -5.6485    0.5959 C   0  0  2  0  0  0  0  0  0  0  0  0
   10.7620   -6.1677   -0.8238 C   0  0  0  0  0  0  0  0  0  0  0  0
    9.5158   -6.5675    1.3307 C   0  0  0  0  0  0  0  0  0  0  0  0
    9.9733   -7.2715    2.2691 O   0  0  0  0  0  0  0  0  0  0  0  0
    8.0918   -6.5672    1.1002 N   0  0  0  0  0  0  0  0  0  0  0  0
    7.4492   -6.6548   -0.2267 C   0  0  2  0  0  0  0  0  0  0  0  0
    7.1947   -5.2444   -0.7931 C   0  0  0  0  0  0  0  0  0  0  0  0
    6.1554   -7.4401   -0.1089 C   0  0  0  0  0  0  0  0  0  0  0  0
    6.1844   -8.6140    0.3506 O   0  0  0  0  0  0  0  0  0  0  0  0
    4.9041   -6.8703   -0.5070 N   0  0  0  0  0  0  0  0  0  0  0  0
    3.6707   -6.9263    0.2951 C   0  0  1  0  0  0  0  0  0  0  0  0
    3.9644   -7.0090    1.7791 C   0  0  0  0  0  0  0  0  0  0  0  0
    3.4146   -8.0678    2.5621 N   0  0  0  0  0  0  0  0  0  0  0  0
    4.7070   -6.1546    2.3331 O   0  0  0  0  0  0  0  0  0  0  0  0
    2.7920   -5.7130   -0.0217 C   0  0  0  0  0  0  0  0  0  0  0  0
    3.6499   -4.1233    0.3173 S   0  0  0  0  0  0  0  0  0  0  0  0
    2.6920   -3.0953   -0.8554 C   0  0  0  0  0  0  0  0  0  0  0  0
   -4.6081   -7.8277    2.0547 H   0  0  0  0  0  0  0  0  0  0  0  0
   -2.9781   -7.2376    1.5329 H   0  0  0  0  0  0  0  0  0  0  0  0
   -4.2130   -6.0631    2.1146 H   0  0  0  0  0  0  0  0  0  0  0  0
   -5.4966   -4.9572    0.4718 H   0  0  0  0  0  0  0  0  0  0  0  0
   -6.2075   -4.4031   -1.6436 H   0  0  0  0  0  0  0  0  0  0  0  0
   -4.7359   -4.9529   -3.5743 H   0  0  0  0  0  0  0  0  0  0  0  0
   -3.8017   -6.1012   -2.5702 H   0  0  0  0  0  0  0  0  0  0  0  0
   -2.4615   -5.3003   -0.3976 H   0  0  0  0  0  0  0  0  0  0  0  0
   -1.6118   -5.3408   -1.9760 H   0  0  0  0  0  0  0  0  0  0  0  0
    0.5694   -4.4839   -1.8488 H   0  0  0  0  0  0  0  0  0  0  0  0
    1.6452   -1.5063    1.0754 H   0  0  0  0  0  0  0  0  0  0  0  0
   -2.4543   -2.8021    0.7202 H   0  0  0  0  0  0  0  0  0  0  0  0
   -1.0757   -1.5959    2.9717 H   0  0  0  0  0  0  0  0  0  0  0  0
   -0.0254   -0.3295    2.2710 H   0  0  0  0  0  0  0  0  0  0  0  0
   -0.7645    0.4416   -0.1998 H   0  0  0  0  0  0  0  0  0  0  0  0
   -2.4632    0.8530   -0.5836 H   0  0  0  0  0  0  0  0  0  0  0  0
   -2.3233    2.7053    1.1706 H   0  0  0  0  0  0  0  0  0  0  0  0
   -1.0724    2.7322   -1.5399 H   0  0  0  0  0  0  0  0  0  0  0  0
   -2.1601    4.8858    1.3584 H   0  0  0  0  0  0  0  0  0  0  0  0
   -2.4414    7.3401   -0.4697 H   0  0  0  0  0  0  0  0  0  0  0  0
   -2.2663    7.2823    1.3277 H   0  0  0  0  0  0  0  0  0  0  0  0
   -0.8812    6.8240    0.2843 H   0  0  0  0  0  0  0  0  0  0  0  0
   -4.3225    4.3697   -0.2140 H   0  0  0  0  0  0  0  0  0  0  0  0
   -6.9666    6.0345    0.4821 H   0  0  0  0  0  0  0  0  0  0  0  0
   -5.4857    8.5659   -0.4493 H   0  0  0  0  0  0  0  0  0  0  0  0
   -6.5994    8.3945    0.9672 H   0  0  0  0  0  0  0  0  0  0  0  0
   -7.2423    8.2496   -0.7167 H   0  0  0  0  0  0  0  0  0  0  0  0
   -5.1816    6.3879   -1.9744 H   0  0  0  0  0  0  0  0  0  0  0  0
   -7.8263    4.2730   -0.4104 H   0  0  0  0  0  0  0  0  0  0  0  0
   -9.5780    5.8811   -2.3662 H   0  0  0  0  0  0  0  0  0  0  0  0
  -10.1226    5.1326   -0.8097 H   0  0  0  0  0  0  0  0  0  0  0  0
   -8.9416    6.4905   -0.7997 H   0  0  0  0  0  0  0  0  0  0  0  0
   -8.9993    3.5435   -3.1180 H   0  0  0  0  0  0  0  0  0  0  0  0
   -8.1998    0.4046   -0.4170 H   0  0  0  0  0  0  0  0  0  0  0  0
   -5.8385    0.9919   -0.2074 H   0  0  0  0  0  0  0  0  0  0  0  0
   -6.3210    1.1624   -1.9106 H   0  0  0  0  0  0  0  0  0  0  0  0
   -6.1162    2.6353   -0.8854 H   0  0  0  0  0  0  0  0  0  0  0  0
   -8.9138    2.8858    0.8634 H   0  0  0  0  0  0  0  0  0  0  0  0
   -7.4290    1.8193    4.1497 H   0  0  0  0  0  0  0  0  0  0  0  0
   -6.1208    3.6654    3.0385 H   0  0  0  0  0  0  0  0  0  0  0  0
   -7.6633    4.4240    2.4991 H   0  0  0  0  0  0  0  0  0  0  0  0
   -7.2971    4.2666    4.2587 H   0  0  0  0  0  0  0  0  0  0  0  0
   -9.6770    3.4373    3.9428 H   0  0  0  0  0  0  0  0  0  0  0  0
  -11.8936    1.5494    4.7558 H   0  0  0  0  0  0  0  0  0  0  0  0
  -11.8644    3.1113    2.1054 H   0  0  0  0  0  0  0  0  0  0  0  0
  -13.3647    2.8746    3.0964 H   0  0  0  0  0  0  0  0  0  0  0  0
  -11.9501    3.7359    3.7857 H   0  0  0  0  0  0  0  0  0  0  0  0
  -12.7798   -0.2985    3.6992 H   0  0  0  0  0  0  0  0  0  0  0  0
  -12.4264   -1.9748    1.9820 H   0  0  0  0  0  0  0  0  0  0  0  0
  -14.5839   -0.8037    0.1004 H   0  0  0  0  0  0  0  0  0  0  0  0
  -14.4449   -2.4981    0.7033 H   0  0  0  0  0  0  0  0  0  0  0  0
  -14.7901   -1.1691    1.8724 H   0  0  0  0  0  0  0  0  0  0  0  0
  -12.2316   -1.0324   -0.9316 H   0  0  0  0  0  0  0  0  0  0  0  0
  -11.3817   -2.9084   -2.2583 H   0  0  0  0  0  0  0  0  0  0  0  0
   -8.5571   -2.4230   -1.1316 H   0  0  0  0  0  0  0  0  0  0  0  0
   -8.8775   -2.9418   -2.8448 H   0  0  0  0  0  0  0  0  0  0  0  0
   -9.5456   -1.3955   -2.2211 H   0  0  0  0  0  0  0  0  0  0  0  0
  -11.2285   -5.1669   -1.9393 H   0  0  0  0  0  0  0  0  0  0  0  0
   -9.5374   -7.4139   -0.6743 H   0  0  0  0  0  0  0  0  0  0  0  0
  -10.6362   -7.1762   -2.7983 H   0  0  0  0  0  0  0  0  0  0  0  0
   -9.1213   -8.0819   -3.1289 H   0  0  0  0  0  0  0  0  0  0  0  0
   -9.2312   -6.3254   -3.5464 H   0  0  0  0  0  0  0  0  0  0  0  0
   -7.2309   -7.5712   -0.4916 H   0  0  0  0  0  0  0  0  0  0  0  0
    0.9256    4.3903    1.4655 H   0  0  0  0  0  0  0  0  0  0  0  0
    1.1454    3.4807   -1.1827 H   0  0  0  0  0  0  0  0  0  0  0  0
    1.3896    1.1489   -0.4663 H   0  0  0  0  0  0  0  0  0  0  0  0
    2.9427    1.7083   -1.1551 H   0  0  0  0  0  0  0  0  0  0  0  0
    2.7570    1.5778    0.6407 H   0  0  0  0  0  0  0  0  0  0  0  0
    3.6855    3.7611   -2.1693 H   0  0  0  0  0  0  0  0  0  0  0  0
    5.1663    5.7385   -0.6513 H   0  0  0  0  0  0  0  0  0  0  0  0
    2.9489    6.9492   -2.4276 H   0  0  0  0  0  0  0  0  0  0  0  0
    3.1243    7.1099   -0.6414 H   0  0  0  0  0  0  0  0  0  0  0  0
    4.3372    7.8648   -1.7269 H   0  0  0  0  0  0  0  0  0  0  0  0
    7.2684    5.6589   -3.7440 H   0  0  0  0  0  0  0  0  0  0  0  0
    7.2796    5.0505   -0.8492 H   0  0  0  0  0  0  0  0  0  0  0  0
    8.2018    7.1972   -0.0628 H   0  0  0  0  0  0  0  0  0  0  0  0
    6.6529    7.5558   -0.8886 H   0  0  0  0  0  0  0  0  0  0  0  0
    8.2047    7.8740   -1.7341 H   0  0  0  0  0  0  0  0  0  0  0  0
   10.0537    3.4632   -2.0607 H   0  0  0  0  0  0  0  0  0  0  0  0
   10.6903    3.1055    0.0933 H   0  0  0  0  0  0  0  0  0  0  0  0
    9.5015    3.9030    2.0213 H   0  0  0  0  0  0  0  0  0  0  0  0
    8.6684    5.1940    1.0884 H   0  0  0  0  0  0  0  0  0  0  0  0
    8.2950    3.4483    0.7608 H   0  0  0  0  0  0  0  0  0  0  0  0
   13.1570    5.7441    1.0043 H   0  0  0  0  0  0  0  0  0  0  0  0
   12.2560    3.0230    1.6819 H   0  0  0  0  0  0  0  0  0  0  0  0
   13.9626    4.3266    2.9823 H   0  0  0  0  0  0  0  0  0  0  0  0
   15.1071    4.1936    1.5981 H   0  0  0  0  0  0  0  0  0  0  0  0
   14.5695    2.7158    2.4818 H   0  0  0  0  0  0  0  0  0  0  0  0
   14.1289    1.0391   -1.0310 H   0  0  0  0  0  0  0  0  0  0  0  0
   12.9981    0.9677    1.8047 H   0  0  0  0  0  0  0  0  0  0  0  0
   14.6104   -0.7578    2.3294 H   0  0  0  0  0  0  0  0  0  0  0  0
   15.5114    0.6244    1.6321 H   0  0  0  0  0  0  0  0  0  0  0  0
   15.1948   -0.8210    0.6047 H   0  0  0  0  0  0  0  0  0  0  0  0
   13.2448   -2.2909    1.3703 H   0  0  0  0  0  0  0  0  0  0  0  0
   12.5341   -3.9604    0.0250 H   0  0  0  0  0  0  0  0  0  0  0  0
   11.8458   -1.8396   -2.1028 H   0  0  0  0  0  0  0  0  0  0  0  0
   13.4674   -2.6079   -1.8531 H   0  0  0  0  0  0  0  0  0  0  0  0
   12.0525   -3.6130   -2.3414 H   0  0  0  0  0  0  0  0  0  0  0  0
    9.0208   -4.0959    1.0460 H   0  0  0  0  0  0  0  0  0  0  0  0
   11.4357   -5.6573    1.1531 H   0  0  0  0  0  0  0  0  0  0  0  0
   11.7268   -5.7669   -1.1924 H   0  0  0  0  0  0  0  0  0  0  0  0
    9.9747   -5.8800   -1.5437 H   0  0  0  0  0  0  0  0  0  0  0  0
   10.8509   -7.2755   -0.8172 H   0  0  0  0  0  0  0  0  0  0  0  0
    7.5054   -6.8100    1.9363 H   0  0  0  0  0  0  0  0  0  0  0  0
    8.1092   -7.2120   -0.9245 H   0  0  0  0  0  0  0  0  0  0  0  0
    6.6191   -4.6279   -0.0668 H   0  0  0  0  0  0  0  0  0  0  0  0
    6.6465   -5.3001   -1.7586 H   0  0  0  0  0  0  0  0  0  0  0  0
    8.1385   -4.7302   -1.0280 H   0  0  0  0  0  0  0  0  0  0  0  0
    4.8041   -6.5710   -1.5081 H   0  0  0  0  0  0  0  0  0  0  0  0
    3.0975   -7.8375   -0.0094 H   0  0  0  0  0  0  0  0  0  0  0  0
    3.6284   -8.1380    3.5779 H   0  0  0  0  0  0  0  0  0  0  0  0
    2.7647   -8.7715    2.1400 H   0  0  0  0  0  0  0  0  0  0  0  0
    1.8648   -5.7520    0.5805 H   0  0  0  0  0  0  0  0  0  0  0  0
    2.5007   -5.7662   -1.0933 H   0  0  0  0  0  0  0  0  0  0  0  0
    3.1487   -2.0812   -0.8821 H   0  0  0  0  0  0  0  0  0  0  0  0
    2.7924   -3.5125   -1.8804 H   0  0  0  0  0  0  0  0  0  0  0  0
  1  2  1  0
  2  3  2  0
  2  4  1  0
  4  5  1  0
  5  6  1  0
  6  7  1  0
  7  8  1  0
  8  9  1  0
  9 10  2  0
 10 11  1  0
 11 12  2  0
 12 13  1  0
 13 14  2  0
 13 15  1  0
 15 16  1  0
 16 17  1  0
 17 18  1  0
 18 19  1  0
 19 20  1  0
 20 21  2  0
 20 22  1  0
 22 23  1  0
 22 24  1  0
 24 25  1  0
 25 26  2  0
 25 27  1  0
 27 28  1  0
 27 29  1  0
 29 30  1  0
 30 31  2  0
 30 32  1  0
 32 33  1  0
 32 34  1  0
 34 35  1  0
 35 36  2  0
 35 37  1  0
 37 38  1  0
 37 39  1  0
 39 40  1  0
 40 41  2  0
 40 42  1  0
 42 43  1  0
 42 44  1  0
 44 45  1  0
 45 46  2  0
 45 47  1  0
 47 48  1  0
 47 49  1  0
 49 50  1  0
 50 51  2  0
 50 52  1  0
 52 53  1  0
 52 54  1  0
 54 55  1  0
 55 56  2  0
 55 57  1  0
 57 58  1  0
 57 59  1  0
 59 60  1  0
 60 61  2  0
 60 62  1  0
 62 63  1  0
 62 64  1  0
 64 65  1  0
 65 66  2  0
 18 67  1  0
 67 68  2  0
 67 69  1  0
 69 70  1  0
 70 71  1  0
 70 72  1  0
 72 73  2  0
 72 74  1  0
 74 75  1  0
 75 76  1  0
 75 77  1  0
 77 78  2  0
 77 79  1  0
 79 80  1  0
 80 81  1  0
 80 82  1  0
 82 83  2  0
 82 84  1  0
 84 85  1  0
 85 86  1  0
 85 87  1  0
 87 88  2  0
 87 89  1  0
 89 90  1  0
 90 91  1  0
 90 92  1  0
 92 93  2  0
 92 94  1  0
 94 95  1  0
 95 96  1  0
 95 97  1  0
 97 98  2  0
 97 99  1  0
 99100  1  0
100101  1  0
100102  1  0
102103  2  0
102104  1  0
104105  1  0
105106  1  0
105107  1  0
107108  2  0
107109  1  0
109110  1  0
110111  1  0
110112  1  0
112113  2  0
112114  1  0
114115  1  0
115116  1  0
116117  1  0
116118  2  0
115119  1  0
119120  1  0
120121  1  0
 65  5  1  0
 14  9  1  0
121 11  1  0
  1122  1  0
  1123  1  0
  1124  1  0
  4125  1  0
  5126  1  1
  6127  1  0
  6128  1  0
  8129  1  0
  8130  1  0
 10131  1  0
 12132  1  0
 14133  1  0
 15134  1  0
 15135  1  0
 17136  1  0
 17137  1  0
 18138  1  1
 19139  1  0
 22140  1  1
 23141  1  0
 23142  1  0
 23143  1  0
 24144  1  0
 27145  1  1
 28146  1  0
 28147  1  0
 28148  1  0
 29149  1  0
 32150  1  1
 33151  1  0
 33152  1  0
 33153  1  0
 34154  1  0
 37155  1  1
 38156  1  0
 38157  1  0
 38158  1  0
 39159  1  0
 42160  1  1
 43161  1  0
 43162  1  0
 43163  1  0
 44164  1  0
 47165  1  1
 48166  1  0
 48167  1  0
 48168  1  0
 49169  1  0
 52170  1  1
 53171  1  0
 53172  1  0
 53173  1  0
 54174  1  0
 57175  1  6
 58176  1  0
 58177  1  0
 58178  1  0
 59179  1  0
 62180  1  1
 63181  1  0
 63182  1  0
 63183  1  0
 64184  1  0
 69185  1  0
 70186  1  6
 71187  1  0
 71188  1  0
 71189  1  0
 74190  1  0
 75191  1  1
 76192  1  0
 76193  1  0
 76194  1  0
 79195  1  0
 80196  1  1
 81197  1  0
 81198  1  0
 81199  1  0
 84200  1  0
 85201  1  6
 86202  1  0
 86203  1  0
 86204  1  0
 89205  1  0
 90206  1  1
 91207  1  0
 91208  1  0
 91209  1  0
 94210  1  0
 95211  1  1
 96212  1  0
 96213  1  0
 96214  1  0
 99215  1  0
100216  1  1
101217  1  0
101218  1  0
101219  1  0
104220  1  0
105221  1  1
106222  1  0
106223  1  0
106224  1  0
109225  1  0
110226  1  6
111227  1  0
111228  1  0
111229  1  0
114230  1  0
115231  1  6
117232  1  0
117233  1  0
119234  1  0
119235  1  0
121236  1  0
121237  1  0
M  END
