
     RDKit          3D

217219  0  0  0  0  0  0  0  0999 V2000
   -1.9932   -9.0723   -3.3917 C   0  0  0  0  0  0  0  0  0  0  0  0
   -2.3664   -8.4003   -2.1116 C   0  0  0  0  0  0  0  0  0  0  0  0
   -2.0134   -8.9268   -1.0203 O   0  0  0  0  0  0  0  0  0  0  0  0
   -3.1036   -7.1680   -2.1251 N   0  0  0  0  0  0  0  0  0  0  0  0
   -3.4613   -6.4328   -0.9080 C   0  0  1  0  0  0  0  0  0  0  0  0
   -2.7966   -5.0469   -0.9223 C   0  0  0  0  0  0  0  0  0  0  0  0
   -0.9724   -5.2104   -1.0190 S   0  0  0  0  0  0  0  0  0  0  0  0
   -0.5399   -4.1511    0.4060 C   0  0  0  0  0  0  0  0  0  0  0  0
    0.7299   -3.4114    0.1043 C   0  0  0  0  0  0  0  0  0  0  0  0
    1.9686   -3.8990    0.5534 C   0  0  0  0  0  0  0  0  0  0  0  0
    3.1516   -3.1885    0.2838 C   0  0  0  0  0  0  0  0  0  0  0  0
    3.0959   -2.0044   -0.4746 C   0  0  0  0  0  0  0  0  0  0  0  0
    1.8534   -1.5005   -0.9163 C   0  0  0  0  0  0  0  0  0  0  0  0
    0.6814   -2.2262   -0.6391 C   0  0  0  0  0  0  0  0  0  0  0  0
    1.7383   -0.1954   -1.6720 C   0  0  0  0  0  0  0  0  0  0  0  0
    2.8546    1.0940   -1.0054 S   0  0  0  0  0  0  0  0  0  0  0  0
    1.8835    2.5439   -1.5804 C   0  0  0  0  0  0  0  0  0  0  0  0
    1.0485    3.1289   -0.4309 C   0  0  2  0  0  0  0  0  0  0  0  0
    0.1857    4.2094   -0.9136 N   0  0  0  0  0  0  0  0  0  0  0  0
   -0.9956    4.6015   -0.1950 C   0  0  0  0  0  0  0  0  0  0  0  0
   -1.5295    3.8011    0.6200 O   0  0  0  0  0  0  0  0  0  0  0  0
   -1.6075    5.9605   -0.4428 C   0  0  1  0  0  0  0  0  0  0  0  0
   -2.2943    5.9993   -1.8087 C   0  0  0  0  0  0  0  0  0  0  0  0
   -2.5862    6.2978    0.5986 N   0  0  0  0  0  0  0  0  0  0  0  0
   -2.6664    7.6170    1.1750 C   0  0  0  0  0  0  0  0  0  0  0  0
   -1.6611    8.3765    1.1314 O   0  0  0  0  0  0  0  0  0  0  0  0
   -3.9135    8.0911    1.8950 C   0  0  1  0  0  0  0  0  0  0  0  0
   -4.2500    9.5373    1.5062 C   0  0  0  0  0  0  0  0  0  0  0  0
   -5.0678    7.2489    1.5769 N   0  0  0  0  0  0  0  0  0  0  0  0
   -5.9279    6.7413    2.6034 C   0  0  0  0  0  0  0  0  0  0  0  0
   -5.4307    6.1190    3.5847 O   0  0  0  0  0  0  0  0  0  0  0  0
   -7.4199    6.9547    2.5469 C   0  0  1  0  0  0  0  0  0  0  0  0
   -7.8502    7.8991    3.6731 C   0  0  0  0  0  0  0  0  0  0  0  0
   -7.8178    7.5277    1.2540 N   0  0  0  0  0  0  0  0  0  0  0  0
   -8.4667    6.8084    0.1894 C   0  0  0  0  0  0  0  0  0  0  0  0
   -8.4947    7.3349   -0.9568 O   0  0  0  0  0  0  0  0  0  0  0  0
   -9.1849    5.4951    0.4180 C   0  0  1  0  0  0  0  0  0  0  0  0
  -10.4874    5.7415    1.1807 C   0  0  0  0  0  0  0  0  0  0  0  0
   -9.4804    4.8330   -0.8575 N   0  0  0  0  0  0  0  0  0  0  0  0
   -9.3407    3.4172   -0.9987 C   0  0  0  0  0  0  0  0  0  0  0  0
   -8.2520    2.9489   -1.4299 O   0  0  0  0  0  0  0  0  0  0  0  0
  -10.4390    2.5031   -0.5130 C   0  0  1  0  0  0  0  0  0  0  0  0
  -11.7991    2.9500   -1.0696 C   0  0  0  0  0  0  0  0  0  0  0  0
  -10.1977    1.1060   -0.9011 N   0  0  0  0  0  0  0  0  0  0  0  0
  -10.8965   -0.0071   -0.3120 C   0  0  0  0  0  0  0  0  0  0  0  0
  -11.0748   -1.0406   -1.0085 O   0  0  0  0  0  0  0  0  0  0  0  0
  -11.3870    0.0258    1.1225 C   0  0  1  0  0  0  0  0  0  0  0  0
  -12.5574   -0.9315    1.3848 C   0  0  0  0  0  0  0  0  0  0  0  0
  -10.2719   -0.1858    2.0605 N   0  0  0  0  0  0  0  0  0  0  0  0
   -9.7693   -1.4677    2.4816 C   0  0  0  0  0  0  0  0  0  0  0  0
   -9.6258   -1.6841    3.7179 O   0  0  0  0  0  0  0  0  0  0  0  0
   -9.3837   -2.5478    1.4972 C   0  0  1  0  0  0  0  0  0  0  0  0
   -8.0034   -3.1231    1.8458 C   0  0  0  0  0  0  0  0  0  0  0  0
  -10.3912   -3.6136    1.5047 N   0  0  0  0  0  0  0  0  0  0  0  0
  -10.8081   -4.3112    0.3254 C   0  0  0  0  0  0  0  0  0  0  0  0
  -12.0412   -4.4113    0.0858 O   0  0  0  0  0  0  0  0  0  0  0  0
   -9.7981   -4.9741   -0.5913 C   0  0  1  0  0  0  0  0  0  0  0  0
  -10.4664   -6.0321   -1.4851 C   0  0  0  0  0  0  0  0  0  0  0  0
   -9.1275   -3.9769   -1.4265 N   0  0  0  0  0  0  0  0  0  0  0  0
   -7.7878   -4.1046   -1.9370 C   0  0  0  0  0  0  0  0  0  0  0  0
   -7.2490   -3.0896   -2.4643 O   0  0  0  0  0  0  0  0  0  0  0  0
   -7.0155   -5.4062   -1.9165 C   0  0  1  0  0  0  0  0  0  0  0  0
   -6.7778   -5.9007   -3.3429 C   0  0  0  0  0  0  0  0  0  0  0  0
   -5.7305   -5.2404   -1.2250 N   0  0  0  0  0  0  0  0  0  0  0  0
   -4.9698   -6.3873   -0.8059 C   0  0  0  0  0  0  0  0  0  0  0  0
   -5.5713   -7.4286   -0.4345 O   0  0  0  0  0  0  0  0  0  0  0  0
    1.9430    3.6578    0.6558 C   0  0  0  0  0  0  0  0  0  0  0  0
    1.9021    3.1519    1.8089 O   0  0  0  0  0  0  0  0  0  0  0  0
    2.8348    4.7431    0.3910 N   0  0  0  0  0  0  0  0  0  0  0  0
    4.2782    4.5107    0.3099 C   0  0  2  0  0  0  0  0  0  0  0  0
    4.8985    4.5852    1.7080 C   0  0  0  0  0  0  0  0  0  0  0  0
    4.9256    5.5451   -0.5809 C   0  0  0  0  0  0  0  0  0  0  0  0
    4.6563    6.7609   -0.3800 O   0  0  0  0  0  0  0  0  0  0  0  0
    5.9089    5.2189   -1.5856 N   0  0  0  0  0  0  0  0  0  0  0  0
    5.9946    3.9351   -2.2946 C   0  0  2  0  0  0  0  0  0  0  0  0
    6.5718    2.8109   -1.4147 C   0  0  0  0  0  0  0  0  0  0  0  0
    6.7978    4.0851   -3.5732 C   0  0  0  0  0  0  0  0  0  0  0  0
    6.1918    3.9683   -4.6740 O   0  0  0  0  0  0  0  0  0  0  0  0
    8.2212    4.3360   -3.5997 N   0  0  0  0  0  0  0  0  0  0  0  0
    9.0252    4.8822   -2.4965 C   0  0  2  0  0  0  0  0  0  0  0  0
    9.3037    6.3697   -2.7599 C   0  0  0  0  0  0  0  0  0  0  0  0
   10.3426    4.1396   -2.3980 C   0  0  0  0  0  0  0  0  0  0  0  0
   11.0509    4.0279   -3.4380 O   0  0  0  0  0  0  0  0  0  0  0  0
   10.8751    3.6587   -1.1520 N   0  0  0  0  0  0  0  0  0  0  0  0
   10.0846    3.0076   -0.1028 C   0  0  2  0  0  0  0  0  0  0  0  0
   10.6642    3.3864    1.2670 C   0  0  0  0  0  0  0  0  0  0  0  0
   10.0720    1.5110   -0.3426 C   0  0  0  0  0  0  0  0  0  0  0  0
    9.8192    1.0819   -1.5040 O   0  0  0  0  0  0  0  0  0  0  0  0
   10.2842    0.5828    0.7319 N   0  0  0  0  0  0  0  0  0  0  0  0
   11.0686   -0.6530    0.6184 C   0  0  2  0  0  0  0  0  0  0  0  0
   12.2242   -0.5455   -0.3865 C   0  0  0  0  0  0  0  0  0  0  0  0
   10.1607   -1.8229    0.3126 C   0  0  0  0  0  0  0  0  0  0  0  0
    9.7350   -1.9864   -0.8619 O   0  0  0  0  0  0  0  0  0  0  0  0
    9.5993   -2.6100    1.3721 N   0  0  0  0  0  0  0  0  0  0  0  0
   10.3168   -3.6703    2.0955 C   0  0  2  0  0  0  0  0  0  0  0  0
   11.5594   -3.1501    2.8247 C   0  0  0  0  0  0  0  0  0  0  0  0
   10.6824   -4.8123    1.1663 C   0  0  0  0  0  0  0  0  0  0  0  0
   11.4881   -4.5863    0.2205 O   0  0  0  0  0  0  0  0  0  0  0  0
   10.1596   -6.1451    1.3146 N   0  0  0  0  0  0  0  0  0  0  0  0
    9.3179   -6.6174    2.4215 C   0  0  2  0  0  0  0  0  0  0  0  0
   10.1588   -6.8039    3.6893 C   0  0  0  0  0  0  0  0  0  0  0  0
    8.6438   -7.9142    2.0379 C   0  0  0  0  0  0  0  0  0  0  0  0
    9.2917   -8.9914    2.1007 O   0  0  0  0  0  0  0  0  0  0  0  0
    7.2710   -7.9564    1.6182 N   0  0  0  0  0  0  0  0  0  0  0  0
    6.7150   -7.1636    0.5076 C   0  0  2  0  0  0  0  0  0  0  0  0
    7.6981   -7.0680   -0.6344 C   0  0  0  0  0  0  0  0  0  0  0  0
    8.0562   -8.2479   -1.3476 N   0  0  0  0  0  0  0  0  0  0  0  0
    8.2347   -5.9683   -0.9410 O   0  0  0  0  0  0  0  0  0  0  0  0
    6.1824   -5.8026    0.9949 C   0  0  0  0  0  0  0  0  0  0  0  0
    5.0129   -5.1009   -0.2299 S   0  0  0  0  0  0  0  0  0  0  0  0
    4.4524   -3.7155    0.8121 C   0  0  0  0  0  0  0  0  0  0  0  0
   -2.3929   -8.5122   -4.2662 H   0  0  0  0  0  0  0  0  0  0  0  0
   -0.8875   -9.1188   -3.4707 H   0  0  0  0  0  0  0  0  0  0  0  0
   -2.4064  -10.1039   -3.4054 H   0  0  0  0  0  0  0  0  0  0  0  0
   -3.4114   -6.7752   -3.0471 H   0  0  0  0  0  0  0  0  0  0  0  0
   -3.0780   -6.9596   -0.0013 H   0  0  0  0  0  0  0  0  0  0  0  0
   -3.1226   -4.4723   -1.8143 H   0  0  0  0  0  0  0  0  0  0  0  0
   -3.1223   -4.4974   -0.0126 H   0  0  0  0  0  0  0  0  0  0  0  0
   -0.4180   -4.8011    1.2992 H   0  0  0  0  0  0  0  0  0  0  0  0
   -1.3346   -3.4121    0.6495 H   0  0  0  0  0  0  0  0  0  0  0  0
    2.0100   -4.8149    1.1258 H   0  0  0  0  0  0  0  0  0  0  0  0
    4.0124   -1.4861   -0.7196 H   0  0  0  0  0  0  0  0  0  0  0  0
   -0.2779   -1.8602   -0.9919 H   0  0  0  0  0  0  0  0  0  0  0  0
    0.6928    0.1694   -1.5883 H   0  0  0  0  0  0  0  0  0  0  0  0
    1.9583   -0.3467   -2.7467 H   0  0  0  0  0  0  0  0  0  0  0  0
    2.5860    3.3092   -1.9725 H   0  0  0  0  0  0  0  0  0  0  0  0
    1.2162    2.2740   -2.4273 H   0  0  0  0  0  0  0  0  0  0  0  0
    0.4179    2.3061   -0.0197 H   0  0  0  0  0  0  0  0  0  0  0  0
    0.5864    4.8858   -1.6041 H   0  0  0  0  0  0  0  0  0  0  0  0
   -0.7814    6.7055   -0.4578 H   0  0  0  0  0  0  0  0  0  0  0  0
   -3.1336    5.2713   -1.8447 H   0  0  0  0  0  0  0  0  0  0  0  0
   -1.5749    5.7590   -2.6267 H   0  0  0  0  0  0  0  0  0  0  0  0
   -2.6979    7.0218   -1.9931 H   0  0  0  0  0  0  0  0  0  0  0  0
   -3.3528    5.6157    0.7857 H   0  0  0  0  0  0  0  0  0  0  0  0
   -3.7107    8.0716    2.9895 H   0  0  0  0  0  0  0  0  0  0  0  0
   -5.1464    9.8693    2.0726 H   0  0  0  0  0  0  0  0  0  0  0  0
   -4.4691    9.6095    0.4178 H   0  0  0  0  0  0  0  0  0  0  0  0
   -3.4105   10.2197    1.7581 H   0  0  0  0  0  0  0  0  0  0  0  0
   -5.3694    7.1731    0.5775 H   0  0  0  0  0  0  0  0  0  0  0  0
   -7.9129    5.9823    2.7319 H   0  0  0  0  0  0  0  0  0  0  0  0
   -7.5979    7.4544    4.6610 H   0  0  0  0  0  0  0  0  0  0  0  0
   -8.9514    8.0570    3.6408 H   0  0  0  0  0  0  0  0  0  0  0  0
   -7.3385    8.8824    3.5766 H   0  0  0  0  0  0  0  0  0  0  0  0
   -7.4964    8.5015    1.0384 H   0  0  0  0  0  0  0  0  0  0  0  0
   -8.5377    4.8213    1.0198 H   0  0  0  0  0  0  0  0  0  0  0  0
  -10.2946    6.2819    2.1332 H   0  0  0  0  0  0  0  0  0  0  0  0
  -11.1876    6.3500    0.5668 H   0  0  0  0  0  0  0  0  0  0  0  0
  -10.9797    4.7793    1.4275 H   0  0  0  0  0  0  0  0  0  0  0  0
  -10.0072    5.3509   -1.5986 H   0  0  0  0  0  0  0  0  0  0  0  0
  -10.4447    2.5906    0.5884 H   0  0  0  0  0  0  0  0  0  0  0  0
  -11.7920    2.9117   -2.1814 H   0  0  0  0  0  0  0  0  0  0  0  0
  -12.6058    2.2860   -0.6968 H   0  0  0  0  0  0  0  0  0  0  0  0
  -12.0393    3.9880   -0.7528 H   0  0  0  0  0  0  0  0  0  0  0  0
   -9.6967    0.9219   -1.7960 H   0  0  0  0  0  0  0  0  0  0  0  0
  -11.8069    1.0345    1.3233 H   0  0  0  0  0  0  0  0  0  0  0  0
  -12.7848   -0.9653    2.4732 H   0  0  0  0  0  0  0  0  0  0  0  0
  -13.4643   -0.5728    0.8496 H   0  0  0  0  0  0  0  0  0  0  0  0
  -12.3305   -1.9544    1.0371 H   0  0  0  0  0  0  0  0  0  0  0  0
  -10.0130    0.6305    2.6608 H   0  0  0  0  0  0  0  0  0  0  0  0
   -9.3108   -2.0996    0.4875 H   0  0  0  0  0  0  0  0  0  0  0  0
   -7.5925   -3.7051    0.9929 H   0  0  0  0  0  0  0  0  0  0  0  0
   -8.0682   -3.7928    2.7328 H   0  0  0  0  0  0  0  0  0  0  0  0
   -7.2856   -2.3013    2.0783 H   0  0  0  0  0  0  0  0  0  0  0  0
  -11.0227   -3.6921    2.3392 H   0  0  0  0  0  0  0  0  0  0  0  0
   -9.0596   -5.4752    0.0713 H   0  0  0  0  0  0  0  0  0  0  0  0
  -10.8867   -6.8512   -0.8620 H   0  0  0  0  0  0  0  0  0  0  0  0
   -9.7280   -6.4718   -2.1912 H   0  0  0  0  0  0  0  0  0  0  0  0
  -11.2797   -5.5717   -2.0896 H   0  0  0  0  0  0  0  0  0  0  0  0
   -9.6731   -3.1360   -1.7278 H   0  0  0  0  0  0  0  0  0  0  0  0
   -7.5888   -6.1894   -1.3898 H   0  0  0  0  0  0  0  0  0  0  0  0
   -6.1178   -5.1967   -3.8960 H   0  0  0  0  0  0  0  0  0  0  0  0
   -7.7450   -5.9900   -3.8848 H   0  0  0  0  0  0  0  0  0  0  0  0
   -6.2941   -6.9024   -3.3276 H   0  0  0  0  0  0  0  0  0  0  0  0
   -5.3055   -4.2916   -1.1691 H   0  0  0  0  0  0  0  0  0  0  0  0
    2.4732    5.7127    0.5527 H   0  0  0  0  0  0  0  0  0  0  0  0
    4.4477    3.4942   -0.0862 H   0  0  0  0  0  0  0  0  0  0  0  0
    5.9929    4.3938    1.6542 H   0  0  0  0  0  0  0  0  0  0  0  0
    4.4478    3.8179    2.3764 H   0  0  0  0  0  0  0  0  0  0  0  0
    4.7198    5.5818    2.1645 H   0  0  0  0  0  0  0  0  0  0  0  0
    6.4145    6.0367   -1.9901 H   0  0  0  0  0  0  0  0  0  0  0  0
    4.9586    3.6410   -2.5895 H   0  0  0  0  0  0  0  0  0  0  0  0
    7.5060    2.3833   -1.8386 H   0  0  0  0  0  0  0  0  0  0  0  0
    6.7834    3.1710   -0.3903 H   0  0  0  0  0  0  0  0  0  0  0  0
    5.8403    1.9747   -1.3431 H   0  0  0  0  0  0  0  0  0  0  0  0
    8.6748    4.2892   -4.5385 H   0  0  0  0  0  0  0  0  0  0  0  0
    8.4737    4.8289   -1.5477 H   0  0  0  0  0  0  0  0  0  0  0  0
    9.8891    6.5029   -3.6948 H   0  0  0  0  0  0  0  0  0  0  0  0
    8.3534    6.9327   -2.8552 H   0  0  0  0  0  0  0  0  0  0  0  0
    9.8771    6.8023   -1.9133 H   0  0  0  0  0  0  0  0  0  0  0  0
   11.9121    3.5074   -1.1216 H   0  0  0  0  0  0  0  0  0  0  0  0
    9.0439    3.3666   -0.1112 H   0  0  0  0  0  0  0  0  0  0  0  0
   10.0077    3.0246    2.0860 H   0  0  0  0  0  0  0  0  0  0  0  0
   11.6817    2.9590    1.3961 H   0  0  0  0  0  0  0  0  0  0  0  0
   10.7320    4.4959    1.3555 H   0  0  0  0  0  0  0  0  0  0  0  0
    9.8194    0.7690    1.6495 H   0  0  0  0  0  0  0  0  0  0  0  0
   11.5348   -0.8145    1.6084 H   0  0  0  0  0  0  0  0  0  0  0  0
   12.8443    0.3487   -0.1461 H   0  0  0  0  0  0  0  0  0  0  0  0
   12.8696   -1.4501   -0.3226 H   0  0  0  0  0  0  0  0  0  0  0  0
   11.8505   -0.4554   -1.4280 H   0  0  0  0  0  0  0  0  0  0  0  0
    8.5521   -2.6304    1.4266 H   0  0  0  0  0  0  0  0  0  0  0  0
    9.6347   -4.0297    2.8843 H   0  0  0  0  0  0  0  0  0  0  0  0
   11.9702   -3.9480    3.4825 H   0  0  0  0  0  0  0  0  0  0  0  0
   11.2894   -2.2805    3.4619 H   0  0  0  0  0  0  0  0  0  0  0  0
   12.3558   -2.8659    2.1047 H   0  0  0  0  0  0  0  0  0  0  0  0
   10.4459   -6.8422    0.5852 H   0  0  0  0  0  0  0  0  0  0  0  0
    8.5172   -5.8891    2.6371 H   0  0  0  0  0  0  0  0  0  0  0  0
    9.5763   -7.3427    4.4752 H   0  0  0  0  0  0  0  0  0  0  0  0
   10.4628   -5.8212    4.1096 H   0  0  0  0  0  0  0  0  0  0  0  0
   11.0799   -7.3920    3.4638 H   0  0  0  0  0  0  0  0  0  0  0  0
    6.7168   -8.7955    1.9162 H   0  0  0  0  0  0  0  0  0  0  0  0
    5.8343   -7.7234    0.1247 H   0  0  0  0  0  0  0  0  0  0  0  0
    7.5494   -9.1475   -1.1763 H   0  0  0  0  0  0  0  0  0  0  0  0
    8.7817   -8.2078   -2.1090 H   0  0  0  0  0  0  0  0  0  0  0  0
    7.0071   -5.0792    1.1739 H   0  0  0  0  0  0  0  0  0  0  0  0
    5.6379   -5.9648    1.9527 H   0  0  0  0  0  0  0  0  0  0  0  0
    5.2302   -2.9223    0.8039 H   0  0  0  0  0  0  0  0  0  0  0  0
    4.3132   -4.0369    1.8685 H   0  0  0  0  0  0  0  0  0  0  0  0
  1  2  1  0
  2  3  2  0
  2  4  1  0
  4  5  1  0
  5  6  1  0
  6  7  1  0
  7  8  1  0
  8  9  1  0
  9 10  1  0
 10 11  2  0
 11 12  1  0
 12 13  2  0
 13 14  1  0
 13 15  1  0
 15 16  1  0
 16 17  1  0
 17 18  1  0
 18 19  1  0
 19 20  1  0
 20 21  2  0
 20 22  1  0
 22 23  1  0
 22 24  1  0
 24 25  1  0
 25 26  2  0
 25 27  1  0
 27 28  1  0
 27 29  1  0
 29 30  1  0
 30 31  2  0
 30 32  1  0
 32 33  1  0
 32 34  1  0
 34 35  1  0
 35 36  2  0
 35 37  1  0
 37 38  1  0
 37 39  1  0
 39 40  1  0
 40 41  2  0
 40 42  1  0
 42 43  1  0
 42 44  1  0
 44 45  1  0
 45 46  2  0
 45 47  1  0
 47 48  1  0
 47 49  1  0
 49 50  1  0
 50 51  2  0
 50 52  1  0
 52 53  1  0
 52 54  1  0
 54 55  1  0
 55 56  2  0
 55 57  1  0
 57 58  1  0
 57 59  1  0
 59 60  1  0
 60 61  2  0
 60 62  1  0
 62 63  1  0
 62 64  1  0
 64 65  1  0
 65 66  2  0
 18 67  1  0
 67 68  2  0
 67 69  1  0
 69 70  1  0
 70 71  1  0
 70 72  1  0
 72 73  2  0
 72 74  1  0
 74 75  1  0
 75 76  1  0
 75 77  1  0
 77 78  2  0
 77 79  1  0
 79 80  1  0
 80 81  1  0
 80 82  1  0
 82 83  2  0
 82 84  1  0
 84 85  1  0
 85 86  1  0
 85 87  1  0
 87 88  2  0
 87 89  1  0
 89 90  1  0
 90 91  1  0
 90 92  1  0
 92 93  2  0
 92 94  1  0
 94 95  1  0
 95 96  1  0
 95 97  1  0
 97 98  2  0
 97 99  1  0
 99100  1  0
100101  1  0
100102  1  0
102103  2  0
102104  1  0
104105  1  0
105106  1  0
106107  1  0
106108  2  0
105109  1  0
109110  1  0
110111  1  0
 65  5  1  0
 14  9  2  0
111 11  1  0
  1112  1  0
  1113  1  0
  1114  1  0
  4115  1  0
  5116  1  1
  6117  1  0
  6118  1  0
  8119  1  0
  8120  1  0
 10121  1  0
 12122  1  0
 14123  1  0
 15124  1  0
 15125  1  0
 17126  1  0
 17127  1  0
 18128  1  1
 19129  1  0
 22130  1  6
 23131  1  0
 23132  1  0
 23133  1  0
 24134  1  0
 27135  1  1
 28136  1  0
 28137  1  0
 28138  1  0
 29139  1  0
 32140  1  1
 33141  1  0
 33142  1  0
 33143  1  0
 34144  1  0
 37145  1  1
 38146  1  0
 38147  1  0
 38148  1  0
 39149  1  0
 42150  1  1
 43151  1  0
 43152  1  0
 43153  1  0
 44154  1  0
 47155  1  1
 48156  1  0
 48157  1  0
 48158  1  0
 49159  1  0
 52160  1  6
 53161  1  0
 53162  1  0
 53163  1  0
 54164  1  0
 57165  1  1
 58166  1  0
 58167  1  0
 58168  1  0
 59169  1  0
 62170  1  1
 63171  1  0
 63172  1  0
 63173  1  0
 64174  1  0
 69175  1  0
 70176  1  6
 71177  1  0
 71178  1  0
 71179  1  0
 74180  1  0
 75181  1  6
 76182  1  0
 76183  1  0
 76184  1  0
 79185  1  0
 80186  1  1
 81187  1  0
 81188  1  0
 81189  1  0
 84190  1  0
 85191  1  1
 86192  1  0
 86193  1  0
 86194  1  0
 89195  1  0
 90196  1  1
 91197  1  0
 91198  1  0
 91199  1  0
 94200  1  0
 95201  1  1
 96202  1  0
 96203  1  0
 96204  1  0
 99205  1  0
100206  1  1
101207  1  0
101208  1  0
101209  1  0
104210  1  0
105211  1  6
107212  1  0
107213  1  0
109214  1  0
109215  1  0
111216  1  0
111217  1  0
M  END
