
     RDKit          3D

217219  0  0  0  0  0  0  0  0999 V2000
    3.5320    9.7783    0.1922 C   0  0  0  0  0  0  0  0  0  0  0  0
    2.8265    8.4787    0.4172 C   0  0  0  0  0  0  0  0  0  0  0  0
    2.1320    8.3331    1.4579 O   0  0  0  0  0  0  0  0  0  0  0  0
    2.9481    7.4116   -0.5339 N   0  0  0  0  0  0  0  0  0  0  0  0
    2.5328    6.0363   -0.2499 C   0  0  1  0  0  0  0  0  0  0  0  0
    1.7209    5.4906   -1.4367 C   0  0  0  0  0  0  0  0  0  0  0  0
    0.9042    3.8956   -1.0703 S   0  0  0  0  0  0  0  0  0  0  0  0
   -0.2899    4.5078    0.1755 C   0  0  0  0  0  0  0  0  0  0  0  0
   -1.4428    3.5502    0.3322 C   0  0  0  0  0  0  0  0  0  0  0  0
   -2.7623    4.0207    0.3457 C   0  0  0  0  0  0  0  0  0  0  0  0
   -3.8349    3.1364    0.5429 C   0  0  0  0  0  0  0  0  0  0  0  0
   -3.5796    1.7694    0.7319 C   0  0  0  0  0  0  0  0  0  0  0  0
   -2.2620    1.2839    0.7106 C   0  0  0  0  0  0  0  0  0  0  0  0
   -1.2026    2.1845    0.5372 C   0  0  0  0  0  0  0  0  0  0  0  0
   -1.9617   -0.1703    0.9614 C   0  0  0  0  0  0  0  0  0  0  0  0
   -2.9899   -1.2629   -0.0909 S   0  0  0  0  0  0  0  0  0  0  0  0
   -1.6601   -2.1359   -1.0183 C   0  0  0  0  0  0  0  0  0  0  0  0
   -0.6887   -2.9629   -0.1460 C   0  0  2  0  0  0  0  0  0  0  0  0
    0.2078   -3.7739   -0.9784 N   0  0  0  0  0  0  0  0  0  0  0  0
   -0.1846   -4.9858   -1.6342 C   0  0  0  0  0  0  0  0  0  0  0  0
   -1.1304   -4.9832   -2.4681 O   0  0  0  0  0  0  0  0  0  0  0  0
    0.5728   -6.2491   -1.3245 C   0  0  1  0  0  0  0  0  0  0  0  0
   -0.2236   -7.5100   -1.6714 C   0  0  0  0  0  0  0  0  0  0  0  0
    1.8477   -6.2544   -2.0482 N   0  0  0  0  0  0  0  0  0  0  0  0
    3.1243   -6.7002   -1.5467 C   0  0  0  0  0  0  0  0  0  0  0  0
    4.1221   -6.6196   -2.3116 O   0  0  0  0  0  0  0  0  0  0  0  0
    3.3361   -7.2243   -0.1385 C   0  0  1  0  0  0  0  0  0  0  0  0
    3.9461   -8.6334   -0.1555 C   0  0  0  0  0  0  0  0  0  0  0  0
    4.1500   -6.2906    0.6548 N   0  0  0  0  0  0  0  0  0  0  0  0
    5.4181   -5.7738    0.2245 C   0  0  0  0  0  0  0  0  0  0  0  0
    5.4776   -4.5978   -0.2220 O   0  0  0  0  0  0  0  0  0  0  0  0
    6.6766   -6.6079    0.3043 C   0  0  1  0  0  0  0  0  0  0  0  0
    7.2672   -6.8522   -1.0865 C   0  0  0  0  0  0  0  0  0  0  0  0
    7.6810   -6.0179    1.1984 N   0  0  0  0  0  0  0  0  0  0  0  0
    8.3103   -4.7420    0.9854 C   0  0  0  0  0  0  0  0  0  0  0  0
    7.6466   -3.6846    1.1664 O   0  0  0  0  0  0  0  0  0  0  0  0
    9.7673   -4.6256    0.5895 C   0  0  1  0  0  0  0  0  0  0  0  0
   10.5410   -5.9346    0.7907 C   0  0  0  0  0  0  0  0  0  0  0  0
    9.8652   -4.1903   -0.8078 N   0  0  0  0  0  0  0  0  0  0  0  0
   11.1049   -3.8474   -1.4342 C   0  0  0  0  0  0  0  0  0  0  0  0
   11.4404   -4.4529   -2.4883 O   0  0  0  0  0  0  0  0  0  0  0  0
   11.9838   -2.7459   -0.8915 C   0  0  1  0  0  0  0  0  0  0  0  0
   13.2349   -3.3364   -0.2375 C   0  0  0  0  0  0  0  0  0  0  0  0
   12.3801   -1.8518   -1.9833 N   0  0  0  0  0  0  0  0  0  0  0  0
   12.2929   -0.4183   -1.9301 C   0  0  0  0  0  0  0  0  0  0  0  0
   12.1611    0.2226   -3.0081 O   0  0  0  0  0  0  0  0  0  0  0  0
   12.4334    0.3412   -0.6278 C   0  0  1  0  0  0  0  0  0  0  0  0
   13.4455    1.4841   -0.7564 C   0  0  0  0  0  0  0  0  0  0  0  0
   11.1370    0.8354   -0.1461 N   0  0  0  0  0  0  0  0  0  0  0  0
   10.4337    1.9329   -0.7519 C   0  0  0  0  0  0  0  0  0  0  0  0
   10.1744    1.9017   -1.9857 O   0  0  0  0  0  0  0  0  0  0  0  0
   10.0642    3.1703    0.0358 C   0  0  1  0  0  0  0  0  0  0  0  0
   10.1673    2.9727    1.5496 C   0  0  0  0  0  0  0  0  0  0  0  0
   10.9372    4.2768   -0.3688 N   0  0  0  0  0  0  0  0  0  0  0  0
   10.4512    5.5540   -0.8071 C   0  0  0  0  0  0  0  0  0  0  0  0
   11.0456    6.1391   -1.7518 O   0  0  0  0  0  0  0  0  0  0  0  0
    9.3449    6.2724   -0.0690 C   0  0  1  0  0  0  0  0  0  0  0  0
    9.9569    7.3600    0.8214 C   0  0  0  0  0  0  0  0  0  0  0  0
    8.4217    6.8817   -1.0296 N   0  0  0  0  0  0  0  0  0  0  0  0
    6.9914    6.7127   -1.0538 C   0  0  0  0  0  0  0  0  0  0  0  0
    6.3201    7.4124   -1.8614 O   0  0  0  0  0  0  0  0  0  0  0  0
    6.2497    5.7655   -0.1283 C   0  0  1  0  0  0  0  0  0  0  0  0
    6.0830    6.4403    1.2449 C   0  0  0  0  0  0  0  0  0  0  0  0
    4.9513    5.3990   -0.7234 N   0  0  0  0  0  0  0  0  0  0  0  0
    3.7517    5.1992    0.0328 C   0  0  0  0  0  0  0  0  0  0  0  0
    3.7325    4.3624    0.9744 O   0  0  0  0  0  0  0  0  0  0  0  0
   -1.3801   -3.8045    0.9000 C   0  0  0  0  0  0  0  0  0  0  0  0
   -1.1962   -3.5407    2.1196 O   0  0  0  0  0  0  0  0  0  0  0  0
   -2.1986   -4.9183    0.5442 N   0  0  0  0  0  0  0  0  0  0  0  0
   -3.6584   -4.8442    0.6172 C   0  0  2  0  0  0  0  0  0  0  0  0
   -4.1117   -5.0663    2.0662 C   0  0  0  0  0  0  0  0  0  0  0  0
   -4.2510   -5.8419   -0.3543 C   0  0  0  0  0  0  0  0  0  0  0  0
   -3.8777   -5.8184   -1.5569 O   0  0  0  0  0  0  0  0  0  0  0  0
   -5.1895   -6.8419    0.0613 N   0  0  0  0  0  0  0  0  0  0  0  0
   -6.5976   -6.5130    0.2991 C   0  0  2  0  0  0  0  0  0  0  0  0
   -7.0883   -7.2892    1.5247 C   0  0  0  0  0  0  0  0  0  0  0  0
   -7.4430   -6.8496   -0.9112 C   0  0  0  0  0  0  0  0  0  0  0  0
   -6.9218   -7.4706   -1.8768 O   0  0  0  0  0  0  0  0  0  0  0  0
   -8.8408   -6.5186   -0.9863 N   0  0  0  0  0  0  0  0  0  0  0  0
   -9.4863   -5.4284   -0.2497 C   0  0  2  0  0  0  0  0  0  0  0  0
  -10.8069   -5.9265    0.3406 C   0  0  0  0  0  0  0  0  0  0  0  0
   -9.6693   -4.2495   -1.1728 C   0  0  0  0  0  0  0  0  0  0  0  0
   -8.6519   -3.6718   -1.6417 O   0  0  0  0  0  0  0  0  0  0  0  0
  -10.9680   -3.7806   -1.5413 N   0  0  0  0  0  0  0  0  0  0  0  0
  -11.5852   -2.6719   -0.8120 C   0  0  2  0  0  0  0  0  0  0  0  0
  -13.1099   -2.8252   -0.8325 C   0  0  0  0  0  0  0  0  0  0  0  0
  -11.1686   -1.3640   -1.4437 C   0  0  0  0  0  0  0  0  0  0  0  0
  -11.4999   -1.1349   -2.6376 O   0  0  0  0  0  0  0  0  0  0  0  0
  -10.3283   -0.4108   -0.7711 N   0  0  0  0  0  0  0  0  0  0  0  0
  -10.2165   -0.2509    0.6860 C   0  0  2  0  0  0  0  0  0  0  0  0
  -11.5690    0.0788    1.3326 C   0  0  0  0  0  0  0  0  0  0  0  0
   -9.1806    0.7981    1.0401 C   0  0  0  0  0  0  0  0  0  0  0  0
   -8.1011    0.4166    1.5649 O   0  0  0  0  0  0  0  0  0  0  0  0
   -9.4019    2.2125    0.8754 N   0  0  0  0  0  0  0  0  0  0  0  0
  -10.1614    2.8196   -0.2278 C   0  0  2  0  0  0  0  0  0  0  0  0
   -9.2288    3.2210   -1.3660 C   0  0  0  0  0  0  0  0  0  0  0  0
  -10.9930    3.9842    0.2692 C   0  0  0  0  0  0  0  0  0  0  0  0
  -12.2217    3.9990   -0.0145 O   0  0  0  0  0  0  0  0  0  0  0  0
  -10.4752    5.0288    1.1118 N   0  0  0  0  0  0  0  0  0  0  0  0
   -9.2118    5.7500    0.8814 C   0  0  2  0  0  0  0  0  0  0  0  0
   -8.9904    6.7726    2.0047 C   0  0  0  0  0  0  0  0  0  0  0  0
   -9.2401    6.4559   -0.4484 C   0  0  0  0  0  0  0  0  0  0  0  0
  -10.2738    7.0958   -0.7850 O   0  0  0  0  0  0  0  0  0  0  0  0
   -8.1380    6.3806   -1.3696 N   0  0  0  0  0  0  0  0  0  0  0  0
   -6.8342    7.0189   -1.1437 C   0  0  1  0  0  0  0  0  0  0  0  0
   -7.0326    8.4390   -0.6495 C   0  0  0  0  0  0  0  0  0  0  0  0
   -6.3524    8.9651    0.4957 N   0  0  0  0  0  0  0  0  0  0  0  0
   -7.8385    9.1867   -1.2641 O   0  0  0  0  0  0  0  0  0  0  0  0
   -5.9361    6.1609   -0.2449 C   0  0  0  0  0  0  0  0  0  0  0  0
   -5.6953    4.4899   -0.9469 S   0  0  0  0  0  0  0  0  0  0  0  0
   -5.2431    3.6561    0.6149 C   0  0  0  0  0  0  0  0  0  0  0  0
    4.1418    9.7468   -0.7322 H   0  0  0  0  0  0  0  0  0  0  0  0
    2.7908   10.5980    0.1084 H   0  0  0  0  0  0  0  0  0  0  0  0
    4.2094    9.9810    1.0471 H   0  0  0  0  0  0  0  0  0  0  0  0
    3.4720    7.5924   -1.4198 H   0  0  0  0  0  0  0  0  0  0  0  0
    1.8914    6.0294    0.6552 H   0  0  0  0  0  0  0  0  0  0  0  0
    0.9364    6.2272   -1.7149 H   0  0  0  0  0  0  0  0  0  0  0  0
    2.3832    5.3635   -2.3203 H   0  0  0  0  0  0  0  0  0  0  0  0
   -0.6579    5.5191   -0.1001 H   0  0  0  0  0  0  0  0  0  0  0  0
    0.2305    4.5754    1.1528 H   0  0  0  0  0  0  0  0  0  0  0  0
   -2.9598    5.0817    0.2313 H   0  0  0  0  0  0  0  0  0  0  0  0
   -4.3995    1.0866    0.9140 H   0  0  0  0  0  0  0  0  0  0  0  0
   -0.1786    1.8253    0.5798 H   0  0  0  0  0  0  0  0  0  0  0  0
   -2.1841   -0.3968    2.0246 H   0  0  0  0  0  0  0  0  0  0  0  0
   -0.8866   -0.3452    0.7975 H   0  0  0  0  0  0  0  0  0  0  0  0
   -2.1660   -2.8019   -1.7443 H   0  0  0  0  0  0  0  0  0  0  0  0
   -1.0837   -1.3878   -1.6073 H   0  0  0  0  0  0  0  0  0  0  0  0
   -0.0366   -2.2499    0.3954 H   0  0  0  0  0  0  0  0  0  0  0  0
    1.2343   -3.5698   -0.9302 H   0  0  0  0  0  0  0  0  0  0  0  0
    0.7317   -6.2302   -0.2331 H   0  0  0  0  0  0  0  0  0  0  0  0
   -1.2389   -7.4594   -1.2278 H   0  0  0  0  0  0  0  0  0  0  0  0
    0.2911   -8.4022   -1.2533 H   0  0  0  0  0  0  0  0  0  0  0  0
   -0.3099   -7.6245   -2.7710 H   0  0  0  0  0  0  0  0  0  0  0  0
    1.8198   -5.9520   -3.0511 H   0  0  0  0  0  0  0  0  0  0  0  0
    2.3725   -7.3530    0.3874 H   0  0  0  0  0  0  0  0  0  0  0  0
    4.1485   -8.9663    0.8845 H   0  0  0  0  0  0  0  0  0  0  0  0
    4.8810   -8.6764   -0.7383 H   0  0  0  0  0  0  0  0  0  0  0  0
    3.2187   -9.3431   -0.6126 H   0  0  0  0  0  0  0  0  0  0  0  0
    3.6587   -5.7530    1.4035 H   0  0  0  0  0  0  0  0  0  0  0  0
    6.4052   -7.6036    0.7200 H   0  0  0  0  0  0  0  0  0  0  0  0
    6.5564   -7.4222   -1.7213 H   0  0  0  0  0  0  0  0  0  0  0  0
    7.4851   -5.8987   -1.5992 H   0  0  0  0  0  0  0  0  0  0  0  0
    8.2022   -7.4493   -1.0074 H   0  0  0  0  0  0  0  0  0  0  0  0
    8.0895   -6.6456    1.9320 H   0  0  0  0  0  0  0  0  0  0  0  0
   10.2341   -3.8501    1.2397 H   0  0  0  0  0  0  0  0  0  0  0  0
   10.1565   -6.7232    0.1092 H   0  0  0  0  0  0  0  0  0  0  0  0
   10.4534   -6.2846    1.8424 H   0  0  0  0  0  0  0  0  0  0  0  0
   11.6179   -5.7942    0.5672 H   0  0  0  0  0  0  0  0  0  0  0  0
    9.0419   -4.3054   -1.4383 H   0  0  0  0  0  0  0  0  0  0  0  0
   11.4128   -2.1793   -0.1229 H   0  0  0  0  0  0  0  0  0  0  0  0
   13.7686   -4.0097   -0.9415 H   0  0  0  0  0  0  0  0  0  0  0  0
   12.9609   -3.9037    0.6734 H   0  0  0  0  0  0  0  0  0  0  0  0
   13.9291   -2.5243    0.0637 H   0  0  0  0  0  0  0  0  0  0  0  0
   12.7135   -2.2715   -2.8811 H   0  0  0  0  0  0  0  0  0  0  0  0
   12.8486   -0.3457    0.1435 H   0  0  0  0  0  0  0  0  0  0  0  0
   14.4438    1.0771   -1.0275 H   0  0  0  0  0  0  0  0  0  0  0  0
   13.1357    2.2084   -1.5393 H   0  0  0  0  0  0  0  0  0  0  0  0
   13.5349    2.0261    0.2094 H   0  0  0  0  0  0  0  0  0  0  0  0
   10.7988    0.4728    0.7720 H   0  0  0  0  0  0  0  0  0  0  0  0
    9.0066    3.4107   -0.2046 H   0  0  0  0  0  0  0  0  0  0  0  0
    9.8875    3.9090    2.0754 H   0  0  0  0  0  0  0  0  0  0  0  0
    9.4685    2.1774    1.8816 H   0  0  0  0  0  0  0  0  0  0  0  0
   11.2077    2.7080    1.8428 H   0  0  0  0  0  0  0  0  0  0  0  0
   11.9577    4.0883   -0.4856 H   0  0  0  0  0  0  0  0  0  0  0  0
    8.8191    5.5672    0.5956 H   0  0  0  0  0  0  0  0  0  0  0  0
   10.6492    6.9059    1.5652 H   0  0  0  0  0  0  0  0  0  0  0  0
   10.5192    8.0989    0.2102 H   0  0  0  0  0  0  0  0  0  0  0  0
    9.1573    7.8963    1.3715 H   0  0  0  0  0  0  0  0  0  0  0  0
    8.8203    7.5608   -1.7185 H   0  0  0  0  0  0  0  0  0  0  0  0
    6.8336    4.8270   -0.0077 H   0  0  0  0  0  0  0  0  0  0  0  0
    7.0635    6.7582    1.6578 H   0  0  0  0  0  0  0  0  0  0  0  0
    5.6355    5.7373    1.9773 H   0  0  0  0  0  0  0  0  0  0  0  0
    5.4378    7.3412    1.1578 H   0  0  0  0  0  0  0  0  0  0  0  0
    4.8985    5.2379   -1.7560 H   0  0  0  0  0  0  0  0  0  0  0  0
   -1.7617   -5.8635    0.6330 H   0  0  0  0  0  0  0  0  0  0  0  0
   -3.9965   -3.8359    0.2983 H   0  0  0  0  0  0  0  0  0  0  0  0
   -3.5961   -4.3539    2.7455 H   0  0  0  0  0  0  0  0  0  0  0  0
   -5.1979   -4.8777    2.1728 H   0  0  0  0  0  0  0  0  0  0  0  0
   -3.8804   -6.1009    2.3967 H   0  0  0  0  0  0  0  0  0  0  0  0
   -4.9380   -7.8393   -0.1248 H   0  0  0  0  0  0  0  0  0  0  0  0
   -6.6822   -5.4241    0.5025 H   0  0  0  0  0  0  0  0  0  0  0  0
   -7.0870   -8.3829    1.3188 H   0  0  0  0  0  0  0  0  0  0  0  0
   -8.1184   -6.9861    1.8083 H   0  0  0  0  0  0  0  0  0  0  0  0
   -6.4212   -7.0977    2.3921 H   0  0  0  0  0  0  0  0  0  0  0  0
   -9.3924   -6.9589   -1.7606 H   0  0  0  0  0  0  0  0  0  0  0  0
   -8.8621   -5.0860    0.5998 H   0  0  0  0  0  0  0  0  0  0  0  0
  -11.5078   -6.2380   -0.4610 H   0  0  0  0  0  0  0  0  0  0  0  0
  -11.2756   -5.1324    0.9599 H   0  0  0  0  0  0  0  0  0  0  0  0
  -10.6139   -6.7998    0.9964 H   0  0  0  0  0  0  0  0  0  0  0  0
  -11.2803   -3.9637   -2.5217 H   0  0  0  0  0  0  0  0  0  0  0  0
  -11.2652   -2.7205    0.2476 H   0  0  0  0  0  0  0  0  0  0  0  0
  -13.5030   -2.7616   -1.8671 H   0  0  0  0  0  0  0  0  0  0  0  0
  -13.5892   -2.0284   -0.2268 H   0  0  0  0  0  0  0  0  0  0  0  0
  -13.3977   -3.8079   -0.3988 H   0  0  0  0  0  0  0  0  0  0  0  0
   -9.7458    0.1965   -1.3893 H   0  0  0  0  0  0  0  0  0  0  0  0
   -9.8611   -1.2161    1.1195 H   0  0  0  0  0  0  0  0  0  0  0  0
  -12.0807    0.9166    0.8168 H   0  0  0  0  0  0  0  0  0  0  0  0
  -11.4281    0.3573    2.4001 H   0  0  0  0  0  0  0  0  0  0  0  0
  -12.2379   -0.8041    1.3093 H   0  0  0  0  0  0  0  0  0  0  0  0
   -8.7814    2.8422    1.4327 H   0  0  0  0  0  0  0  0  0  0  0  0
  -10.8625    2.0865   -0.6632 H   0  0  0  0  0  0  0  0  0  0  0  0
   -8.3349    3.7366   -0.9762 H   0  0  0  0  0  0  0  0  0  0  0  0
   -9.7520    3.8791   -2.0950 H   0  0  0  0  0  0  0  0  0  0  0  0
   -8.8810    2.3177   -1.9096 H   0  0  0  0  0  0  0  0  0  0  0  0
  -11.1592    5.4555    1.7834 H   0  0  0  0  0  0  0  0  0  0  0  0
   -8.3720    5.0318    0.9112 H   0  0  0  0  0  0  0  0  0  0  0  0
   -9.8187    7.5112    2.0289 H   0  0  0  0  0  0  0  0  0  0  0  0
   -8.9379    6.2543    2.9851 H   0  0  0  0  0  0  0  0  0  0  0  0
   -8.0442    7.3265    1.8583 H   0  0  0  0  0  0  0  0  0  0  0  0
   -8.3834    6.1582   -2.3581 H   0  0  0  0  0  0  0  0  0  0  0  0
   -6.3187    7.0998   -2.1280 H   0  0  0  0  0  0  0  0  0  0  0  0
   -6.6864    9.8462    0.9432 H   0  0  0  0  0  0  0  0  0  0  0  0
   -5.5028    8.5093    0.8989 H   0  0  0  0  0  0  0  0  0  0  0  0
   -4.9266    6.6154   -0.1784 H   0  0  0  0  0  0  0  0  0  0  0  0
   -6.3593    6.1094    0.7761 H   0  0  0  0  0  0  0  0  0  0  0  0
   -5.9644    2.8226    0.7726 H   0  0  0  0  0  0  0  0  0  0  0  0
   -5.3227    4.3187    1.5022 H   0  0  0  0  0  0  0  0  0  0  0  0
  1  2  1  0
  2  3  2  0
  2  4  1  0
  4  5  1  0
  5  6  1  0
  6  7  1  0
  7  8  1  0
  8  9  1  0
  9 10  1  0
 10 11  2  0
 11 12  1  0
 12 13  2  0
 13 14  1  0
 13 15  1  0
 15 16  1  0
 16 17  1  0
 17 18  1  0
 18 19  1  0
 19 20  1  0
 20 21  2  0
 20 22  1  0
 22 23  1  0
 22 24  1  0
 24 25  1  0
 25 26  2  0
 25 27  1  0
 27 28  1  0
 27 29  1  0
 29 30  1  0
 30 31  2  0
 30 32  1  0
 32 33  1  0
 32 34  1  0
 34 35  1  0
 35 36  2  0
 35 37  1  0
 37 38  1  0
 37 39  1  0
 39 40  1  0
 40 41  2  0
 40 42  1  0
 42 43  1  0
 42 44  1  0
 44 45  1  0
 45 46  2  0
 45 47  1  0
 47 48  1  0
 47 49  1  0
 49 50  1  0
 50 51  2  0
 50 52  1  0
 52 53  1  0
 52 54  1  0
 54 55  1  0
 55 56  2  0
 55 57  1  0
 57 58  1  0
 57 59  1  0
 59 60  1  0
 60 61  2  0
 60 62  1  0
 62 63  1  0
 62 64  1  0
 64 65  1  0
 65 66  2  0
 18 67  1  0
 67 68  2  0
 67 69  1  0
 69 70  1  0
 70 71  1  0
 70 72  1  0
 72 73  2  0
 72 74  1  0
 74 75  1  0
 75 76  1  0
 75 77  1  0
 77 78  2  0
 77 79  1  0
 79 80  1  0
 80 81  1  0
 80 82  1  0
 82 83  2  0
 82 84  1  0
 84 85  1  0
 85 86  1  0
 85 87  1  0
 87 88  2  0
 87 89  1  0
 89 90  1  0
 90 91  1  0
 90 92  1  0
 92 93  2  0
 92 94  1  0
 94 95  1  0
 95 96  1  0
 95 97  1  0
 97 98  2  0
 97 99  1  0
 99100  1  0
100101  1  0
100102  1  0
102103  2  0
102104  1  0
104105  1  0
105106  1  0
106107  1  0
106108  2  0
105109  1  0
109110  1  0
110111  1  0
 65  5  1  0
 14  9  2  0
111 11  1  0
  1112  1  0
  1113  1  0
  1114  1  0
  4115  1  0
  5116  1  1
  6117  1  0
  6118  1  0
  8119  1  0
  8120  1  0
 10121  1  0
 12122  1  0
 14123  1  0
 15124  1  0
 15125  1  0
 17126  1  0
 17127  1  0
 18128  1  1
 19129  1  0
 22130  1  1
 23131  1  0
 23132  1  0
 23133  1  0
 24134  1  0
 27135  1  1
 28136  1  0
 28137  1  0
 28138  1  0
 29139  1  0
 32140  1  1
 33141  1  0
 33142  1  0
 33143  1  0
 34144  1  0
 37145  1  1
 38146  1  0
 38147  1  0
 38148  1  0
 39149  1  0
 42150  1  1
 43151  1  0
 43152  1  0
 43153  1  0
 44154  1  0
 47155  1  1
 48156  1  0
 48157  1  0
 48158  1  0
 49159  1  0
 52160  1  1
 53161  1  0
 53162  1  0
 53163  1  0
 54164  1  0
 57165  1  1
 58166  1  0
 58167  1  0
 58168  1  0
 59169  1  0
 62170  1  1
 63171  1  0
 63172  1  0
 63173  1  0
 64174  1  0
 69175  1  0
 70176  1  6
 71177  1  0
 71178  1  0
 71179  1  0
 74180  1  0
 75181  1  1
 76182  1  0
 76183  1  0
 76184  1  0
 79185  1  0
 80186  1  1
 81187  1  0
 81188  1  0
 81189  1  0
 84190  1  0
 85191  1  1
 86192  1  0
 86193  1  0
 86194  1  0
 89195  1  0
 90196  1  1
 91197  1  0
 91198  1  0
 91199  1  0
 94200  1  0
 95201  1  6
 96202  1  0
 96203  1  0
 96204  1  0
 99205  1  0
100206  1  6
101207  1  0
101208  1  0
101209  1  0
104210  1  0
105211  1  6
107212  1  0
107213  1  0
109214  1  0
109215  1  0
111216  1  0
111217  1  0
M  END
