
     RDKit          3D

217219  0  0  0  0  0  0  0  0999 V2000
    1.9668    9.1298   -0.0531 C   0  0  0  0  0  0  0  0  0  0  0  0
    2.2140    8.7622    1.3787 C   0  0  0  0  0  0  0  0  0  0  0  0
    1.8500    9.5652    2.2842 O   0  0  0  0  0  0  0  0  0  0  0  0
    2.8373    7.5227    1.7537 N   0  0  0  0  0  0  0  0  0  0  0  0
    3.4202    6.5654    0.8077 C   0  0  2  0  0  0  0  0  0  0  0  0
    2.9343    5.1466    1.1407 C   0  0  0  0  0  0  0  0  0  0  0  0
    3.2202    4.0026   -0.2656 S   0  0  0  0  0  0  0  0  0  0  0  0
    1.6856    4.4255   -1.1696 C   0  0  0  0  0  0  0  0  0  0  0  0
    0.5597    3.5295   -0.7341 C   0  0  0  0  0  0  0  0  0  0  0  0
   -0.5023    4.0234    0.0359 C   0  0  0  0  0  0  0  0  0  0  0  0
   -1.5813    3.1929    0.3682 C   0  0  0  0  0  0  0  0  0  0  0  0
   -1.5870    1.8563   -0.0414 C   0  0  0  0  0  0  0  0  0  0  0  0
   -0.5282    1.3566   -0.8147 C   0  0  0  0  0  0  0  0  0  0  0  0
    0.5407    2.1987   -1.1654 C   0  0  0  0  0  0  0  0  0  0  0  0
   -0.5266   -0.0697   -1.2895 C   0  0  0  0  0  0  0  0  0  0  0  0
    0.7428   -1.0385   -0.4055 S   0  0  0  0  0  0  0  0  0  0  0  0
   -0.3111   -1.5181    1.0279 C   0  0  0  0  0  0  0  0  0  0  0  0
   -1.1747   -2.7879    0.7977 C   0  0  2  0  0  0  0  0  0  0  0  0
   -0.8646   -3.4473   -0.4788 N   0  0  0  0  0  0  0  0  0  0  0  0
   -0.0652   -4.6324   -0.5724 C   0  0  0  0  0  0  0  0  0  0  0  0
   -0.3181   -5.4643   -1.4848 O   0  0  0  0  0  0  0  0  0  0  0  0
    1.1342   -4.8516    0.3253 C   0  0  1  0  0  0  0  0  0  0  0  0
    0.9151   -6.0305    1.2721 C   0  0  0  0  0  0  0  0  0  0  0  0
    2.3586   -5.0095   -0.4721 N   0  0  0  0  0  0  0  0  0  0  0  0
    2.5949   -6.1075   -1.3613 C   0  0  0  0  0  0  0  0  0  0  0  0
    2.4020   -5.9524   -2.5976 O   0  0  0  0  0  0  0  0  0  0  0  0
    3.1874   -7.3983   -0.8383 C   0  0  1  0  0  0  0  0  0  0  0  0
    3.5713   -8.3833   -1.9506 C   0  0  0  0  0  0  0  0  0  0  0  0
    4.3537   -7.1177    0.0111 N   0  0  0  0  0  0  0  0  0  0  0  0
    5.5490   -6.4805   -0.4718 C   0  0  0  0  0  0  0  0  0  0  0  0
    5.4936   -5.7708   -1.5147 O   0  0  0  0  0  0  0  0  0  0  0  0
    6.8599   -6.5637    0.2722 C   0  0  1  0  0  0  0  0  0  0  0  0
    6.9342   -7.7623    1.2268 C   0  0  0  0  0  0  0  0  0  0  0  0
    7.9540   -6.6617   -0.7029 N   0  0  0  0  0  0  0  0  0  0  0  0
    8.9134   -5.6300   -0.9890 C   0  0  0  0  0  0  0  0  0  0  0  0
    9.4976   -5.6443   -2.1089 O   0  0  0  0  0  0  0  0  0  0  0  0
    9.2967   -4.5799    0.0295 C   0  0  1  0  0  0  0  0  0  0  0  0
   10.0400   -5.2280    1.2002 C   0  0  0  0  0  0  0  0  0  0  0  0
   10.1620   -3.5604   -0.5678 N   0  0  0  0  0  0  0  0  0  0  0  0
    9.9471   -2.1665   -0.2957 C   0  0  0  0  0  0  0  0  0  0  0  0
    8.8093   -1.6693   -0.5020 O   0  0  0  0  0  0  0  0  0  0  0  0
   11.0134   -1.3163    0.3559 C   0  0  1  0  0  0  0  0  0  0  0  0
   10.5830   -0.9780    1.7867 C   0  0  0  0  0  0  0  0  0  0  0  0
   12.3074   -2.0085    0.3943 N   0  0  0  0  0  0  0  0  0  0  0  0
   13.5868   -1.3575    0.2748 C   0  0  0  0  0  0  0  0  0  0  0  0
   14.6315   -2.0705    0.3144 O   0  0  0  0  0  0  0  0  0  0  0  0
   13.7154    0.1454    0.1058 C   0  0  1  0  0  0  0  0  0  0  0  0
   15.1406    0.6205    0.4396 C   0  0  0  0  0  0  0  0  0  0  0  0
   13.3844    0.5253   -1.2696 N   0  0  0  0  0  0  0  0  0  0  0  0
   13.1129    1.8790   -1.6717 C   0  0  0  0  0  0  0  0  0  0  0  0
   13.5860    2.2782   -2.7742 O   0  0  0  0  0  0  0  0  0  0  0  0
   12.2460    2.8189   -0.8413 C   0  0  1  0  0  0  0  0  0  0  0  0
   13.0731    3.5299    0.2418 C   0  0  0  0  0  0  0  0  0  0  0  0
   11.6112    3.8322   -1.7074 N   0  0  0  0  0  0  0  0  0  0  0  0
   10.5657    4.7010   -1.2512 C   0  0  0  0  0  0  0  0  0  0  0  0
   10.6918    5.9443   -1.4350 O   0  0  0  0  0  0  0  0  0  0  0  0
    9.3344    4.1679   -0.5524 C   0  0  1  0  0  0  0  0  0  0  0  0
    9.3715    4.4906    0.9447 C   0  0  0  0  0  0  0  0  0  0  0  0
    8.0982    4.6734   -1.1693 N   0  0  0  0  0  0  0  0  0  0  0  0
    7.8221    6.0622   -1.3967 C   0  0  0  0  0  0  0  0  0  0  0  0
    8.0415    6.5528   -2.5418 O   0  0  0  0  0  0  0  0  0  0  0  0
    7.1396    6.8938   -0.3400 C   0  0  1  0  0  0  0  0  0  0  0  0
    7.3290    8.3996   -0.5614 C   0  0  0  0  0  0  0  0  0  0  0  0
    5.7055    6.5853   -0.3282 N   0  0  0  0  0  0  0  0  0  0  0  0
    4.9262    6.6262    0.8779 C   0  0  0  0  0  0  0  0  0  0  0  0
    5.4972    6.6885    1.9982 O   0  0  0  0  0  0  0  0  0  0  0  0
   -2.6495   -2.4705    0.8909 C   0  0  0  0  0  0  0  0  0  0  0  0
   -3.1859   -2.3491    2.0250 O   0  0  0  0  0  0  0  0  0  0  0  0
   -3.4427   -2.2713   -0.2854 N   0  0  0  0  0  0  0  0  0  0  0  0
   -4.2538   -3.3588   -0.8387 C   0  0  2  0  0  0  0  0  0  0  0  0
   -4.1127   -3.3789   -2.3662 C   0  0  0  0  0  0  0  0  0  0  0  0
   -5.7053   -3.1782   -0.4679 C   0  0  0  0  0  0  0  0  0  0  0  0
   -6.0931   -2.0877    0.0241 O   0  0  0  0  0  0  0  0  0  0  0  0
   -6.6812   -4.1800   -0.7759 N   0  0  0  0  0  0  0  0  0  0  0  0
   -6.5517   -5.5641   -0.3267 C   0  0  2  0  0  0  0  0  0  0  0  0
   -6.8769   -6.5124   -1.4849 C   0  0  0  0  0  0  0  0  0  0  0  0
   -7.4638   -5.8114    0.8400 C   0  0  0  0  0  0  0  0  0  0  0  0
   -7.5030   -6.9680    1.3569 O   0  0  0  0  0  0  0  0  0  0  0  0
   -8.2764   -4.7597    1.3733 N   0  0  0  0  0  0  0  0  0  0  0  0
   -9.6996   -4.9387    1.6975 C   0  0  2  0  0  0  0  0  0  0  0  0
  -10.4248   -5.7813    0.6337 C   0  0  0  0  0  0  0  0  0  0  0  0
  -10.3621   -3.5888    1.8500 C   0  0  0  0  0  0  0  0  0  0  0  0
  -10.5536   -3.1284    3.0094 O   0  0  0  0  0  0  0  0  0  0  0  0
  -10.7612   -2.8263    0.6977 N   0  0  0  0  0  0  0  0  0  0  0  0
  -11.9520   -1.9560    0.6976 C   0  0  2  0  0  0  0  0  0  0  0  0
  -13.1635   -2.7329    1.2427 C   0  0  0  0  0  0  0  0  0  0  0  0
  -12.2484   -1.4972   -0.7119 C   0  0  0  0  0  0  0  0  0  0  0  0
  -12.3916   -2.3766   -1.6098 O   0  0  0  0  0  0  0  0  0  0  0  0
  -12.3403   -0.1090   -1.0918 N   0  0  0  0  0  0  0  0  0  0  0  0
  -12.9055    0.9777   -0.2694 C   0  0  2  0  0  0  0  0  0  0  0  0
  -14.2329    0.5472    0.3850 C   0  0  0  0  0  0  0  0  0  0  0  0
  -13.1841    2.1946   -1.1334 C   0  0  0  0  0  0  0  0  0  0  0  0
  -13.6565    2.0176   -2.2920 O   0  0  0  0  0  0  0  0  0  0  0  0
  -13.0336    3.5532   -0.6714 N   0  0  0  0  0  0  0  0  0  0  0  0
  -12.3665    3.9663    0.5673 C   0  0  2  0  0  0  0  0  0  0  0  0
  -13.2789    3.7536    1.7807 C   0  0  0  0  0  0  0  0  0  0  0  0
  -11.9774    5.4352    0.4744 C   0  0  0  0  0  0  0  0  0  0  0  0
  -12.8967    6.2993    0.4648 O   0  0  0  0  0  0  0  0  0  0  0  0
  -10.6123    5.8927    0.3899 N   0  0  0  0  0  0  0  0  0  0  0  0
   -9.4396    5.0766    0.0465 C   0  0  2  0  0  0  0  0  0  0  0  0
   -9.6736    4.3110   -1.2677 C   0  0  0  0  0  0  0  0  0  0  0  0
   -9.0396    4.1729    1.2031 C   0  0  0  0  0  0  0  0  0  0  0  0
   -9.6918    4.2338    2.2826 O   0  0  0  0  0  0  0  0  0  0  0  0
   -7.9330    3.2579    1.1333 N   0  0  0  0  0  0  0  0  0  0  0  0
   -6.8251    3.3378    0.1771 C   0  0  2  0  0  0  0  0  0  0  0  0
   -6.8974    2.1688   -0.7753 C   0  0  0  0  0  0  0  0  0  0  0  0
   -7.0057    0.8295   -0.2925 N   0  0  0  0  0  0  0  0  0  0  0  0
   -6.8573    2.3692   -2.0144 O   0  0  0  0  0  0  0  0  0  0  0  0
   -5.4861    3.3525    0.9302 C   0  0  0  0  0  0  0  0  0  0  0  0
   -4.1463    3.8848   -0.1908 S   0  0  0  0  0  0  0  0  0  0  0  0
   -2.8021    3.7661    1.0417 C   0  0  0  0  0  0  0  0  0  0  0  0
    1.2975    8.3788   -0.5185 H   0  0  0  0  0  0  0  0  0  0  0  0
    1.4731   10.1232   -0.1223 H   0  0  0  0  0  0  0  0  0  0  0  0
    2.9311    9.1711   -0.6009 H   0  0  0  0  0  0  0  0  0  0  0  0
    2.9554    7.3376    2.7778 H   0  0  0  0  0  0  0  0  0  0  0  0
    3.1038    6.8134   -0.2228 H   0  0  0  0  0  0  0  0  0  0  0  0
    1.8561    5.1536    1.4063 H   0  0  0  0  0  0  0  0  0  0  0  0
    3.4798    4.7518    2.0267 H   0  0  0  0  0  0  0  0  0  0  0  0
    1.8552    4.2944   -2.2552 H   0  0  0  0  0  0  0  0  0  0  0  0
    1.4216    5.4869   -1.0226 H   0  0  0  0  0  0  0  0  0  0  0  0
   -0.4931    5.0538    0.3576 H   0  0  0  0  0  0  0  0  0  0  0  0
   -2.4320    1.2224    0.1910 H   0  0  0  0  0  0  0  0  0  0  0  0
    1.3440    1.8125   -1.7797 H   0  0  0  0  0  0  0  0  0  0  0  0
   -1.5268   -0.5262   -1.1818 H   0  0  0  0  0  0  0  0  0  0  0  0
   -0.2937   -0.0902   -2.3760 H   0  0  0  0  0  0  0  0  0  0  0  0
    0.3800   -1.7186    1.8731 H   0  0  0  0  0  0  0  0  0  0  0  0
   -0.9266   -0.6530    1.3528 H   0  0  0  0  0  0  0  0  0  0  0  0
   -0.9563   -3.5065    1.6205 H   0  0  0  0  0  0  0  0  0  0  0  0
   -1.2325   -3.0440   -1.3697 H   0  0  0  0  0  0  0  0  0  0  0  0
    1.2690   -3.9527    0.9489 H   0  0  0  0  0  0  0  0  0  0  0  0
    0.1390   -5.7713    2.0220 H   0  0  0  0  0  0  0  0  0  0  0  0
    0.5742   -6.9335    0.7214 H   0  0  0  0  0  0  0  0  0  0  0  0
    1.8546   -6.2573    1.8126 H   0  0  0  0  0  0  0  0  0  0  0  0
    2.9772   -4.1761   -0.5753 H   0  0  0  0  0  0  0  0  0  0  0  0
    2.4156   -7.9019   -0.2251 H   0  0  0  0  0  0  0  0  0  0  0  0
    4.3423   -7.9563   -2.6271 H   0  0  0  0  0  0  0  0  0  0  0  0
    3.9763   -9.3170   -1.5014 H   0  0  0  0  0  0  0  0  0  0  0  0
    2.6737   -8.6479   -2.5465 H   0  0  0  0  0  0  0  0  0  0  0  0
    4.3001   -7.4451    1.0003 H   0  0  0  0  0  0  0  0  0  0  0  0
    6.9519   -5.6474    0.8911 H   0  0  0  0  0  0  0  0  0  0  0  0
    6.2694   -7.6016    2.1033 H   0  0  0  0  0  0  0  0  0  0  0  0
    6.6445   -8.7014    0.7021 H   0  0  0  0  0  0  0  0  0  0  0  0
    7.9690   -7.8857    1.6172 H   0  0  0  0  0  0  0  0  0  0  0  0
    7.9376   -7.4850   -1.3495 H   0  0  0  0  0  0  0  0  0  0  0  0
    8.3796   -4.0906    0.4236 H   0  0  0  0  0  0  0  0  0  0  0  0
   10.3486   -4.4499    1.9318 H   0  0  0  0  0  0  0  0  0  0  0  0
   10.9525   -5.7573    0.8362 H   0  0  0  0  0  0  0  0  0  0  0  0
    9.3901   -5.9581    1.7252 H   0  0  0  0  0  0  0  0  0  0  0  0
   11.0706   -3.8574   -0.9869 H   0  0  0  0  0  0  0  0  0  0  0  0
   11.0887   -0.3727   -0.2263 H   0  0  0  0  0  0  0  0  0  0  0  0
    9.6252   -0.4190    1.7733 H   0  0  0  0  0  0  0  0  0  0  0  0
   11.3479   -0.3275    2.2734 H   0  0  0  0  0  0  0  0  0  0  0  0
   10.4636   -1.9070    2.3880 H   0  0  0  0  0  0  0  0  0  0  0  0
   12.3324   -2.9915    0.7448 H   0  0  0  0  0  0  0  0  0  0  0  0
   13.0077    0.6229    0.8055 H   0  0  0  0  0  0  0  0  0  0  0  0
   15.3999    0.3552    1.4877 H   0  0  0  0  0  0  0  0  0  0  0  0
   15.2263    1.7193    0.3284 H   0  0  0  0  0  0  0  0  0  0  0  0
   15.8785    0.1588   -0.2491 H   0  0  0  0  0  0  0  0  0  0  0  0
   13.6856   -0.1322   -2.0270 H   0  0  0  0  0  0  0  0  0  0  0  0
   11.4512    2.2151   -0.3503 H   0  0  0  0  0  0  0  0  0  0  0  0
   12.4754    4.3391    0.7046 H   0  0  0  0  0  0  0  0  0  0  0  0
   13.9925    3.9673   -0.1926 H   0  0  0  0  0  0  0  0  0  0  0  0
   13.3433    2.8330    1.0577 H   0  0  0  0  0  0  0  0  0  0  0  0
   12.1750    4.2083   -2.5025 H   0  0  0  0  0  0  0  0  0  0  0  0
    9.3232    3.0588   -0.6491 H   0  0  0  0  0  0  0  0  0  0  0  0
   10.1577    3.8845    1.4424 H   0  0  0  0  0  0  0  0  0  0  0  0
    8.3943    4.2386    1.4103 H   0  0  0  0  0  0  0  0  0  0  0  0
    9.5897    5.5657    1.1170 H   0  0  0  0  0  0  0  0  0  0  0  0
    7.4641    3.9840   -1.6322 H   0  0  0  0  0  0  0  0  0  0  0  0
    7.5854    6.6415    0.6402 H   0  0  0  0  0  0  0  0  0  0  0  0
    8.4117    8.6490   -0.6060 H   0  0  0  0  0  0  0  0  0  0  0  0
    6.8335    8.7251   -1.5076 H   0  0  0  0  0  0  0  0  0  0  0  0
    6.8696    8.9625    0.2823 H   0  0  0  0  0  0  0  0  0  0  0  0
    5.2046    6.5394   -1.2451 H   0  0  0  0  0  0  0  0  0  0  0  0
   -3.6169   -1.2939   -0.6007 H   0  0  0  0  0  0  0  0  0  0  0  0
   -3.8803   -4.3259   -0.4432 H   0  0  0  0  0  0  0  0  0  0  0  0
   -4.4678   -2.4214   -2.8051 H   0  0  0  0  0  0  0  0  0  0  0  0
   -4.7095   -4.2153   -2.7884 H   0  0  0  0  0  0  0  0  0  0  0  0
   -3.0558   -3.5378   -2.6625 H   0  0  0  0  0  0  0  0  0  0  0  0
   -7.6293   -3.8433   -1.0717 H   0  0  0  0  0  0  0  0  0  0  0  0
   -5.5092   -5.7722    0.0031 H   0  0  0  0  0  0  0  0  0  0  0  0
   -7.9623   -6.5063   -1.7138 H   0  0  0  0  0  0  0  0  0  0  0  0
   -6.5674   -7.5458   -1.2187 H   0  0  0  0  0  0  0  0  0  0  0  0
   -6.3150   -6.2090   -2.3953 H   0  0  0  0  0  0  0  0  0  0  0  0
   -7.7678   -3.9763    1.8443 H   0  0  0  0  0  0  0  0  0  0  0  0
   -9.7745   -5.4777    2.6676 H   0  0  0  0  0  0  0  0  0  0  0  0
  -10.0708   -6.8331    0.6681 H   0  0  0  0  0  0  0  0  0  0  0  0
  -10.2324   -5.3792   -0.3868 H   0  0  0  0  0  0  0  0  0  0  0  0
  -11.5230   -5.7829    0.8221 H   0  0  0  0  0  0  0  0  0  0  0  0
  -10.2707   -3.0257   -0.2048 H   0  0  0  0  0  0  0  0  0  0  0  0
  -11.7563   -1.0764    1.3468 H   0  0  0  0  0  0  0  0  0  0  0  0
  -13.1950   -3.7506    0.8045 H   0  0  0  0  0  0  0  0  0  0  0  0
  -14.1234   -2.2286    1.0045 H   0  0  0  0  0  0  0  0  0  0  0  0
  -13.0921   -2.8278    2.3491 H   0  0  0  0  0  0  0  0  0  0  0  0
  -12.0967    0.0915   -2.0872 H   0  0  0  0  0  0  0  0  0  0  0  0
  -12.1765    1.2254    0.5255 H   0  0  0  0  0  0  0  0  0  0  0  0
  -14.8228   -0.0946   -0.3059 H   0  0  0  0  0  0  0  0  0  0  0  0
  -14.0312    0.0053    1.3296 H   0  0  0  0  0  0  0  0  0  0  0  0
  -14.8557    1.4287    0.6495 H   0  0  0  0  0  0  0  0  0  0  0  0
  -13.3471    4.3014   -1.3338 H   0  0  0  0  0  0  0  0  0  0  0  0
  -11.4662    3.3485    0.7210 H   0  0  0  0  0  0  0  0  0  0  0  0
  -14.3079    4.1279    1.5760 H   0  0  0  0  0  0  0  0  0  0  0  0
  -12.8735    4.2811    2.6726 H   0  0  0  0  0  0  0  0  0  0  0  0
  -13.3377    2.6743    2.0425 H   0  0  0  0  0  0  0  0  0  0  0  0
  -10.4523    6.9191    0.4852 H   0  0  0  0  0  0  0  0  0  0  0  0
   -8.5869    5.7723   -0.1204 H   0  0  0  0  0  0  0  0  0  0  0  0
  -10.1526    3.3265   -1.1038 H   0  0  0  0  0  0  0  0  0  0  0  0
  -10.3136    4.9099   -1.9495 H   0  0  0  0  0  0  0  0  0  0  0  0
   -8.7181    4.1471   -1.8010 H   0  0  0  0  0  0  0  0  0  0  0  0
   -7.8862    2.5227    1.8803 H   0  0  0  0  0  0  0  0  0  0  0  0
   -6.8884    4.2816   -0.3981 H   0  0  0  0  0  0  0  0  0  0  0  0
   -7.0949    0.0376   -0.9715 H   0  0  0  0  0  0  0  0  0  0  0  0
   -6.9750    0.6145    0.7249 H   0  0  0  0  0  0  0  0  0  0  0  0
   -5.2500    2.3385    1.3179 H   0  0  0  0  0  0  0  0  0  0  0  0
   -5.5519    4.0622    1.7830 H   0  0  0  0  0  0  0  0  0  0  0  0
   -2.5893    4.7830    1.4261 H   0  0  0  0  0  0  0  0  0  0  0  0
   -3.0717    3.1310    1.9070 H   0  0  0  0  0  0  0  0  0  0  0  0
  1  2  1  0
  2  3  2  0
  2  4  1  0
  4  5  1  0
  5  6  1  0
  6  7  1  0
  7  8  1  0
  8  9  1  0
  9 10  1  0
 10 11  2  0
 11 12  1  0
 12 13  2  0
 13 14  1  0
 13 15  1  0
 15 16  1  0
 16 17  1  0
 17 18  1  0
 18 19  1  0
 19 20  1  0
 20 21  2  0
 20 22  1  0
 22 23  1  0
 22 24  1  0
 24 25  1  0
 25 26  2  0
 25 27  1  0
 27 28  1  0
 27 29  1  0
 29 30  1  0
 30 31  2  0
 30 32  1  0
 32 33  1  0
 32 34  1  0
 34 35  1  0
 35 36  2  0
 35 37  1  0
 37 38  1  0
 37 39  1  0
 39 40  1  0
 40 41  2  0
 40 42  1  0
 42 43  1  0
 42 44  1  0
 44 45  1  0
 45 46  2  0
 45 47  1  0
 47 48  1  0
 47 49  1  0
 49 50  1  0
 50 51  2  0
 50 52  1  0
 52 53  1  0
 52 54  1  0
 54 55  1  0
 55 56  2  0
 55 57  1  0
 57 58  1  0
 57 59  1  0
 59 60  1  0
 60 61  2  0
 60 62  1  0
 62 63  1  0
 62 64  1  0
 64 65  1  0
 65 66  2  0
 18 67  1  0
 67 68  2  0
 67 69  1  0
 69 70  1  0
 70 71  1  0
 70 72  1  0
 72 73  2  0
 72 74  1  0
 74 75  1  0
 75 76  1  0
 75 77  1  0
 77 78  2  0
 77 79  1  0
 79 80  1  0
 80 81  1  0
 80 82  1  0
 82 83  2  0
 82 84  1  0
 84 85  1  0
 85 86  1  0
 85 87  1  0
 87 88  2  0
 87 89  1  0
 89 90  1  0
 90 91  1  0
 90 92  1  0
 92 93  2  0
 92 94  1  0
 94 95  1  0
 95 96  1  0
 95 97  1  0
 97 98  2  0
 97 99  1  0
 99100  1  0
100101  1  0
100102  1  0
102103  2  0
102104  1  0
104105  1  0
105106  1  0
106107  1  0
106108  2  0
105109  1  0
109110  1  0
110111  1  0
 65  5  1  0
 14  9  2  0
111 11  1  0
  1112  1  0
  1113  1  0
  1114  1  0
  4115  1  0
  5116  1  6
  6117  1  0
  6118  1  0
  8119  1  0
  8120  1  0
 10121  1  0
 12122  1  0
 14123  1  0
 15124  1  0
 15125  1  0
 17126  1  0
 17127  1  0
 18128  1  1
 19129  1  0
 22130  1  1
 23131  1  0
 23132  1  0
 23133  1  0
 24134  1  0
 27135  1  1
 28136  1  0
 28137  1  0
 28138  1  0
 29139  1  0
 32140  1  1
 33141  1  0
 33142  1  0
 33143  1  0
 34144  1  0
 37145  1  1
 38146  1  0
 38147  1  0
 38148  1  0
 39149  1  0
 42150  1  6
 43151  1  0
 43152  1  0
 43153  1  0
 44154  1  0
 47155  1  1
 48156  1  0
 48157  1  0
 48158  1  0
 49159  1  0
 52160  1  1
 53161  1  0
 53162  1  0
 53163  1  0
 54164  1  0
 57165  1  1
 58166  1  0
 58167  1  0
 58168  1  0
 59169  1  0
 62170  1  1
 63171  1  0
 63172  1  0
 63173  1  0
 64174  1  0
 69175  1  0
 70176  1  1
 71177  1  0
 71178  1  0
 71179  1  0
 74180  1  0
 75181  1  1
 76182  1  0
 76183  1  0
 76184  1  0
 79185  1  0
 80186  1  1
 81187  1  0
 81188  1  0
 81189  1  0
 84190  1  0
 85191  1  1
 86192  1  0
 86193  1  0
 86194  1  0
 89195  1  0
 90196  1  1
 91197  1  0
 91198  1  0
 91199  1  0
 94200  1  0
 95201  1  1
 96202  1  0
 96203  1  0
 96204  1  0
 99205  1  0
100206  1  6
101207  1  0
101208  1  0
101209  1  0
104210  1  0
105211  1  6
107212  1  0
107213  1  0
109214  1  0
109215  1  0
111216  1  0
111217  1  0
M  END
