
     RDKit          3D

187189  0  0  0  0  0  0  0  0999 V2000
   -0.7667   10.5184    0.5265 C   0  0  0  0  0  0  0  0  0  0  0  0
   -0.8364    9.2483   -0.2731 C   0  0  0  0  0  0  0  0  0  0  0  0
   -1.2092    9.2945   -1.4842 O   0  0  0  0  0  0  0  0  0  0  0  0
   -0.4705    8.0090    0.3469 N   0  0  0  0  0  0  0  0  0  0  0  0
   -0.6532    6.6878   -0.2653 C   0  0  1  0  0  0  0  0  0  0  0  0
   -2.1552    6.3913   -0.4454 C   0  0  0  0  0  0  0  0  0  0  0  0
   -3.1512    6.6933    1.0608 S   0  0  0  0  0  0  0  0  0  0  0  0
   -2.7603    5.1383    1.9607 C   0  0  0  0  0  0  0  0  0  0  0  0
   -3.1367    3.8801    1.2179 C   0  0  0  0  0  0  0  0  0  0  0  0
   -4.3362    3.8069    0.4725 C   0  0  0  0  0  0  0  0  0  0  0  0
   -4.6540    2.6495   -0.2475 C   0  0  0  0  0  0  0  0  0  0  0  0
   -3.8002    1.5389   -0.1789 C   0  0  0  0  0  0  0  0  0  0  0  0
   -2.6659    1.5553    0.6469 C   0  0  0  0  0  0  0  0  0  0  0  0
   -2.3390    2.7357    1.3383 C   0  0  0  0  0  0  0  0  0  0  0  0
   -1.8590    0.3019    0.8343 C   0  0  0  0  0  0  0  0  0  0  0  0
   -2.7220   -0.7424    2.0631 S   0  0  0  0  0  0  0  0  0  0  0  0
   -2.6398   -2.3192    1.1416 C   0  0  0  0  0  0  0  0  0  0  0  0
   -3.6818   -2.3922    0.0014 C   0  0  1  0  0  0  0  0  0  0  0  0
   -3.4626   -3.5502   -0.8806 N   0  0  0  0  0  0  0  0  0  0  0  0
   -2.2777   -4.3519   -0.8678 C   0  0  0  0  0  0  0  0  0  0  0  0
   -1.2632   -3.9609   -1.5012 O   0  0  0  0  0  0  0  0  0  0  0  0
   -2.2017   -5.6154   -0.0446 C   0  0  1  0  0  0  0  0  0  0  0  0
   -3.6006   -6.1741    0.2656 C   0  0  0  0  0  0  0  0  0  0  0  0
   -1.3871   -6.6269   -0.7344 N   0  0  0  0  0  0  0  0  0  0  0  0
   -0.3711   -7.3663   -0.0378 C   0  0  0  0  0  0  0  0  0  0  0  0
   -0.6201   -7.8344    1.1107 O   0  0  0  0  0  0  0  0  0  0  0  0
    1.0214   -7.5281   -0.6101 C   0  0  1  0  0  0  0  0  0  0  0  0
    1.0140   -7.7662   -2.1188 C   0  0  0  0  0  0  0  0  0  0  0  0
    1.8089   -6.3273   -0.3033 N   0  0  0  0  0  0  0  0  0  0  0  0
    2.7194   -6.2376    0.8113 C   0  0  0  0  0  0  0  0  0  0  0  0
    2.5817   -5.3026    1.6356 O   0  0  0  0  0  0  0  0  0  0  0  0
    3.8687   -7.1948    1.0016 C   0  0  1  0  0  0  0  0  0  0  0  0
    3.5309   -8.2647    2.0544 C   0  0  0  0  0  0  0  0  0  0  0  0
    4.2715   -7.8332   -0.2590 N   0  0  0  0  0  0  0  0  0  0  0  0
    5.0523   -7.1693   -1.2632 C   0  0  0  0  0  0  0  0  0  0  0  0
    4.7239   -7.2998   -2.4793 O   0  0  0  0  0  0  0  0  0  0  0  0
    6.2578   -6.3161   -0.9134 C   0  0  1  0  0  0  0  0  0  0  0  0
    7.4376   -6.6690   -1.8300 C   0  0  0  0  0  0  0  0  0  0  0  0
    5.9116   -4.8893   -1.0396 N   0  0  0  0  0  0  0  0  0  0  0  0
    6.8874   -3.8408   -0.8982 C   0  0  0  0  0  0  0  0  0  0  0  0
    7.2046   -3.1830   -1.9161 O   0  0  0  0  0  0  0  0  0  0  0  0
    7.5489   -3.5147    0.4188 C   0  0  1  0  0  0  0  0  0  0  0  0
    6.7273   -3.9254    1.6456 C   0  0  0  0  0  0  0  0  0  0  0  0
    8.8806   -4.1324    0.4720 N   0  0  0  0  0  0  0  0  0  0  0  0
   10.0747   -3.5307   -0.0576 C   0  0  0  0  0  0  0  0  0  0  0  0
   10.9582   -4.2799   -0.5605 O   0  0  0  0  0  0  0  0  0  0  0  0
   10.2871   -2.0297   -0.0801 C   0  0  1  0  0  0  0  0  0  0  0  0
   11.7822   -1.6880    0.0855 C   0  0  0  0  0  0  0  0  0  0  0  0
    9.7675   -1.4703   -1.3379 N   0  0  0  0  0  0  0  0  0  0  0  0
    9.2950   -0.1193   -1.5167 C   0  0  0  0  0  0  0  0  0  0  0  0
    8.6146    0.1435   -2.5427 O   0  0  0  0  0  0  0  0  0  0  0  0
    9.7280    1.0237   -0.6213 C   0  0  1  0  0  0  0  0  0  0  0  0
   10.9079    1.7553   -1.2655 C   0  0  0  0  0  0  0  0  0  0  0  0
    8.6315    1.9640   -0.3641 N   0  0  0  0  0  0  0  0  0  0  0  0
    8.7164    2.9258    0.7020 C   0  0  0  0  0  0  0  0  0  0  0  0
    9.2531    2.5931    1.7912 O   0  0  0  0  0  0  0  0  0  0  0  0
    8.2474    4.3521    0.5342 C   0  0  1  0  0  0  0  0  0  0  0  0
    9.4509    5.2917    0.6049 C   0  0  0  0  0  0  0  0  0  0  0  0
    7.5404    4.5419   -0.7372 N   0  0  0  0  0  0  0  0  0  0  0  0
    6.1520    4.8902   -0.8838 C   0  0  0  0  0  0  0  0  0  0  0  0
    5.5691    4.5585   -1.9506 O   0  0  0  0  0  0  0  0  0  0  0  0
    5.3795    5.6364    0.1938 C   0  0  1  0  0  0  0  0  0  0  0  0
    6.0280    6.9811    0.5419 C   0  0  0  0  0  0  0  0  0  0  0  0
    3.9698    5.8366   -0.1863 N   0  0  0  0  0  0  0  0  0  0  0  0
    3.5658    6.7874   -1.1866 C   0  0  0  0  0  0  0  0  0  0  0  0
    4.2720    6.9599   -2.2152 O   0  0  0  0  0  0  0  0  0  0  0  0
    2.3390    7.6353   -0.9551 C   0  0  1  0  0  0  0  0  0  0  0  0
    2.6978    9.1136   -1.1172 C   0  0  0  0  0  0  0  0  0  0  0  0
    1.2850    7.2694   -1.9154 N   0  0  0  0  0  0  0  0  0  0  0  0
    0.0854    6.5498   -1.5884 C   0  0  0  0  0  0  0  0  0  0  0  0
   -0.3780    5.7594   -2.4567 O   0  0  0  0  0  0  0  0  0  0  0  0
   -5.1110   -2.4196    0.5220 C   0  0  0  0  0  0  0  0  0  0  0  0
   -5.3831   -2.0207    1.6890 O   0  0  0  0  0  0  0  0  0  0  0  0
   -6.1644   -2.9193   -0.3020 N   0  0  0  0  0  0  0  0  0  0  0  0
   -7.0045   -4.0256    0.1464 C   0  0  2  0  0  0  0  0  0  0  0  0
   -7.3554   -4.9286   -1.0316 C   0  0  0  0  0  0  0  0  0  0  0  0
   -8.2414   -3.5201    0.8328 C   0  0  0  0  0  0  0  0  0  0  0  0
   -8.4254   -3.8223    2.0455 O   0  0  0  0  0  0  0  0  0  0  0  0
   -9.2240   -2.7228    0.1384 N   0  0  0  0  0  0  0  0  0  0  0  0
  -10.6064   -2.6904    0.6049 C   0  0  2  0  0  0  0  0  0  0  0  0
  -11.2465   -4.0822    0.4814 C   0  0  0  0  0  0  0  0  0  0  0  0
  -11.4289   -1.7031   -0.1802 C   0  0  0  0  0  0  0  0  0  0  0  0
  -11.7711   -1.9712   -1.3593 O   0  0  0  0  0  0  0  0  0  0  0  0
  -11.9030   -0.4790    0.4099 N   0  0  0  0  0  0  0  0  0  0  0  0
  -11.0611    0.3927    1.2300 C   0  0  2  0  0  0  0  0  0  0  0  0
  -11.5541    0.3830    2.6839 C   0  0  0  0  0  0  0  0  0  0  0  0
  -11.0585    1.7795    0.6367 C   0  0  0  0  0  0  0  0  0  0  0  0
  -11.8059    2.6785    1.1187 O   0  0  0  0  0  0  0  0  0  0  0  0
  -10.2631    2.0699   -0.5212 N   0  0  0  0  0  0  0  0  0  0  0  0
   -9.3078    3.1844   -0.5571 C   0  0  1  0  0  0  0  0  0  0  0  0
   -9.9879    4.5050   -0.2843 C   0  0  0  0  0  0  0  0  0  0  0  0
  -11.0018    4.9635   -1.1776 N   0  0  0  0  0  0  0  0  0  0  0  0
   -9.6443    5.2207    0.6947 O   0  0  0  0  0  0  0  0  0  0  0  0
   -8.1366    2.8748    0.3841 C   0  0  0  0  0  0  0  0  0  0  0  0
   -7.1348    1.5117   -0.3095 S   0  0  0  0  0  0  0  0  0  0  0  0
   -5.8790    2.5645   -1.1044 C   0  0  0  0  0  0  0  0  0  0  0  0
   -1.0354   11.3863   -0.1119 H   0  0  0  0  0  0  0  0  0  0  0  0
   -1.4806   10.4492    1.3738 H   0  0  0  0  0  0  0  0  0  0  0  0
    0.2712   10.6535    0.9227 H   0  0  0  0  0  0  0  0  0  0  0  0
   -0.0492    8.0314    1.3067 H   0  0  0  0  0  0  0  0  0  0  0  0
   -0.2329    5.9198    0.4220 H   0  0  0  0  0  0  0  0  0  0  0  0
   -2.2981    5.3500   -0.8034 H   0  0  0  0  0  0  0  0  0  0  0  0
   -2.5622    7.0568   -1.2346 H   0  0  0  0  0  0  0  0  0  0  0  0
   -1.6763    5.1353    2.2040 H   0  0  0  0  0  0  0  0  0  0  0  0
   -3.3104    5.1541    2.9224 H   0  0  0  0  0  0  0  0  0  0  0  0
   -5.0214    4.6564    0.4492 H   0  0  0  0  0  0  0  0  0  0  0  0
   -4.0352    0.6538   -0.7496 H   0  0  0  0  0  0  0  0  0  0  0  0
   -1.4636    2.7541    1.9744 H   0  0  0  0  0  0  0  0  0  0  0  0
   -0.8510    0.5485    1.2332 H   0  0  0  0  0  0  0  0  0  0  0  0
   -1.7195   -0.2189   -0.1430 H   0  0  0  0  0  0  0  0  0  0  0  0
   -1.6031   -2.4479    0.7632 H   0  0  0  0  0  0  0  0  0  0  0  0
   -2.8279   -3.1454    1.8705 H   0  0  0  0  0  0  0  0  0  0  0  0
   -3.5762   -1.4992   -0.6385 H   0  0  0  0  0  0  0  0  0  0  0  0
   -4.0643   -3.6373   -1.7246 H   0  0  0  0  0  0  0  0  0  0  0  0
   -1.7069   -5.3443    0.9234 H   0  0  0  0  0  0  0  0  0  0  0  0
   -4.1018   -5.5101    0.9995 H   0  0  0  0  0  0  0  0  0  0  0  0
   -4.2296   -6.2135   -0.6519 H   0  0  0  0  0  0  0  0  0  0  0  0
   -3.5283   -7.1873    0.6992 H   0  0  0  0  0  0  0  0  0  0  0  0
   -1.4706   -6.7167   -1.7653 H   0  0  0  0  0  0  0  0  0  0  0  0
    1.4708   -8.4216   -0.1346 H   0  0  0  0  0  0  0  0  0  0  0  0
    0.3588   -8.6288   -2.3747 H   0  0  0  0  0  0  0  0  0  0  0  0
    2.0406   -8.0015   -2.4637 H   0  0  0  0  0  0  0  0  0  0  0  0
    0.6581   -6.8692   -2.6754 H   0  0  0  0  0  0  0  0  0  0  0  0
    1.4697   -5.4271   -0.7069 H   0  0  0  0  0  0  0  0  0  0  0  0
    4.7249   -6.6170    1.4088 H   0  0  0  0  0  0  0  0  0  0  0  0
    3.2327   -7.7832    3.0144 H   0  0  0  0  0  0  0  0  0  0  0  0
    4.4269   -8.9031    2.2352 H   0  0  0  0  0  0  0  0  0  0  0  0
    2.7037   -8.9123    1.7167 H   0  0  0  0  0  0  0  0  0  0  0  0
    3.7413   -8.6849   -0.5595 H   0  0  0  0  0  0  0  0  0  0  0  0
    6.5697   -6.5288    0.1231 H   0  0  0  0  0  0  0  0  0  0  0  0
    7.2170   -6.4058   -2.8851 H   0  0  0  0  0  0  0  0  0  0  0  0
    8.3536   -6.1319   -1.5166 H   0  0  0  0  0  0  0  0  0  0  0  0
    7.6534   -7.7588   -1.7767 H   0  0  0  0  0  0  0  0  0  0  0  0
    5.0636   -4.6459   -1.5994 H   0  0  0  0  0  0  0  0  0  0  0  0
    7.6553   -2.4099    0.4638 H   0  0  0  0  0  0  0  0  0  0  0  0
    5.6723   -3.6005    1.5226 H   0  0  0  0  0  0  0  0  0  0  0  0
    7.1407   -3.4240    2.5431 H   0  0  0  0  0  0  0  0  0  0  0  0
    6.7562   -5.0144    1.8147 H   0  0  0  0  0  0  0  0  0  0  0  0
    8.9350   -5.1470    0.7211 H   0  0  0  0  0  0  0  0  0  0  0  0
    9.7426   -1.5931    0.7843 H   0  0  0  0  0  0  0  0  0  0  0  0
   12.1921   -2.1868    0.9820 H   0  0  0  0  0  0  0  0  0  0  0  0
   12.3600   -2.0100   -0.8104 H   0  0  0  0  0  0  0  0  0  0  0  0
   11.9356   -0.6020    0.2123 H   0  0  0  0  0  0  0  0  0  0  0  0
    9.6775   -2.1112   -2.1536 H   0  0  0  0  0  0  0  0  0  0  0  0
   10.0542    0.6148    0.3583 H   0  0  0  0  0  0  0  0  0  0  0  0
   10.5809    2.2679   -2.1994 H   0  0  0  0  0  0  0  0  0  0  0  0
   11.3301    2.5121   -0.5670 H   0  0  0  0  0  0  0  0  0  0  0  0
   11.7179    1.0375   -1.5247 H   0  0  0  0  0  0  0  0  0  0  0  0
    7.8194    2.0179   -1.0278 H   0  0  0  0  0  0  0  0  0  0  0  0
    7.5815    4.5924    1.3920 H   0  0  0  0  0  0  0  0  0  0  0  0
   10.1939    5.0239   -0.1774 H   0  0  0  0  0  0  0  0  0  0  0  0
    9.1548    6.3501    0.4326 H   0  0  0  0  0  0  0  0  0  0  0  0
    9.9422    5.2242    1.5967 H   0  0  0  0  0  0  0  0  0  0  0  0
    8.0756    4.3559   -1.6127 H   0  0  0  0  0  0  0  0  0  0  0  0
    5.3881    4.9938    1.1044 H   0  0  0  0  0  0  0  0  0  0  0  0
    5.3767    7.5456    1.2395 H   0  0  0  0  0  0  0  0  0  0  0  0
    6.1915    7.5881   -0.3733 H   0  0  0  0  0  0  0  0  0  0  0  0
    6.9967    6.8359    1.0552 H   0  0  0  0  0  0  0  0  0  0  0  0
    3.2538    5.5334    0.5108 H   0  0  0  0  0  0  0  0  0  0  0  0
    1.9920    7.4727    0.0851 H   0  0  0  0  0  0  0  0  0  0  0  0
    3.5508    9.3763   -0.4552 H   0  0  0  0  0  0  0  0  0  0  0  0
    2.9802    9.3477   -2.1757 H   0  0  0  0  0  0  0  0  0  0  0  0
    1.8274    9.7528   -0.8438 H   0  0  0  0  0  0  0  0  0  0  0  0
    1.5136    7.3700   -2.9349 H   0  0  0  0  0  0  0  0  0  0  0  0
   -6.4176   -2.3787   -1.1685 H   0  0  0  0  0  0  0  0  0  0  0  0
   -6.4272   -4.6397    0.8760 H   0  0  0  0  0  0  0  0  0  0  0  0
   -7.9418   -5.8013   -0.6761 H   0  0  0  0  0  0  0  0  0  0  0  0
   -7.9236   -4.3805   -1.8085 H   0  0  0  0  0  0  0  0  0  0  0  0
   -6.4178   -5.3194   -1.4803 H   0  0  0  0  0  0  0  0  0  0  0  0
   -8.8529   -1.9009   -0.4011 H   0  0  0  0  0  0  0  0  0  0  0  0
  -10.6470   -2.3934    1.6873 H   0  0  0  0  0  0  0  0  0  0  0  0
  -10.7270   -4.7998    1.1436 H   0  0  0  0  0  0  0  0  0  0  0  0
  -12.3132   -4.0443    0.7820 H   0  0  0  0  0  0  0  0  0  0  0  0
  -11.1702   -4.4492   -0.5671 H   0  0  0  0  0  0  0  0  0  0  0  0
  -12.8218   -0.0919    0.0756 H   0  0  0  0  0  0  0  0  0  0  0  0
  -10.0087    0.0195    1.2358 H   0  0  0  0  0  0  0  0  0  0  0  0
  -12.6068    0.7179    2.7560 H   0  0  0  0  0  0  0  0  0  0  0  0
  -10.9280    1.0633    3.3069 H   0  0  0  0  0  0  0  0  0  0  0  0
  -11.4736   -0.6425    3.1180 H   0  0  0  0  0  0  0  0  0  0  0  0
  -10.2740    1.3720   -1.3127 H   0  0  0  0  0  0  0  0  0  0  0  0
   -8.9043    3.2562   -1.5981 H   0  0  0  0  0  0  0  0  0  0  0  0
  -11.4076    5.9127   -1.0705 H   0  0  0  0  0  0  0  0  0  0  0  0
  -11.4628    4.2858   -1.8139 H   0  0  0  0  0  0  0  0  0  0  0  0
   -8.5256    2.5591    1.3742 H   0  0  0  0  0  0  0  0  0  0  0  0
   -7.5074    3.7864    0.5467 H   0  0  0  0  0  0  0  0  0  0  0  0
   -6.2834    3.5686   -1.3637 H   0  0  0  0  0  0  0  0  0  0  0  0
   -5.6050    2.0820   -2.0618 H   0  0  0  0  0  0  0  0  0  0  0  0
  1  2  1  0
  2  3  2  0
  2  4  1  0
  4  5  1  0
  5  6  1  0
  6  7  1  0
  7  8  1  0
  8  9  1  0
  9 10  2  0
 10 11  1  0
 11 12  2  0
 12 13  1  0
 13 14  2  0
 13 15  1  0
 15 16  1  0
 16 17  1  0
 17 18  1  0
 18 19  1  0
 19 20  1  0
 20 21  2  0
 20 22  1  0
 22 23  1  0
 22 24  1  0
 24 25  1  0
 25 26  2  0
 25 27  1  0
 27 28  1  0
 27 29  1  0
 29 30  1  0
 30 31  2  0
 30 32  1  0
 32 33  1  0
 32 34  1  0
 34 35  1  0
 35 36  2  0
 35 37  1  0
 37 38  1  0
 37 39  1  0
 39 40  1  0
 40 41  2  0
 40 42  1  0
 42 43  1  0
 42 44  1  0
 44 45  1  0
 45 46  2  0
 45 47  1  0
 47 48  1  0
 47 49  1  0
 49 50  1  0
 50 51  2  0
 50 52  1  0
 52 53  1  0
 52 54  1  0
 54 55  1  0
 55 56  2  0
 55 57  1  0
 57 58  1  0
 57 59  1  0
 59 60  1  0
 60 61  2  0
 60 62  1  0
 62 63  1  0
 62 64  1  0
 64 65  1  0
 65 66  2  0
 65 67  1  0
 67 68  1  0
 67 69  1  0
 69 70  1  0
 70 71  2  0
 18 72  1  0
 72 73  2  0
 72 74  1  0
 74 75  1  0
 75 76  1  0
 75 77  1  0
 77 78  2  0
 77 79  1  0
 79 80  1  0
 80 81  1  0
 80 82  1  0
 82 83  2  0
 82 84  1  0
 84 85  1  0
 85 86  1  0
 85 87  1  0
 87 88  2  0
 87 89  1  0
 89 90  1  0
 90 91  1  0
 91 92  1  0
 91 93  2  0
 90 94  1  0
 94 95  1  0
 95 96  1  0
 70  5  1  0
 14  9  1  0
 96 11  1  0
  1 97  1  0
  1 98  1  0
  1 99  1  0
  4100  1  0
  5101  1  1
  6102  1  0
  6103  1  0
  8104  1  0
  8105  1  0
 10106  1  0
 12107  1  0
 14108  1  0
 15109  1  0
 15110  1  0
 17111  1  0
 17112  1  0
 18113  1  6
 19114  1  0
 22115  1  1
 23116  1  0
 23117  1  0
 23118  1  0
 24119  1  0
 27120  1  1
 28121  1  0
 28122  1  0
 28123  1  0
 29124  1  0
 32125  1  1
 33126  1  0
 33127  1  0
 33128  1  0
 34129  1  0
 37130  1  1
 38131  1  0
 38132  1  0
 38133  1  0
 39134  1  0
 42135  1  1
 43136  1  0
 43137  1  0
 43138  1  0
 44139  1  0
 47140  1  1
 48141  1  0
 48142  1  0
 48143  1  0
 49144  1  0
 52145  1  1
 53146  1  0
 53147  1  0
 53148  1  0
 54149  1  0
 57150  1  1
 58151  1  0
 58152  1  0
 58153  1  0
 59154  1  0
 62155  1  1
 63156  1  0
 63157  1  0
 63158  1  0
 64159  1  0
 67160  1  1
 68161  1  0
 68162  1  0
 68163  1  0
 69164  1  0
 74165  1  0
 75166  1  1
 76167  1  0
 76168  1  0
 76169  1  0
 79170  1  0
 80171  1  1
 81172  1  0
 81173  1  0
 81174  1  0
 84175  1  0
 85176  1  1
 86177  1  0
 86178  1  0
 86179  1  0
 89180  1  0
 90181  1  6
 92182  1  0
 92183  1  0
 94184  1  0
 94185  1  0
 96186  1  0
 96187  1  0
M  END
