
     RDKit          3D

157159  0  0  0  0  0  0  0  0999 V2000
   11.6959   -1.3220    1.3984 C   0  0  0  0  0  0  0  0  0  0  0  0
   10.7548   -1.2440    2.5651 C   0  0  0  0  0  0  0  0  0  0  0  0
   11.0933   -1.7670    3.6639 O   0  0  0  0  0  0  0  0  0  0  0  0
    9.4824   -0.5770    2.4743 N   0  0  0  0  0  0  0  0  0  0  0  0
    8.8719   -0.1645    1.1979 C   0  0  1  0  0  0  0  0  0  0  0  0
    8.0540   -1.3173    0.5876 C   0  0  0  0  0  0  0  0  0  0  0  0
    6.7925   -1.9650    1.7500 S   0  0  0  0  0  0  0  0  0  0  0  0
    6.3228   -3.4280    0.7544 C   0  0  0  0  0  0  0  0  0  0  0  0
    4.8853   -3.3139    0.3279 C   0  0  0  0  0  0  0  0  0  0  0  0
    3.9025   -4.1441    0.8858 C   0  0  0  0  0  0  0  0  0  0  0  0
    2.5640   -4.0386    0.4816 C   0  0  0  0  0  0  0  0  0  0  0  0
    2.2022   -3.0592   -0.4515 C   0  0  0  0  0  0  0  0  0  0  0  0
    3.1731   -2.2113   -1.0088 C   0  0  0  0  0  0  0  0  0  0  0  0
    4.5209   -2.3717   -0.6437 C   0  0  0  0  0  0  0  0  0  0  0  0
    2.7682   -1.0959   -1.9311 C   0  0  0  0  0  0  0  0  0  0  0  0
    2.6461    0.4811   -1.0114 S   0  0  0  0  0  0  0  0  0  0  0  0
    4.4131    0.9748   -1.1570 C   0  0  0  0  0  0  0  0  0  0  0  0
    4.5851    2.4987   -0.9545 C   0  0  2  0  0  0  0  0  0  0  0  0
    5.9512    2.9690   -1.2569 N   0  0  0  0  0  0  0  0  0  0  0  0
    7.0257    2.1459   -1.7420 C   0  0  0  0  0  0  0  0  0  0  0  0
    6.9031    1.5364   -2.8351 O   0  0  0  0  0  0  0  0  0  0  0  0
    8.3242    2.0358   -0.9830 C   0  0  1  0  0  0  0  0  0  0  0  0
    9.3178    3.0951   -1.4560 C   0  0  0  0  0  0  0  0  0  0  0  0
    8.0857    2.1754    0.4572 N   0  0  0  0  0  0  0  0  0  0  0  0
    8.0196    1.0735    1.3762 C   0  0  0  0  0  0  0  0  0  0  0  0
    7.2515    1.1645    2.3751 O   0  0  0  0  0  0  0  0  0  0  0  0
    4.2410    2.9290    0.4584 C   0  0  0  0  0  0  0  0  0  0  0  0
    4.1115    2.0689    1.3750 O   0  0  0  0  0  0  0  0  0  0  0  0
    4.2248    4.3161    0.8137 N   0  0  0  0  0  0  0  0  0  0  0  0
    3.2018    5.2691    0.3330 C   0  0  2  0  0  0  0  0  0  0  0  0
    3.5948    5.8634   -1.0281 C   0  0  0  0  0  0  0  0  0  0  0  0
    3.0472    6.3949    1.3301 C   0  0  0  0  0  0  0  0  0  0  0  0
    4.0721    6.9995    1.7490 O   0  0  0  0  0  0  0  0  0  0  0  0
    1.7572    6.8033    1.8027 N   0  0  0  0  0  0  0  0  0  0  0  0
    0.7145    7.2672    0.8763 C   0  0  2  0  0  0  0  0  0  0  0  0
    1.0628    8.6967    0.4292 C   0  0  0  0  0  0  0  0  0  0  0  0
   -0.6579    7.2268    1.5301 C   0  0  0  0  0  0  0  0  0  0  0  0
   -0.7442    6.9052    2.7456 O   0  0  0  0  0  0  0  0  0  0  0  0
   -1.8718    7.5742    0.8329 N   0  0  0  0  0  0  0  0  0  0  0  0
   -2.0222    7.7408   -0.6146 C   0  0  2  0  0  0  0  0  0  0  0  0
   -2.4188    9.1903   -0.9212 C   0  0  0  0  0  0  0  0  0  0  0  0
   -3.0671    6.8034   -1.1616 C   0  0  0  0  0  0  0  0  0  0  0  0
   -3.0620    6.5250   -2.3958 O   0  0  0  0  0  0  0  0  0  0  0  0
   -4.1486    6.3281   -0.3565 N   0  0  0  0  0  0  0  0  0  0  0  0
   -4.0202    5.1632    0.5297 C   0  0  2  0  0  0  0  0  0  0  0  0
   -3.5534    3.9400   -0.2643 C   0  0  0  0  0  0  0  0  0  0  0  0
   -5.3198    4.9328    1.2711 C   0  0  0  0  0  0  0  0  0  0  0  0
   -5.7686    5.8445    2.0200 O   0  0  0  0  0  0  0  0  0  0  0  0
   -6.0518    3.7027    1.1767 N   0  0  0  0  0  0  0  0  0  0  0  0
   -6.8838    3.3424    0.0192 C   0  0  2  0  0  0  0  0  0  0  0  0
   -7.4429    4.5662   -0.7152 C   0  0  0  0  0  0  0  0  0  0  0  0
   -8.0186    2.4652    0.4721 C   0  0  0  0  0  0  0  0  0  0  0  0
   -8.7998    2.8554    1.3854 O   0  0  0  0  0  0  0  0  0  0  0  0
   -8.2466    1.2125   -0.1744 N   0  0  0  0  0  0  0  0  0  0  0  0
   -7.8720   -0.0671    0.4430 C   0  0  2  0  0  0  0  0  0  0  0  0
   -6.5701    0.0351    1.2441 C   0  0  0  0  0  0  0  0  0  0  0  0
   -7.7246   -1.1143   -0.6267 C   0  0  0  0  0  0  0  0  0  0  0  0
   -6.8243   -1.0026   -1.5060 O   0  0  0  0  0  0  0  0  0  0  0  0
   -8.5970   -2.2480   -0.6501 N   0  0  0  0  0  0  0  0  0  0  0  0
   -8.0481   -3.6019   -0.5834 C   0  0  2  0  0  0  0  0  0  0  0  0
   -8.9634   -4.5717   -1.3407 C   0  0  0  0  0  0  0  0  0  0  0  0
   -7.9189   -4.0206    0.8675 C   0  0  0  0  0  0  0  0  0  0  0  0
   -8.8433   -3.7350    1.6720 O   0  0  0  0  0  0  0  0  0  0  0  0
   -6.7437   -4.6788    1.3671 N   0  0  0  0  0  0  0  0  0  0  0  0
   -6.0597   -5.7545    0.6367 C   0  0  2  0  0  0  0  0  0  0  0  0
   -6.7421   -7.0865    0.9474 C   0  0  0  0  0  0  0  0  0  0  0  0
   -4.5962   -5.8020    1.0188 C   0  0  0  0  0  0  0  0  0  0  0  0
   -4.2618   -5.6103    2.2231 O   0  0  0  0  0  0  0  0  0  0  0  0
   -3.5616   -6.0152    0.0409 N   0  0  0  0  0  0  0  0  0  0  0  0
   -3.6483   -7.0529   -0.9899 C   0  0  2  0  0  0  0  0  0  0  0  0
   -3.4640   -8.4526   -0.3837 C   0  0  0  0  0  0  0  0  0  0  0  0
   -2.6763   -6.7640   -2.1192 C   0  0  0  0  0  0  0  0  0  0  0  0
   -3.1178   -6.1516   -3.1326 O   0  0  0  0  0  0  0  0  0  0  0  0
   -1.3011   -7.2043   -2.1392 N   0  0  0  0  0  0  0  0  0  0  0  0
   -0.4400   -7.3913   -0.9651 C   0  0  1  0  0  0  0  0  0  0  0  0
   -0.1184   -8.8572   -0.7835 C   0  0  0  0  0  0  0  0  0  0  0  0
    0.3785   -9.6406   -1.8674 N   0  0  0  0  0  0  0  0  0  0  0  0
   -0.2332   -9.3845    0.3591 O   0  0  0  0  0  0  0  0  0  0  0  0
    0.8540   -6.5747   -1.1277 C   0  0  0  0  0  0  0  0  0  0  0  0
    1.8729   -6.6841    0.3917 S   0  0  0  0  0  0  0  0  0  0  0  0
    1.5496   -5.0014    1.0276 C   0  0  0  0  0  0  0  0  0  0  0  0
   11.2169   -1.8520    0.5486 H   0  0  0  0  0  0  0  0  0  0  0  0
   11.9828   -0.3004    1.0769 H   0  0  0  0  0  0  0  0  0  0  0  0
   12.6198   -1.8747    1.6775 H   0  0  0  0  0  0  0  0  0  0  0  0
    8.8801   -0.5996    3.3264 H   0  0  0  0  0  0  0  0  0  0  0  0
    9.6856    0.0880    0.4894 H   0  0  0  0  0  0  0  0  0  0  0  0
    7.5416   -0.9708   -0.3301 H   0  0  0  0  0  0  0  0  0  0  0  0
    8.7521   -2.1326    0.3096 H   0  0  0  0  0  0  0  0  0  0  0  0
    6.9665   -3.5772   -0.1406 H   0  0  0  0  0  0  0  0  0  0  0  0
    6.4678   -4.3188    1.4017 H   0  0  0  0  0  0  0  0  0  0  0  0
    4.1766   -4.8929    1.6163 H   0  0  0  0  0  0  0  0  0  0  0  0
    1.1682   -2.9632   -0.7530 H   0  0  0  0  0  0  0  0  0  0  0  0
    5.2815   -1.7631   -1.1087 H   0  0  0  0  0  0  0  0  0  0  0  0
    3.4702   -1.0273   -2.7873 H   0  0  0  0  0  0  0  0  0  0  0  0
    1.7690   -1.3069   -2.3655 H   0  0  0  0  0  0  0  0  0  0  0  0
    5.0241    0.4308   -0.4084 H   0  0  0  0  0  0  0  0  0  0  0  0
    4.7540    0.7006   -2.1768 H   0  0  0  0  0  0  0  0  0  0  0  0
    3.8802    2.9879   -1.6518 H   0  0  0  0  0  0  0  0  0  0  0  0
    6.2002    3.9551   -0.9938 H   0  0  0  0  0  0  0  0  0  0  0  0
    8.7543    1.0386   -1.2168 H   0  0  0  0  0  0  0  0  0  0  0  0
   10.2425    3.0375   -0.8550 H   0  0  0  0  0  0  0  0  0  0  0  0
    8.8932    4.1156   -1.3414 H   0  0  0  0  0  0  0  0  0  0  0  0
    9.5823    2.9337   -2.5221 H   0  0  0  0  0  0  0  0  0  0  0  0
    7.7311    3.1014    0.7898 H   0  0  0  0  0  0  0  0  0  0  0  0
    4.7781    4.5624    1.6659 H   0  0  0  0  0  0  0  0  0  0  0  0
    2.2172    4.7476    0.2271 H   0  0  0  0  0  0  0  0  0  0  0  0
    2.9712    6.7487   -1.2726 H   0  0  0  0  0  0  0  0  0  0  0  0
    3.4176    5.1336   -1.8379 H   0  0  0  0  0  0  0  0  0  0  0  0
    4.6680    6.1612   -1.0315 H   0  0  0  0  0  0  0  0  0  0  0  0
    1.7508    7.2083    2.7679 H   0  0  0  0  0  0  0  0  0  0  0  0
    0.7016    6.6039   -0.0156 H   0  0  0  0  0  0  0  0  0  0  0  0
    2.1294    8.7496    0.1221 H   0  0  0  0  0  0  0  0  0  0  0  0
    0.9088    9.4175    1.2634 H   0  0  0  0  0  0  0  0  0  0  0  0
    0.4567    9.0006   -0.4419 H   0  0  0  0  0  0  0  0  0  0  0  0
   -2.7254    7.7312    1.4213 H   0  0  0  0  0  0  0  0  0  0  0  0
   -1.0683    7.5131   -1.1414 H   0  0  0  0  0  0  0  0  0  0  0  0
   -3.4384    9.4086   -0.5424 H   0  0  0  0  0  0  0  0  0  0  0  0
   -2.3826    9.3719   -2.0167 H   0  0  0  0  0  0  0  0  0  0  0  0
   -1.7139    9.8953   -0.4311 H   0  0  0  0  0  0  0  0  0  0  0  0
   -5.0851    6.7645   -0.5157 H   0  0  0  0  0  0  0  0  0  0  0  0
   -3.2483    5.3746    1.3039 H   0  0  0  0  0  0  0  0  0  0  0  0
   -2.5206    4.1118   -0.6349 H   0  0  0  0  0  0  0  0  0  0  0  0
   -4.2100    3.7639   -1.1424 H   0  0  0  0  0  0  0  0  0  0  0  0
   -3.5315    3.0324    0.3766 H   0  0  0  0  0  0  0  0  0  0  0  0
   -5.7321    2.9353    1.8049 H   0  0  0  0  0  0  0  0  0  0  0  0
   -6.2619    2.7639   -0.7033 H   0  0  0  0  0  0  0  0  0  0  0  0
   -7.9482    5.2527   -0.0024 H   0  0  0  0  0  0  0  0  0  0  0  0
   -8.1753    4.2492   -1.4915 H   0  0  0  0  0  0  0  0  0  0  0  0
   -6.6239    5.1061   -1.2321 H   0  0  0  0  0  0  0  0  0  0  0  0
   -9.0338    1.1964   -0.8663 H   0  0  0  0  0  0  0  0  0  0  0  0
   -8.6819   -0.3711    1.1448 H   0  0  0  0  0  0  0  0  0  0  0  0
   -6.2653   -0.9697    1.6072 H   0  0  0  0  0  0  0  0  0  0  0  0
   -5.7560    0.4532    0.6217 H   0  0  0  0  0  0  0  0  0  0  0  0
   -6.7267    0.6880    2.1288 H   0  0  0  0  0  0  0  0  0  0  0  0
   -9.5853   -2.1012   -0.3376 H   0  0  0  0  0  0  0  0  0  0  0  0
   -7.0503   -3.6216   -1.0780 H   0  0  0  0  0  0  0  0  0  0  0  0
  -10.0053   -4.4859   -0.9706 H   0  0  0  0  0  0  0  0  0  0  0  0
   -8.9626   -4.3211   -2.4211 H   0  0  0  0  0  0  0  0  0  0  0  0
   -8.6098   -5.6162   -1.2187 H   0  0  0  0  0  0  0  0  0  0  0  0
   -6.5983   -4.6279    2.3997 H   0  0  0  0  0  0  0  0  0  0  0  0
   -6.1280   -5.5724   -0.4540 H   0  0  0  0  0  0  0  0  0  0  0  0
   -6.4535   -7.8503    0.2015 H   0  0  0  0  0  0  0  0  0  0  0  0
   -7.8476   -6.9772    0.8944 H   0  0  0  0  0  0  0  0  0  0  0  0
   -6.4766   -7.4477    1.9628 H   0  0  0  0  0  0  0  0  0  0  0  0
   -2.6355   -5.5675    0.2357 H   0  0  0  0  0  0  0  0  0  0  0  0
   -4.6631   -7.0305   -1.4394 H   0  0  0  0  0  0  0  0  0  0  0  0
   -4.3982   -8.7749    0.1306 H   0  0  0  0  0  0  0  0  0  0  0  0
   -2.6679   -8.4474    0.3892 H   0  0  0  0  0  0  0  0  0  0  0  0
   -3.2313   -9.2001   -1.1763 H   0  0  0  0  0  0  0  0  0  0  0  0
   -0.8621   -7.3132   -3.0810 H   0  0  0  0  0  0  0  0  0  0  0  0
   -0.9523   -7.0169   -0.0595 H   0  0  0  0  0  0  0  0  0  0  0  0
    0.5798  -10.6562   -1.7277 H   0  0  0  0  0  0  0  0  0  0  0  0
    0.5669   -9.2241   -2.8061 H   0  0  0  0  0  0  0  0  0  0  0  0
    0.6014   -5.5153   -1.3701 H   0  0  0  0  0  0  0  0  0  0  0  0
    1.4545   -6.9663   -1.9730 H   0  0  0  0  0  0  0  0  0  0  0  0
    1.6411   -5.0331    2.1364 H   0  0  0  0  0  0  0  0  0  0  0  0
    0.5078   -4.6725    0.8109 H   0  0  0  0  0  0  0  0  0  0  0  0
  1  2  1  0
  2  3  2  0
  2  4  1  0
  4  5  1  0
  5  6  1  0
  6  7  1  0
  7  8  1  0
  8  9  1  0
  9 10  1  0
 10 11  2  0
 11 12  1  0
 12 13  2  0
 13 14  1  0
 13 15  1  0
 15 16  1  0
 16 17  1  0
 17 18  1  0
 18 19  1  0
 19 20  1  0
 20 21  2  0
 20 22  1  0
 22 23  1  0
 22 24  1  0
 24 25  1  0
 25 26  2  0
 18 27  1  0
 27 28  2  0
 27 29  1  0
 29 30  1  0
 30 31  1  0
 30 32  1  0
 32 33  2  0
 32 34  1  0
 34 35  1  0
 35 36  1  0
 35 37  1  0
 37 38  2  0
 37 39  1  0
 39 40  1  0
 40 41  1  0
 40 42  1  0
 42 43  2  0
 42 44  1  0
 44 45  1  0
 45 46  1  0
 45 47  1  0
 47 48  2  0
 47 49  1  0
 49 50  1  0
 50 51  1  0
 50 52  1  0
 52 53  2  0
 52 54  1  0
 54 55  1  0
 55 56  1  0
 55 57  1  0
 57 58  2  0
 57 59  1  0
 59 60  1  0
 60 61  1  0
 60 62  1  0
 62 63  2  0
 62 64  1  0
 64 65  1  0
 65 66  1  0
 65 67  1  0
 67 68  2  0
 67 69  1  0
 69 70  1  0
 70 71  1  0
 70 72  1  0
 72 73  2  0
 72 74  1  0
 74 75  1  0
 75 76  1  0
 76 77  1  0
 76 78  2  0
 75 79  1  0
 79 80  1  0
 80 81  1  0
 25  5  1  0
 14  9  2  0
 81 11  1  0
  1 82  1  0
  1 83  1  0
  1 84  1  0
  4 85  1  0
  5 86  1  6
  6 87  1  0
  6 88  1  0
  8 89  1  0
  8 90  1  0
 10 91  1  0
 12 92  1  0
 14 93  1  0
 15 94  1  0
 15 95  1  0
 17 96  1  0
 17 97  1  0
 18 98  1  6
 19 99  1  0
 22100  1  1
 23101  1  0
 23102  1  0
 23103  1  0
 24104  1  0
 29105  1  0
 30106  1  6
 31107  1  0
 31108  1  0
 31109  1  0
 34110  1  0
 35111  1  6
 36112  1  0
 36113  1  0
 36114  1  0
 39115  1  0
 40116  1  6
 41117  1  0
 41118  1  0
 41119  1  0
 44120  1  0
 45121  1  1
 46122  1  0
 46123  1  0
 46124  1  0
 49125  1  0
 50126  1  6
 51127  1  0
 51128  1  0
 51129  1  0
 54130  1  0
 55131  1  1
 56132  1  0
 56133  1  0
 56134  1  0
 59135  1  0
 60136  1  6
 61137  1  0
 61138  1  0
 61139  1  0
 64140  1  0
 65141  1  6
 66142  1  0
 66143  1  0
 66144  1  0
 69145  1  0
 70146  1  6
 71147  1  0
 71148  1  0
 71149  1  0
 74150  1  0
 75151  1  1
 77152  1  0
 77153  1  0
 79154  1  0
 79155  1  0
 81156  1  0
 81157  1  0
M  END
