
     RDKit          3D

237239  0  0  0  0  0  0  0  0999 V2000
   -4.1860    9.3148    0.5272 C   0  0  0  0  0  0  0  0  0  0  0  0
   -4.3552    7.9598   -0.0895 C   0  0  0  0  0  0  0  0  0  0  0  0
   -4.2517    7.8320   -1.3403 O   0  0  0  0  0  0  0  0  0  0  0  0
   -4.6196    6.8098    0.7356 N   0  0  0  0  0  0  0  0  0  0  0  0
   -4.5231    5.4188    0.2706 C   0  0  2  0  0  0  0  0  0  0  0  0
   -3.0523    5.0729   -0.0398 C   0  0  0  0  0  0  0  0  0  0  0  0
   -2.0692    5.1064    1.5045 S   0  0  0  0  0  0  0  0  0  0  0  0
   -1.9582    3.2884    1.7372 C   0  0  0  0  0  0  0  0  0  0  0  0
   -0.7568    2.7563    0.9996 C   0  0  0  0  0  0  0  0  0  0  0  0
    0.5326    3.1858    1.3448 C   0  0  0  0  0  0  0  0  0  0  0  0
    1.6407    2.8167    0.5666 C   0  0  0  0  0  0  0  0  0  0  0  0
    1.4587    1.9648   -0.5277 C   0  0  0  0  0  0  0  0  0  0  0  0
    0.1900    1.4663   -0.8380 C   0  0  0  0  0  0  0  0  0  0  0  0
   -0.9231    1.8904   -0.0927 C   0  0  0  0  0  0  0  0  0  0  0  0
    0.0279    0.5082   -1.9878 C   0  0  0  0  0  0  0  0  0  0  0  0
    1.0701   -0.9807   -1.7514 S   0  0  0  0  0  0  0  0  0  0  0  0
    0.1636   -1.6117   -0.2927 C   0  0  0  0  0  0  0  0  0  0  0  0
    0.8132   -2.9046    0.2334 C   0  0  2  0  0  0  0  0  0  0  0  0
    0.0289   -3.4271    1.3595 N   0  0  0  0  0  0  0  0  0  0  0  0
   -1.1649   -4.2239    1.2548 C   0  0  0  0  0  0  0  0  0  0  0  0
   -1.6465   -4.7203    2.3117 O   0  0  0  0  0  0  0  0  0  0  0  0
   -1.8678   -4.5049   -0.0561 C   0  0  1  0  0  0  0  0  0  0  0  0
   -1.8364   -5.9979   -0.3906 C   0  0  0  0  0  0  0  0  0  0  0  0
   -3.2409   -3.9653   -0.0275 N   0  0  0  0  0  0  0  0  0  0  0  0
   -4.2510   -4.3690    0.9086 C   0  0  0  0  0  0  0  0  0  0  0  0
   -4.5693   -3.5829    1.8462 O   0  0  0  0  0  0  0  0  0  0  0  0
   -4.9832   -5.6739    0.7528 C   0  0  1  0  0  0  0  0  0  0  0  0
   -4.8818   -6.5116    2.0316 C   0  0  0  0  0  0  0  0  0  0  0  0
   -6.3948   -5.4287    0.4092 N   0  0  0  0  0  0  0  0  0  0  0  0
   -6.7558   -5.0553   -0.9293 C   0  0  0  0  0  0  0  0  0  0  0  0
   -6.0239   -4.2618   -1.5758 O   0  0  0  0  0  0  0  0  0  0  0  0
   -7.8600   -5.7877   -1.6539 C   0  0  1  0  0  0  0  0  0  0  0  0
   -7.3902   -7.2183   -1.9373 C   0  0  0  0  0  0  0  0  0  0  0  0
   -9.1188   -5.7886   -0.8983 N   0  0  0  0  0  0  0  0  0  0  0  0
  -10.3496   -6.2978   -1.4506 C   0  0  0  0  0  0  0  0  0  0  0  0
  -10.3984   -6.6400   -2.6576 O   0  0  0  0  0  0  0  0  0  0  0  0
  -11.5694   -6.4785   -0.5833 C   0  0  1  0  0  0  0  0  0  0  0  0
  -11.3160   -7.6012    0.4302 C   0  0  0  0  0  0  0  0  0  0  0  0
  -11.8974   -5.2238    0.1109 N   0  0  0  0  0  0  0  0  0  0  0  0
  -12.0781   -3.9826   -0.5965 C   0  0  0  0  0  0  0  0  0  0  0  0
  -12.3700   -4.0167   -1.8207 O   0  0  0  0  0  0  0  0  0  0  0  0
  -11.8406   -2.6335    0.0615 C   0  0  1  0  0  0  0  0  0  0  0  0
  -11.4094   -2.7632    1.5263 C   0  0  0  0  0  0  0  0  0  0  0  0
  -10.8123   -1.9045   -0.6963 N   0  0  0  0  0  0  0  0  0  0  0  0
  -10.7762   -0.4796   -0.8646 C   0  0  0  0  0  0  0  0  0  0  0  0
  -10.1225   -0.0083   -1.8328 O   0  0  0  0  0  0  0  0  0  0  0  0
  -11.3356    0.4826    0.1684 C   0  0  1  0  0  0  0  0  0  0  0  0
  -10.2113    0.8918    1.1263 C   0  0  0  0  0  0  0  0  0  0  0  0
  -11.8952    1.6853   -0.4754 N   0  0  0  0  0  0  0  0  0  0  0  0
  -12.7679    2.5827    0.2350 C   0  0  0  0  0  0  0  0  0  0  0  0
  -13.2591    2.2355    1.3417 O   0  0  0  0  0  0  0  0  0  0  0  0
  -13.1277    3.9214   -0.3694 C   0  0  1  0  0  0  0  0  0  0  0  0
  -14.4977    3.8340   -1.0428 C   0  0  0  0  0  0  0  0  0  0  0  0
  -13.1442    4.9561    0.6737 N   0  0  0  0  0  0  0  0  0  0  0  0
  -12.0691    5.8674    0.9639 C   0  0  0  0  0  0  0  0  0  0  0  0
  -12.0773    6.4724    2.0673 O   0  0  0  0  0  0  0  0  0  0  0  0
  -10.9815    6.1838   -0.0436 C   0  0  1  0  0  0  0  0  0  0  0  0
  -11.5333    7.0921   -1.1449 C   0  0  0  0  0  0  0  0  0  0  0  0
   -9.8464    6.8516    0.6128 N   0  0  0  0  0  0  0  0  0  0  0  0
   -8.5141    6.7333    0.0953 C   0  0  0  0  0  0  0  0  0  0  0  0
   -8.0260    7.7020   -0.5468 O   0  0  0  0  0  0  0  0  0  0  0  0
   -7.6246    5.5548    0.4209 C   0  0  1  0  0  0  0  0  0  0  0  0
   -8.3838    4.3389    0.9665 C   0  0  0  0  0  0  0  0  0  0  0  0
   -6.8771    5.1672   -0.7757 N   0  0  0  0  0  0  0  0  0  0  0  0
   -5.4423    5.1735   -0.9090 C   0  0  0  0  0  0  0  0  0  0  0  0
   -4.9451    4.9173   -2.0404 O   0  0  0  0  0  0  0  0  0  0  0  0
    2.2444   -2.6546    0.6710 C   0  0  0  0  0  0  0  0  0  0  0  0
    2.5027   -1.5948    1.3188 O   0  0  0  0  0  0  0  0  0  0  0  0
    3.3294   -3.5672    0.3987 N   0  0  0  0  0  0  0  0  0  0  0  0
    3.2330   -4.7985   -0.4046 C   0  0  2  0  0  0  0  0  0  0  0  0
    2.5136   -5.9107    0.3745 C   0  0  0  0  0  0  0  0  0  0  0  0
    4.5931   -5.2677   -0.8933 C   0  0  0  0  0  0  0  0  0  0  0  0
    4.6669   -5.7738   -2.0469 O   0  0  0  0  0  0  0  0  0  0  0  0
    5.8043   -5.0893   -0.1362 N   0  0  0  0  0  0  0  0  0  0  0  0
    5.9405   -5.5013    1.2704 C   0  0  2  0  0  0  0  0  0  0  0  0
    7.0567   -4.7175    1.9658 C   0  0  0  0  0  0  0  0  0  0  0  0
    6.1271   -7.0012    1.3616 C   0  0  0  0  0  0  0  0  0  0  0  0
    5.1043   -7.7396    1.4017 O   0  0  0  0  0  0  0  0  0  0  0  0
    7.4200   -7.6221    1.4492 N   0  0  0  0  0  0  0  0  0  0  0  0
    8.5055   -7.3679    0.4971 C   0  0  2  0  0  0  0  0  0  0  0  0
    8.5196   -8.4615   -0.5675 C   0  0  0  0  0  0  0  0  0  0  0  0
    9.8229   -7.3298    1.2292 C   0  0  0  0  0  0  0  0  0  0  0  0
   10.1414   -8.3196    1.9471 O   0  0  0  0  0  0  0  0  0  0  0  0
   10.7110   -6.1968    1.1968 N   0  0  0  0  0  0  0  0  0  0  0  0
   10.8940   -5.2951    0.0492 C   0  0  2  0  0  0  0  0  0  0  0  0
   11.7632   -5.9985   -1.0009 C   0  0  0  0  0  0  0  0  0  0  0  0
   11.5520   -3.9962    0.4840 C   0  0  0  0  0  0  0  0  0  0  0  0
   11.7486   -3.7747    1.7076 O   0  0  0  0  0  0  0  0  0  0  0  0
   12.0254   -3.0283   -0.4712 N   0  0  0  0  0  0  0  0  0  0  0  0
   11.2523   -2.5730   -1.6303 C   0  0  2  0  0  0  0  0  0  0  0  0
   12.1732   -2.5451   -2.8526 C   0  0  0  0  0  0  0  0  0  0  0  0
   10.6900   -1.1953   -1.3839 C   0  0  0  0  0  0  0  0  0  0  0  0
    9.9704   -0.6480   -2.2672 O   0  0  0  0  0  0  0  0  0  0  0  0
   11.0052   -0.4863   -0.1794 N   0  0  0  0  0  0  0  0  0  0  0  0
   11.5894    0.8532   -0.1805 C   0  0  2  0  0  0  0  0  0  0  0  0
   12.7299    0.9293   -1.2084 C   0  0  0  0  0  0  0  0  0  0  0  0
   12.1355    1.1829    1.1932 C   0  0  0  0  0  0  0  0  0  0  0  0
   12.7066    0.2695    1.8517 O   0  0  0  0  0  0  0  0  0  0  0  0
   12.0444    2.4929    1.7850 N   0  0  0  0  0  0  0  0  0  0  0  0
   11.9843    3.7414    1.0193 C   0  0  2  0  0  0  0  0  0  0  0  0
   13.3947    4.3104    0.8389 C   0  0  0  0  0  0  0  0  0  0  0  0
   11.0936    4.7354    1.7411 C   0  0  0  0  0  0  0  0  0  0  0  0
   11.5272    5.2629    2.8018 O   0  0  0  0  0  0  0  0  0  0  0  0
    9.7640    5.0631    1.3030 N   0  0  0  0  0  0  0  0  0  0  0  0
    8.9960    4.3153    0.2964 C   0  0  2  0  0  0  0  0  0  0  0  0
    9.2550    4.8533   -1.1162 C   0  0  0  0  0  0  0  0  0  0  0  0
    7.5155    4.3127    0.6294 C   0  0  0  0  0  0  0  0  0  0  0  0
    6.9047    3.2029    0.5847 O   0  0  0  0  0  0  0  0  0  0  0  0
    6.7877    5.4855    1.0408 N   0  0  0  0  0  0  0  0  0  0  0  0
    7.0048    6.8342    0.5122 C   0  0  2  0  0  0  0  0  0  0  0  0
    6.5060    7.8767    1.5194 C   0  0  0  0  0  0  0  0  0  0  0  0
    6.2975    6.9837   -0.8059 C   0  0  0  0  0  0  0  0  0  0  0  0
    6.9601    7.1532   -1.8650 O   0  0  0  0  0  0  0  0  0  0  0  0
    4.8762    6.8635   -0.8796 N   0  0  0  0  0  0  0  0  0  0  0  0
    4.2593    5.6927   -1.5082 C   0  0  2  0  0  0  0  0  0  0  0  0
    4.2054    5.9083   -2.9970 C   0  0  0  0  0  0  0  0  0  0  0  0
    4.8871    5.0280   -3.8865 N   0  0  0  0  0  0  0  0  0  0  0  0
    3.5752    6.8992   -3.4625 O   0  0  0  0  0  0  0  0  0  0  0  0
    2.8556    5.4431   -0.9475 C   0  0  0  0  0  0  0  0  0  0  0  0
    2.9290    5.2189    0.8722 S   0  0  0  0  0  0  0  0  0  0  0  0
    3.0101    3.3905    0.8638 C   0  0  0  0  0  0  0  0  0  0  0  0
   -4.2376    9.2494    1.6341 H   0  0  0  0  0  0  0  0  0  0  0  0
   -3.1991    9.7356    0.2390 H   0  0  0  0  0  0  0  0  0  0  0  0
   -4.9915    9.9919    0.1698 H   0  0  0  0  0  0  0  0  0  0  0  0
   -4.8348    6.9675    1.7447 H   0  0  0  0  0  0  0  0  0  0  0  0
   -4.8472    4.7396    1.0913 H   0  0  0  0  0  0  0  0  0  0  0  0
   -2.6187    5.8140   -0.7436 H   0  0  0  0  0  0  0  0  0  0  0  0
   -2.9803    4.0757   -0.5390 H   0  0  0  0  0  0  0  0  0  0  0  0
   -1.8465    3.0750    2.8227 H   0  0  0  0  0  0  0  0  0  0  0  0
   -2.9031    2.7930    1.4060 H   0  0  0  0  0  0  0  0  0  0  0  0
    0.6649    3.8396    2.1914 H   0  0  0  0  0  0  0  0  0  0  0  0
    2.2995    1.6824   -1.1466 H   0  0  0  0  0  0  0  0  0  0  0  0
   -1.9165    1.5662   -0.3788 H   0  0  0  0  0  0  0  0  0  0  0  0
   -1.0305    0.2012   -2.1129 H   0  0  0  0  0  0  0  0  0  0  0  0
    0.3452    1.0161   -2.9228 H   0  0  0  0  0  0  0  0  0  0  0  0
   -0.8825   -1.7934   -0.5913 H   0  0  0  0  0  0  0  0  0  0  0  0
    0.1533   -0.8492    0.5122 H   0  0  0  0  0  0  0  0  0  0  0  0
    0.8030   -3.6450   -0.5864 H   0  0  0  0  0  0  0  0  0  0  0  0
    0.3687   -3.2168    2.3273 H   0  0  0  0  0  0  0  0  0  0  0  0
   -1.3481   -3.9989   -0.8955 H   0  0  0  0  0  0  0  0  0  0  0  0
   -2.2436   -6.6049    0.4459 H   0  0  0  0  0  0  0  0  0  0  0  0
   -2.4168   -6.2011   -1.3144 H   0  0  0  0  0  0  0  0  0  0  0  0
   -0.7886   -6.3210   -0.5669 H   0  0  0  0  0  0  0  0  0  0  0  0
   -3.3898   -3.0428   -0.4815 H   0  0  0  0  0  0  0  0  0  0  0  0
   -4.5222   -6.2645   -0.0648 H   0  0  0  0  0  0  0  0  0  0  0  0
   -3.8156   -6.6811    2.3086 H   0  0  0  0  0  0  0  0  0  0  0  0
   -5.3612   -7.5026    1.8697 H   0  0  0  0  0  0  0  0  0  0  0  0
   -5.3961   -6.0022    2.8778 H   0  0  0  0  0  0  0  0  0  0  0  0
   -7.1295   -5.8401    1.0230 H   0  0  0  0  0  0  0  0  0  0  0  0
   -8.0429   -5.2727   -2.6266 H   0  0  0  0  0  0  0  0  0  0  0  0
   -7.2708   -7.7847   -0.9923 H   0  0  0  0  0  0  0  0  0  0  0  0
   -6.4182   -7.1996   -2.4681 H   0  0  0  0  0  0  0  0  0  0  0  0
   -8.1185   -7.7463   -2.5854 H   0  0  0  0  0  0  0  0  0  0  0  0
   -9.1475   -5.4086    0.0766 H   0  0  0  0  0  0  0  0  0  0  0  0
  -12.4353   -6.7853   -1.2227 H   0  0  0  0  0  0  0  0  0  0  0  0
  -10.9759   -8.5212   -0.0832 H   0  0  0  0  0  0  0  0  0  0  0  0
  -10.5461   -7.2885    1.1674 H   0  0  0  0  0  0  0  0  0  0  0  0
  -12.2606   -7.8373    0.9777 H   0  0  0  0  0  0  0  0  0  0  0  0
  -12.1428   -5.2875    1.1308 H   0  0  0  0  0  0  0  0  0  0  0  0
  -12.8029   -2.0811    0.0307 H   0  0  0  0  0  0  0  0  0  0  0  0
  -12.2176   -3.2417    2.1251 H   0  0  0  0  0  0  0  0  0  0  0  0
  -11.2234   -1.7686    1.9686 H   0  0  0  0  0  0  0  0  0  0  0  0
  -10.4738   -3.3635    1.6077 H   0  0  0  0  0  0  0  0  0  0  0  0
  -10.0903   -2.4626   -1.2178 H   0  0  0  0  0  0  0  0  0  0  0  0
  -12.1470   -0.0177    0.7427 H   0  0  0  0  0  0  0  0  0  0  0  0
   -9.7012   -0.0038    1.5463 H   0  0  0  0  0  0  0  0  0  0  0  0
   -9.4638    1.4979    0.5805 H   0  0  0  0  0  0  0  0  0  0  0  0
  -10.6213    1.4946    1.9662 H   0  0  0  0  0  0  0  0  0  0  0  0
  -11.4300    2.0491   -1.3382 H   0  0  0  0  0  0  0  0  0  0  0  0
  -12.3978    4.1725   -1.1649 H   0  0  0  0  0  0  0  0  0  0  0  0
  -14.4584    3.1241   -1.8965 H   0  0  0  0  0  0  0  0  0  0  0  0
  -14.7829    4.8335   -1.4264 H   0  0  0  0  0  0  0  0  0  0  0  0
  -15.2732    3.4943   -0.3251 H   0  0  0  0  0  0  0  0  0  0  0  0
  -13.9231    4.9084    1.3727 H   0  0  0  0  0  0  0  0  0  0  0  0
  -10.6219    5.2540   -0.5151 H   0  0  0  0  0  0  0  0  0  0  0  0
  -11.8260    8.0801   -0.7299 H   0  0  0  0  0  0  0  0  0  0  0  0
  -10.7580    7.2490   -1.9235 H   0  0  0  0  0  0  0  0  0  0  0  0
  -12.4195    6.6272   -1.6247 H   0  0  0  0  0  0  0  0  0  0  0  0
  -10.0507    7.7255    1.1536 H   0  0  0  0  0  0  0  0  0  0  0  0
   -6.9461    5.8839    1.2306 H   0  0  0  0  0  0  0  0  0  0  0  0
   -9.0247    4.6265    1.8283 H   0  0  0  0  0  0  0  0  0  0  0  0
   -7.6575    3.5831    1.3250 H   0  0  0  0  0  0  0  0  0  0  0  0
   -9.0064    3.8690    0.1808 H   0  0  0  0  0  0  0  0  0  0  0  0
   -7.4313    4.9075   -1.6238 H   0  0  0  0  0  0  0  0  0  0  0  0
    4.2767   -3.2468    0.7059 H   0  0  0  0  0  0  0  0  0  0  0  0
    2.6344   -4.5813   -1.3176 H   0  0  0  0  0  0  0  0  0  0  0  0
    2.4605   -6.8351   -0.2394 H   0  0  0  0  0  0  0  0  0  0  0  0
    1.4760   -5.6090    0.6099 H   0  0  0  0  0  0  0  0  0  0  0  0
    3.0187   -6.1315    1.3303 H   0  0  0  0  0  0  0  0  0  0  0  0
    6.6807   -4.9565   -0.6980 H   0  0  0  0  0  0  0  0  0  0  0  0
    5.0138   -5.2455    1.8250 H   0  0  0  0  0  0  0  0  0  0  0  0
    7.9865   -4.6630    1.3519 H   0  0  0  0  0  0  0  0  0  0  0  0
    7.3015   -5.1708    2.9517 H   0  0  0  0  0  0  0  0  0  0  0  0
    6.7235   -3.6720    2.1450 H   0  0  0  0  0  0  0  0  0  0  0  0
    7.4728   -8.5165    1.9943 H   0  0  0  0  0  0  0  0  0  0  0  0
    8.3210   -6.4154   -0.0297 H   0  0  0  0  0  0  0  0  0  0  0  0
    9.3587   -8.3038   -1.2777 H   0  0  0  0  0  0  0  0  0  0  0  0
    8.6212   -9.4657   -0.1047 H   0  0  0  0  0  0  0  0  0  0  0  0
    7.5733   -8.4334   -1.1448 H   0  0  0  0  0  0  0  0  0  0  0  0
   11.5024   -6.2395    1.8851 H   0  0  0  0  0  0  0  0  0  0  0  0
    9.9184   -5.0423   -0.4018 H   0  0  0  0  0  0  0  0  0  0  0  0
   12.8205   -6.0608   -0.6576 H   0  0  0  0  0  0  0  0  0  0  0  0
   11.3968   -7.0273   -1.1854 H   0  0  0  0  0  0  0  0  0  0  0  0
   11.7276   -5.4480   -1.9631 H   0  0  0  0  0  0  0  0  0  0  0  0
   12.8464   -2.4463   -0.1820 H   0  0  0  0  0  0  0  0  0  0  0  0
   10.4105   -3.2734   -1.8422 H   0  0  0  0  0  0  0  0  0  0  0  0
   12.6473   -3.5368   -3.0013 H   0  0  0  0  0  0  0  0  0  0  0  0
   11.6048   -2.2905   -3.7746 H   0  0  0  0  0  0  0  0  0  0  0  0
   12.9827   -1.7918   -2.7157 H   0  0  0  0  0  0  0  0  0  0  0  0
   10.7113   -0.9353    0.7246 H   0  0  0  0  0  0  0  0  0  0  0  0
   10.7969    1.5697   -0.4759 H   0  0  0  0  0  0  0  0  0  0  0  0
   13.4872    0.1363   -0.9984 H   0  0  0  0  0  0  0  0  0  0  0  0
   13.2312    1.9241   -1.1744 H   0  0  0  0  0  0  0  0  0  0  0  0
   12.3410    0.7920   -2.2382 H   0  0  0  0  0  0  0  0  0  0  0  0
   12.3038    2.5663    2.7973 H   0  0  0  0  0  0  0  0  0  0  0  0
   11.5898    3.5514    0.0099 H   0  0  0  0  0  0  0  0  0  0  0  0
   13.8522    4.5630    1.8166 H   0  0  0  0  0  0  0  0  0  0  0  0
   14.0433    3.5674    0.3347 H   0  0  0  0  0  0  0  0  0  0  0  0
   13.3500    5.2264    0.2138 H   0  0  0  0  0  0  0  0  0  0  0  0
    9.2702    5.7823    1.8759 H   0  0  0  0  0  0  0  0  0  0  0  0
    9.3245    3.2529    0.3139 H   0  0  0  0  0  0  0  0  0  0  0  0
    8.5145    4.4296   -1.8283 H   0  0  0  0  0  0  0  0  0  0  0  0
    9.2098    5.9516   -1.1567 H   0  0  0  0  0  0  0  0  0  0  0  0
   10.2619    4.5554   -1.4724 H   0  0  0  0  0  0  0  0  0  0  0  0
    5.8796    5.3055    1.5272 H   0  0  0  0  0  0  0  0  0  0  0  0
    8.0911    7.0293    0.3785 H   0  0  0  0  0  0  0  0  0  0  0  0
    6.6601    8.9039    1.1144 H   0  0  0  0  0  0  0  0  0  0  0  0
    7.0879    7.7796    2.4622 H   0  0  0  0  0  0  0  0  0  0  0  0
    5.4259    7.7261    1.7450 H   0  0  0  0  0  0  0  0  0  0  0  0
    4.2854    7.6657   -0.5568 H   0  0  0  0  0  0  0  0  0  0  0  0
    4.8767    4.7920   -1.2775 H   0  0  0  0  0  0  0  0  0  0  0  0
    4.9184    5.2541   -4.9023 H   0  0  0  0  0  0  0  0  0  0  0  0
    5.3214    4.1412   -3.5536 H   0  0  0  0  0  0  0  0  0  0  0  0
    2.4102    4.5492   -1.4371 H   0  0  0  0  0  0  0  0  0  0  0  0
    2.1874    6.3046   -1.1729 H   0  0  0  0  0  0  0  0  0  0  0  0
    3.7633    3.0508    0.1165 H   0  0  0  0  0  0  0  0  0  0  0  0
    3.3498    3.0355    1.8598 H   0  0  0  0  0  0  0  0  0  0  0  0
  1  2  1  0
  2  3  2  0
  2  4  1  0
  4  5  1  0
  5  6  1  0
  6  7  1  0
  7  8  1  0
  8  9  1  0
  9 10  2  0
 10 11  1  0
 11 12  2  0
 12 13  1  0
 13 14  2  0
 13 15  1  0
 15 16  1  0
 16 17  1  0
 17 18  1  0
 18 19  1  0
 19 20  1  0
 20 21  2  0
 20 22  1  0
 22 23  1  0
 22 24  1  0
 24 25  1  0
 25 26  2  0
 25 27  1  0
 27 28  1  0
 27 29  1  0
 29 30  1  0
 30 31  2  0
 30 32  1  0
 32 33  1  0
 32 34  1  0
 34 35  1  0
 35 36  2  0
 35 37  1  0
 37 38  1  0
 37 39  1  0
 39 40  1  0
 40 41  2  0
 40 42  1  0
 42 43  1  0
 42 44  1  0
 44 45  1  0
 45 46  2  0
 45 47  1  0
 47 48  1  0
 47 49  1  0
 49 50  1  0
 50 51  2  0
 50 52  1  0
 52 53  1  0
 52 54  1  0
 54 55  1  0
 55 56  2  0
 55 57  1  0
 57 58  1  0
 57 59  1  0
 59 60  1  0
 60 61  2  0
 60 62  1  0
 62 63  1  0
 62 64  1  0
 64 65  1  0
 65 66  2  0
 18 67  1  0
 67 68  2  0
 67 69  1  0
 69 70  1  0
 70 71  1  0
 70 72  1  0
 72 73  2  0
 72 74  1  0
 74 75  1  0
 75 76  1  0
 75 77  1  0
 77 78  2  0
 77 79  1  0
 79 80  1  0
 80 81  1  0
 80 82  1  0
 82 83  2  0
 82 84  1  0
 84 85  1  0
 85 86  1  0
 85 87  1  0
 87 88  2  0
 87 89  1  0
 89 90  1  0
 90 91  1  0
 90 92  1  0
 92 93  2  0
 92 94  1  0
 94 95  1  0
 95 96  1  0
 95 97  1  0
 97 98  2  0
 97 99  1  0
 99100  1  0
100101  1  0
100102  1  0
102103  2  0
102104  1  0
104105  1  0
105106  1  0
105107  1  0
107108  2  0
107109  1  0
109110  1  0
110111  1  0
110112  1  0
112113  2  0
112114  1  0
114115  1  0
115116  1  0
116117  1  0
116118  2  0
115119  1  0
119120  1  0
120121  1  0
 65  5  1  0
 14  9  1  0
121 11  1  0
  1122  1  0
  1123  1  0
  1124  1  0
  4125  1  0
  5126  1  1
  6127  1  0
  6128  1  0
  8129  1  0
  8130  1  0
 10131  1  0
 12132  1  0
 14133  1  0
 15134  1  0
 15135  1  0
 17136  1  0
 17137  1  0
 18138  1  6
 19139  1  0
 22140  1  6
 23141  1  0
 23142  1  0
 23143  1  0
 24144  1  0
 27145  1  6
 28146  1  0
 28147  1  0
 28148  1  0
 29149  1  0
 32150  1  6
 33151  1  0
 33152  1  0
 33153  1  0
 34154  1  0
 37155  1  6
 38156  1  0
 38157  1  0
 38158  1  0
 39159  1  0
 42160  1  1
 43161  1  0
 43162  1  0
 43163  1  0
 44164  1  0
 47165  1  1
 48166  1  0
 48167  1  0
 48168  1  0
 49169  1  0
 52170  1  6
 53171  1  0
 53172  1  0
 53173  1  0
 54174  1  0
 57175  1  6
 58176  1  0
 58177  1  0
 58178  1  0
 59179  1  0
 62180  1  1
 63181  1  0
 63182  1  0
 63183  1  0
 64184  1  0
 69185  1  0
 70186  1  6
 71187  1  0
 71188  1  0
 71189  1  0
 74190  1  0
 75191  1  1
 76192  1  0
 76193  1  0
 76194  1  0
 79195  1  0
 80196  1  6
 81197  1  0
 81198  1  0
 81199  1  0
 84200  1  0
 85201  1  6
 86202  1  0
 86203  1  0
 86204  1  0
 89205  1  0
 90206  1  6
 91207  1  0
 91208  1  0
 91209  1  0
 94210  1  0
 95211  1  6
 96212  1  0
 96213  1  0
 96214  1  0
 99215  1  0
100216  1  6
101217  1  0
101218  1  0
101219  1  0
104220  1  0
105221  1  6
106222  1  0
106223  1  0
106224  1  0
109225  1  0
110226  1  6
111227  1  0
111228  1  0
111229  1  0
114230  1  0
115231  1  6
117232  1  0
117233  1  0
119234  1  0
119235  1  0
121236  1  0
121237  1  0
M  END
