
     RDKit          3D

187189  0  0  0  0  0  0  0  0999 V2000
    0.7472   10.7205   -1.3253 C   0  0  0  0  0  0  0  0  0  0  0  0
    0.3681    9.3811   -1.8887 C   0  0  0  0  0  0  0  0  0  0  0  0
    0.2988    9.2422   -3.1358 O   0  0  0  0  0  0  0  0  0  0  0  0
    0.0582    8.2604   -1.0456 N   0  0  0  0  0  0  0  0  0  0  0  0
    0.3487    8.2170    0.3922 C   0  0  2  0  0  0  0  0  0  0  0  0
    1.8216    7.7824    0.6138 C   0  0  0  0  0  0  0  0  0  0  0  0
    2.3504    6.3866   -0.4552 S   0  0  0  0  0  0  0  0  0  0  0  0
    1.9407    5.0104    0.6792 C   0  0  0  0  0  0  0  0  0  0  0  0
    3.0298    3.9749    0.6618 C   0  0  0  0  0  0  0  0  0  0  0  0
    4.3162    4.3267    1.0856 C   0  0  0  0  0  0  0  0  0  0  0  0
    5.3220    3.3611    1.1894 C   0  0  0  0  0  0  0  0  0  0  0  0
    5.0247    2.0217    0.8935 C   0  0  0  0  0  0  0  0  0  0  0  0
    3.7592    1.6592    0.3987 C   0  0  0  0  0  0  0  0  0  0  0  0
    2.7613    2.6442    0.2971 C   0  0  0  0  0  0  0  0  0  0  0  0
    3.4170    0.2146    0.1195 C   0  0  0  0  0  0  0  0  0  0  0  0
    4.8206   -0.7023   -0.6339 S   0  0  0  0  0  0  0  0  0  0  0  0
    4.1250   -2.3678   -0.3253 C   0  0  0  0  0  0  0  0  0  0  0  0
    4.4896   -2.8906    1.0765 C   0  0  1  0  0  0  0  0  0  0  0  0
    3.5457   -3.9275    1.5227 N   0  0  0  0  0  0  0  0  0  0  0  0
    3.0784   -4.9918    0.6742 C   0  0  0  0  0  0  0  0  0  0  0  0
    3.8562   -5.9275    0.3490 O   0  0  0  0  0  0  0  0  0  0  0  0
    1.6550   -5.0048    0.1835 C   0  0  1  0  0  0  0  0  0  0  0  0
    1.6160   -5.0133   -1.3466 C   0  0  0  0  0  0  0  0  0  0  0  0
    0.9472   -6.1830    0.7057 N   0  0  0  0  0  0  0  0  0  0  0  0
   -0.4827   -6.3013    0.5589 C   0  0  0  0  0  0  0  0  0  0  0  0
   -1.2010   -5.2723    0.6915 O   0  0  0  0  0  0  0  0  0  0  0  0
   -1.1534   -7.6011    0.1757 C   0  0  1  0  0  0  0  0  0  0  0  0
   -0.1795   -8.7734   -0.0186 C   0  0  0  0  0  0  0  0  0  0  0  0
   -2.1499   -7.9709    1.1878 N   0  0  0  0  0  0  0  0  0  0  0  0
   -3.4725   -8.4560    0.8940 C   0  0  0  0  0  0  0  0  0  0  0  0
   -4.0348   -9.2254    1.7204 O   0  0  0  0  0  0  0  0  0  0  0  0
   -4.2084   -8.0917   -0.3796 C   0  0  1  0  0  0  0  0  0  0  0  0
   -3.9232   -9.1370   -1.4662 C   0  0  0  0  0  0  0  0  0  0  0  0
   -5.6559   -8.0144   -0.1342 N   0  0  0  0  0  0  0  0  0  0  0  0
   -6.2752   -7.0690    0.7549 C   0  0  0  0  0  0  0  0  0  0  0  0
   -7.1527   -7.4889    1.5605 O   0  0  0  0  0  0  0  0  0  0  0  0
   -5.9732   -5.5884    0.7312 C   0  0  1  0  0  0  0  0  0  0  0  0
   -4.7253   -5.2547    1.5493 C   0  0  0  0  0  0  0  0  0  0  0  0
   -5.8443   -5.0951   -0.6468 N   0  0  0  0  0  0  0  0  0  0  0  0
   -6.7859   -4.2109   -1.2860 C   0  0  0  0  0  0  0  0  0  0  0  0
   -6.3393   -3.2832   -2.0123 O   0  0  0  0  0  0  0  0  0  0  0  0
   -8.2864   -4.4176   -1.2274 C   0  0  1  0  0  0  0  0  0  0  0  0
   -8.6650   -5.8340   -1.6678 C   0  0  0  0  0  0  0  0  0  0  0  0
   -8.8252   -4.1179    0.1041 N   0  0  0  0  0  0  0  0  0  0  0  0
   -8.9595   -2.7955    0.6541 C   0  0  0  0  0  0  0  0  0  0  0  0
   -9.2328   -2.6820    1.8804 O   0  0  0  0  0  0  0  0  0  0  0  0
   -8.8945   -1.5516   -0.2096 C   0  0  1  0  0  0  0  0  0  0  0  0
  -10.2482   -1.2869   -0.8774 C   0  0  0  0  0  0  0  0  0  0  0  0
   -8.4386   -0.3841    0.5568 N   0  0  0  0  0  0  0  0  0  0  0  0
   -9.3132    0.4289    1.3493 C   0  0  0  0  0  0  0  0  0  0  0  0
   -9.7280    0.0035    2.4618 O   0  0  0  0  0  0  0  0  0  0  0  0
   -9.6929    1.8047    0.8701 C   0  0  1  0  0  0  0  0  0  0  0  0
  -11.1794    2.0808    1.1163 C   0  0  0  0  0  0  0  0  0  0  0  0
   -8.8754    2.8079    1.5509 N   0  0  0  0  0  0  0  0  0  0  0  0
   -7.7843    3.4508    0.8841 C   0  0  0  0  0  0  0  0  0  0  0  0
   -6.6135    3.0329    1.0890 O   0  0  0  0  0  0  0  0  0  0  0  0
   -7.9863    4.6543   -0.0052 C   0  0  1  0  0  0  0  0  0  0  0  0
   -9.4638    4.9928   -0.2373 C   0  0  0  0  0  0  0  0  0  0  0  0
   -7.3139    5.8097    0.5905 N   0  0  0  0  0  0  0  0  0  0  0  0
   -6.6059    6.7568   -0.2140 C   0  0  0  0  0  0  0  0  0  0  0  0
   -7.1850    7.8252   -0.5527 O   0  0  0  0  0  0  0  0  0  0  0  0
   -5.1457    6.5445   -0.5478 C   0  0  1  0  0  0  0  0  0  0  0  0
   -4.9323    5.2844   -1.3886 C   0  0  0  0  0  0  0  0  0  0  0  0
   -4.6203    7.6979   -1.2865 N   0  0  0  0  0  0  0  0  0  0  0  0
   -3.3519    8.3398   -1.0557 C   0  0  0  0  0  0  0  0  0  0  0  0
   -2.7195    8.7774   -2.0536 O   0  0  0  0  0  0  0  0  0  0  0  0
   -2.7623    8.5905    0.3203 C   0  0  1  0  0  0  0  0  0  0  0  0
   -3.8093    9.0852    1.3265 C   0  0  0  0  0  0  0  0  0  0  0  0
   -2.0653    7.4033    0.8294 N   0  0  0  0  0  0  0  0  0  0  0  0
   -0.6596    7.3443    1.1146 C   0  0  0  0  0  0  0  0  0  0  0  0
   -0.2745    6.5654    2.0305 O   0  0  0  0  0  0  0  0  0  0  0  0
    5.9244   -3.3608    1.1400 C   0  0  0  0  0  0  0  0  0  0  0  0
    6.7853   -2.6500    1.7275 O   0  0  0  0  0  0  0  0  0  0  0  0
    6.3294   -4.6002    0.5568 N   0  0  0  0  0  0  0  0  0  0  0  0
    7.1391   -4.6513   -0.6607 C   0  0  2  0  0  0  0  0  0  0  0  0
    6.4723   -5.5772   -1.6801 C   0  0  0  0  0  0  0  0  0  0  0  0
    8.5228   -5.1678   -0.3434 C   0  0  0  0  0  0  0  0  0  0  0  0
    8.6432   -6.2377    0.3140 O   0  0  0  0  0  0  0  0  0  0  0  0
    9.7019   -4.5486   -0.8724 N   0  0  0  0  0  0  0  0  0  0  0  0
    9.9835   -3.1136   -0.7594 C   0  0  2  0  0  0  0  0  0  0  0  0
   10.7771   -2.6667   -1.9933 C   0  0  0  0  0  0  0  0  0  0  0  0
   10.7427   -2.8413    0.5186 C   0  0  0  0  0  0  0  0  0  0  0  0
   11.4191   -3.7668    1.0458 O   0  0  0  0  0  0  0  0  0  0  0  0
   10.6569   -1.5818    1.2015 N   0  0  0  0  0  0  0  0  0  0  0  0
   10.8694   -0.2989    0.5220 C   0  0  2  0  0  0  0  0  0  0  0  0
   11.4774    0.7231    1.4885 C   0  0  0  0  0  0  0  0  0  0  0  0
    9.5848    0.2367   -0.0457 C   0  0  0  0  0  0  0  0  0  0  0  0
    8.4705   -0.2359    0.3104 O   0  0  0  0  0  0  0  0  0  0  0  0
    9.6216    1.3270   -0.9657 N   0  0  0  0  0  0  0  0  0  0  0  0
    9.3654    2.6889   -0.5069 C   0  0  1  0  0  0  0  0  0  0  0  0
   10.3626    3.6357   -1.1224 C   0  0  0  0  0  0  0  0  0  0  0  0
   11.2252    4.4179   -0.2967 N   0  0  0  0  0  0  0  0  0  0  0  0
   10.4297    3.7556   -2.3770 O   0  0  0  0  0  0  0  0  0  0  0  0
    7.9303    3.0993   -0.8620 C   0  0  0  0  0  0  0  0  0  0  0  0
    7.4556    4.6174    0.0454 S   0  0  0  0  0  0  0  0  0  0  0  0
    6.7297    3.7832    1.5043 C   0  0  0  0  0  0  0  0  0  0  0  0
    0.9354   11.4429   -2.1489 H   0  0  0  0  0  0  0  0  0  0  0  0
    1.6724   10.6372   -0.7179 H   0  0  0  0  0  0  0  0  0  0  0  0
   -0.0786   11.1084   -0.6938 H   0  0  0  0  0  0  0  0  0  0  0  0
   -0.2493    7.3749   -1.5086 H   0  0  0  0  0  0  0  0  0  0  0  0
    0.2339    9.2286    0.8249 H   0  0  0  0  0  0  0  0  0  0  0  0
    2.0298    7.5907    1.6873 H   0  0  0  0  0  0  0  0  0  0  0  0
    2.4696    8.6397    0.3438 H   0  0  0  0  0  0  0  0  0  0  0  0
    1.8527    5.3528    1.7261 H   0  0  0  0  0  0  0  0  0  0  0  0
    0.9646    4.5819    0.3709 H   0  0  0  0  0  0  0  0  0  0  0  0
    4.5423    5.3585    1.3177 H   0  0  0  0  0  0  0  0  0  0  0  0
    5.7933    1.2703    1.0285 H   0  0  0  0  0  0  0  0  0  0  0  0
    1.7666    2.3675   -0.0412 H   0  0  0  0  0  0  0  0  0  0  0  0
    3.1007   -0.2537    1.0739 H   0  0  0  0  0  0  0  0  0  0  0  0
    2.5603    0.1570   -0.5882 H   0  0  0  0  0  0  0  0  0  0  0  0
    3.0228   -2.3246   -0.4373 H   0  0  0  0  0  0  0  0  0  0  0  0
    4.5072   -3.0641   -1.1048 H   0  0  0  0  0  0  0  0  0  0  0  0
    4.3944   -2.0389    1.7875 H   0  0  0  0  0  0  0  0  0  0  0  0
    2.9466   -3.6963    2.3480 H   0  0  0  0  0  0  0  0  0  0  0  0
    1.1482   -4.0807    0.5438 H   0  0  0  0  0  0  0  0  0  0  0  0
    2.0646   -5.9507   -1.7421 H   0  0  0  0  0  0  0  0  0  0  0  0
    2.1762   -4.1468   -1.7598 H   0  0  0  0  0  0  0  0  0  0  0  0
    0.5661   -4.9471   -1.7034 H   0  0  0  0  0  0  0  0  0  0  0  0
    1.5098   -7.0366    0.9144 H   0  0  0  0  0  0  0  0  0  0  0  0
   -1.6355   -7.4182   -0.8041 H   0  0  0  0  0  0  0  0  0  0  0  0
    0.3098   -9.0395    0.9425 H   0  0  0  0  0  0  0  0  0  0  0  0
   -0.7322   -9.6643   -0.3800 H   0  0  0  0  0  0  0  0  0  0  0  0
    0.5916   -8.5181   -0.7779 H   0  0  0  0  0  0  0  0  0  0  0  0
   -1.8071   -8.0912    2.1676 H   0  0  0  0  0  0  0  0  0  0  0  0
   -3.8536   -7.1119   -0.7554 H   0  0  0  0  0  0  0  0  0  0  0  0
   -4.3967   -8.8270   -2.4242 H   0  0  0  0  0  0  0  0  0  0  0  0
   -2.8361   -9.2492   -1.6406 H   0  0  0  0  0  0  0  0  0  0  0  0
   -4.3368  -10.1276   -1.1730 H   0  0  0  0  0  0  0  0  0  0  0  0
   -6.2424   -8.8352   -0.4048 H   0  0  0  0  0  0  0  0  0  0  0  0
   -6.8057   -5.0625    1.2368 H   0  0  0  0  0  0  0  0  0  0  0  0
   -3.8065   -5.6395    1.0653 H   0  0  0  0  0  0  0  0  0  0  0  0
   -4.8052   -5.6878    2.5693 H   0  0  0  0  0  0  0  0  0  0  0  0
   -4.6275   -4.1506    1.6463 H   0  0  0  0  0  0  0  0  0  0  0  0
   -4.9086   -5.1691   -1.1054 H   0  0  0  0  0  0  0  0  0  0  0  0
   -8.7667   -3.7426   -1.9682 H   0  0  0  0  0  0  0  0  0  0  0  0
   -8.3092   -6.5918   -0.9418 H   0  0  0  0  0  0  0  0  0  0  0  0
   -8.2278   -6.0590   -2.6650 H   0  0  0  0  0  0  0  0  0  0  0  0
   -9.7702   -5.9197   -1.7452 H   0  0  0  0  0  0  0  0  0  0  0  0
   -9.0791   -4.9186    0.7291 H   0  0  0  0  0  0  0  0  0  0  0  0
   -8.1561   -1.7137   -1.0154 H   0  0  0  0  0  0  0  0  0  0  0  0
  -11.0451   -1.1631   -0.1159 H   0  0  0  0  0  0  0  0  0  0  0  0
  -10.5214   -2.1353   -1.5386 H   0  0  0  0  0  0  0  0  0  0  0  0
  -10.1882   -0.3661   -1.4931 H   0  0  0  0  0  0  0  0  0  0  0  0
   -7.4645   -0.0314    0.3943 H   0  0  0  0  0  0  0  0  0  0  0  0
   -9.5136    1.8495   -0.2283 H   0  0  0  0  0  0  0  0  0  0  0  0
  -11.7970    1.2436    0.7185 H   0  0  0  0  0  0  0  0  0  0  0  0
  -11.3779    2.1933    2.2034 H   0  0  0  0  0  0  0  0  0  0  0  0
  -11.4862    3.0098    0.5981 H   0  0  0  0  0  0  0  0  0  0  0  0
   -8.8983    2.8440    2.5955 H   0  0  0  0  0  0  0  0  0  0  0  0
   -7.5485    4.4260   -1.0000 H   0  0  0  0  0  0  0  0  0  0  0  0
   -9.9553    4.1813   -0.8153 H   0  0  0  0  0  0  0  0  0  0  0  0
   -9.9925    5.1440    0.7273 H   0  0  0  0  0  0  0  0  0  0  0  0
   -9.5454    5.9247   -0.8387 H   0  0  0  0  0  0  0  0  0  0  0  0
   -7.6331    6.1298    1.5327 H   0  0  0  0  0  0  0  0  0  0  0  0
   -4.6104    6.3983    0.4004 H   0  0  0  0  0  0  0  0  0  0  0  0
   -5.1847    4.3778   -0.8029 H   0  0  0  0  0  0  0  0  0  0  0  0
   -5.5529    5.3182   -2.3099 H   0  0  0  0  0  0  0  0  0  0  0  0
   -3.8650    5.2045   -1.6800 H   0  0  0  0  0  0  0  0  0  0  0  0
   -5.0816    7.9134   -2.2002 H   0  0  0  0  0  0  0  0  0  0  0  0
   -2.0415    9.4287    0.2163 H   0  0  0  0  0  0  0  0  0  0  0  0
   -4.5571    8.3067    1.5679 H   0  0  0  0  0  0  0  0  0  0  0  0
   -4.3343    9.9756    0.9211 H   0  0  0  0  0  0  0  0  0  0  0  0
   -3.3012    9.3784    2.2678 H   0  0  0  0  0  0  0  0  0  0  0  0
   -2.6334    6.6002    1.1773 H   0  0  0  0  0  0  0  0  0  0  0  0
    6.1797   -5.4751    1.1049 H   0  0  0  0  0  0  0  0  0  0  0  0
    7.1873   -3.6425   -1.1242 H   0  0  0  0  0  0  0  0  0  0  0  0
    7.0705   -5.6014   -2.6151 H   0  0  0  0  0  0  0  0  0  0  0  0
    6.3865   -6.6079   -1.2776 H   0  0  0  0  0  0  0  0  0  0  0  0
    5.4576   -5.2025   -1.9275 H   0  0  0  0  0  0  0  0  0  0  0  0
   10.5195   -5.1786   -1.0482 H   0  0  0  0  0  0  0  0  0  0  0  0
    9.0357   -2.5401   -0.7364 H   0  0  0  0  0  0  0  0  0  0  0  0
   10.7846   -1.5611   -2.0843 H   0  0  0  0  0  0  0  0  0  0  0  0
   10.2961   -3.0660   -2.9124 H   0  0  0  0  0  0  0  0  0  0  0  0
   11.8203   -3.0416   -1.9495 H   0  0  0  0  0  0  0  0  0  0  0  0
   10.7493   -1.6115    2.2431 H   0  0  0  0  0  0  0  0  0  0  0  0
   11.6016   -0.4370   -0.2996 H   0  0  0  0  0  0  0  0  0  0  0  0
   10.7649    0.9612    2.3075 H   0  0  0  0  0  0  0  0  0  0  0  0
   11.7399    1.6584    0.9496 H   0  0  0  0  0  0  0  0  0  0  0  0
   12.4118    0.3158    1.9328 H   0  0  0  0  0  0  0  0  0  0  0  0
    9.5878    1.1156   -1.9903 H   0  0  0  0  0  0  0  0  0  0  0  0
    9.4691    2.7244    0.6001 H   0  0  0  0  0  0  0  0  0  0  0  0
   11.8455    5.1416   -0.7210 H   0  0  0  0  0  0  0  0  0  0  0  0
   11.2180    4.3126    0.7412 H   0  0  0  0  0  0  0  0  0  0  0  0
    7.2333    2.2713   -0.6340 H   0  0  0  0  0  0  0  0  0  0  0  0
    7.8442    3.2908   -1.9511 H   0  0  0  0  0  0  0  0  0  0  0  0
    7.3559    2.9253    1.8269 H   0  0  0  0  0  0  0  0  0  0  0  0
    6.7140    4.5045    2.3437 H   0  0  0  0  0  0  0  0  0  0  0  0
  1  2  1  0
  2  3  2  0
  2  4  1  0
  4  5  1  0
  5  6  1  0
  6  7  1  0
  7  8  1  0
  8  9  1  0
  9 10  2  0
 10 11  1  0
 11 12  2  0
 12 13  1  0
 13 14  2  0
 13 15  1  0
 15 16  1  0
 16 17  1  0
 17 18  1  0
 18 19  1  0
 19 20  1  0
 20 21  2  0
 20 22  1  0
 22 23  1  0
 22 24  1  0
 24 25  1  0
 25 26  2  0
 25 27  1  0
 27 28  1  0
 27 29  1  0
 29 30  1  0
 30 31  2  0
 30 32  1  0
 32 33  1  0
 32 34  1  0
 34 35  1  0
 35 36  2  0
 35 37  1  0
 37 38  1  0
 37 39  1  0
 39 40  1  0
 40 41  2  0
 40 42  1  0
 42 43  1  0
 42 44  1  0
 44 45  1  0
 45 46  2  0
 45 47  1  0
 47 48  1  0
 47 49  1  0
 49 50  1  0
 50 51  2  0
 50 52  1  0
 52 53  1  0
 52 54  1  0
 54 55  1  0
 55 56  2  0
 55 57  1  0
 57 58  1  0
 57 59  1  0
 59 60  1  0
 60 61  2  0
 60 62  1  0
 62 63  1  0
 62 64  1  0
 64 65  1  0
 65 66  2  0
 65 67  1  0
 67 68  1  0
 67 69  1  0
 69 70  1  0
 70 71  2  0
 18 72  1  0
 72 73  2  0
 72 74  1  0
 74 75  1  0
 75 76  1  0
 75 77  1  0
 77 78  2  0
 77 79  1  0
 79 80  1  0
 80 81  1  0
 80 82  1  0
 82 83  2  0
 82 84  1  0
 84 85  1  0
 85 86  1  0
 85 87  1  0
 87 88  2  0
 87 89  1  0
 89 90  1  0
 90 91  1  0
 91 92  1  0
 91 93  2  0
 90 94  1  0
 94 95  1  0
 95 96  1  0
 70  5  1  0
 14  9  1  0
 96 11  1  0
  1 97  1  0
  1 98  1  0
  1 99  1  0
  4100  1  0
  5101  1  1
  6102  1  0
  6103  1  0
  8104  1  0
  8105  1  0
 10106  1  0
 12107  1  0
 14108  1  0
 15109  1  0
 15110  1  0
 17111  1  0
 17112  1  0
 18113  1  1
 19114  1  0
 22115  1  1
 23116  1  0
 23117  1  0
 23118  1  0
 24119  1  0
 27120  1  6
 28121  1  0
 28122  1  0
 28123  1  0
 29124  1  0
 32125  1  6
 33126  1  0
 33127  1  0
 33128  1  0
 34129  1  0
 37130  1  1
 38131  1  0
 38132  1  0
 38133  1  0
 39134  1  0
 42135  1  6
 43136  1  0
 43137  1  0
 43138  1  0
 44139  1  0
 47140  1  6
 48141  1  0
 48142  1  0
 48143  1  0
 49144  1  0
 52145  1  6
 53146  1  0
 53147  1  0
 53148  1  0
 54149  1  0
 57150  1  6
 58151  1  0
 58152  1  0
 58153  1  0
 59154  1  0
 62155  1  1
 63156  1  0
 63157  1  0
 63158  1  0
 64159  1  0
 67160  1  6
 68161  1  0
 68162  1  0
 68163  1  0
 69164  1  0
 74165  1  0
 75166  1  6
 76167  1  0
 76168  1  0
 76169  1  0
 79170  1  0
 80171  1  1
 81172  1  0
 81173  1  0
 81174  1  0
 84175  1  0
 85176  1  6
 86177  1  0
 86178  1  0
 86179  1  0
 89180  1  0
 90181  1  1
 92182  1  0
 92183  1  0
 94184  1  0
 94185  1  0
 96186  1  0
 96187  1  0
M  END
