
     RDKit          3D

247249  0  0  0  0  0  0  0  0999 V2000
   -4.6735   -8.6980    1.5427 C   0  0  0  0  0  0  0  0  0  0  0  0
   -4.4558   -7.8575    0.3279 C   0  0  0  0  0  0  0  0  0  0  0  0
   -3.9662   -8.3882   -0.7097 O   0  0  0  0  0  0  0  0  0  0  0  0
   -4.8002   -6.4612    0.3366 N   0  0  0  0  0  0  0  0  0  0  0  0
   -4.7234   -5.6124   -0.8555 C   0  0  2  0  0  0  0  0  0  0  0  0
   -5.0268   -4.1344   -0.5194 C   0  0  0  0  0  0  0  0  0  0  0  0
   -3.5748   -3.3566    0.2874 S   0  0  0  0  0  0  0  0  0  0  0  0
   -2.9001   -2.5808   -1.2259 C   0  0  0  0  0  0  0  0  0  0  0  0
   -1.4117   -2.4492   -1.1105 C   0  0  0  0  0  0  0  0  0  0  0  0
   -0.5871   -3.5243   -1.4769 C   0  0  0  0  0  0  0  0  0  0  0  0
    0.8082   -3.3963   -1.4582 C   0  0  0  0  0  0  0  0  0  0  0  0
    1.3820   -2.1734   -1.0827 C   0  0  0  0  0  0  0  0  0  0  0  0
    0.5672   -1.0785   -0.7321 C   0  0  0  0  0  0  0  0  0  0  0  0
   -0.8280   -1.2345   -0.7278 C   0  0  0  0  0  0  0  0  0  0  0  0
    1.1715    0.2537   -0.4033 C   0  0  0  0  0  0  0  0  0  0  0  0
    0.7051    1.4723   -1.6913 S   0  0  0  0  0  0  0  0  0  0  0  0
    0.5127    2.9206   -0.5848 C   0  0  0  0  0  0  0  0  0  0  0  0
   -0.8640    2.9310    0.1220 C   0  0  2  0  0  0  0  0  0  0  0  0
   -1.9633    2.7895   -0.8399 N   0  0  0  0  0  0  0  0  0  0  0  0
   -2.1504    3.6168   -1.9975 C   0  0  0  0  0  0  0  0  0  0  0  0
   -2.1262    3.0832   -3.1404 O   0  0  0  0  0  0  0  0  0  0  0  0
   -2.4508    5.0883   -1.8743 C   0  0  1  0  0  0  0  0  0  0  0  0
   -1.3766    5.9284   -2.5674 C   0  0  0  0  0  0  0  0  0  0  0  0
   -3.7608    5.3740   -2.4670 N   0  0  0  0  0  0  0  0  0  0  0  0
   -4.7643    6.1603   -1.8016 C   0  0  0  0  0  0  0  0  0  0  0  0
   -5.3766    7.0416   -2.4706 O   0  0  0  0  0  0  0  0  0  0  0  0
   -5.0319    6.0072   -0.3132 C   0  0  1  0  0  0  0  0  0  0  0  0
   -4.5100    7.2151    0.4666 C   0  0  0  0  0  0  0  0  0  0  0  0
   -6.4468    5.7487   -0.0039 N   0  0  0  0  0  0  0  0  0  0  0  0
   -7.4892    6.7279   -0.1507 C   0  0  0  0  0  0  0  0  0  0  0  0
   -7.6402    7.3365   -1.2407 O   0  0  0  0  0  0  0  0  0  0  0  0
   -8.3817    7.0450    1.0239 C   0  0  1  0  0  0  0  0  0  0  0  0
   -9.3766    8.1873    0.7545 C   0  0  0  0  0  0  0  0  0  0  0  0
   -9.0633    5.8410    1.5193 N   0  0  0  0  0  0  0  0  0  0  0  0
  -10.2726    5.3059    0.9571 C   0  0  0  0  0  0  0  0  0  0  0  0
  -11.2191    5.0310    1.7386 O   0  0  0  0  0  0  0  0  0  0  0  0
  -10.3924    4.9988   -0.5203 C   0  0  1  0  0  0  0  0  0  0  0  0
   -9.6029    3.7426   -0.9038 C   0  0  0  0  0  0  0  0  0  0  0  0
  -11.7974    4.9348   -0.9620 N   0  0  0  0  0  0  0  0  0  0  0  0
  -12.6328    3.7605   -0.9770 C   0  0  0  0  0  0  0  0  0  0  0  0
  -13.3842    3.5704   -1.9723 O   0  0  0  0  0  0  0  0  0  0  0  0
  -12.7869    2.8648    0.2274 C   0  0  1  0  0  0  0  0  0  0  0  0
  -13.8549    3.4244    1.1673 C   0  0  0  0  0  0  0  0  0  0  0  0
  -13.1718    1.5099   -0.1819 N   0  0  0  0  0  0  0  0  0  0  0  0
  -12.3462    0.3722    0.1073 C   0  0  0  0  0  0  0  0  0  0  0  0
  -11.1008    0.4391   -0.0682 O   0  0  0  0  0  0  0  0  0  0  0  0
  -12.9599   -0.8920    0.6586 C   0  0  1  0  0  0  0  0  0  0  0  0
  -13.6921   -0.5644    1.9638 C   0  0  0  0  0  0  0  0  0  0  0  0
  -13.8783   -1.4777   -0.3316 N   0  0  0  0  0  0  0  0  0  0  0  0
  -14.3707   -2.8340   -0.3267 C   0  0  0  0  0  0  0  0  0  0  0  0
  -15.0413   -3.2340   -1.3179 O   0  0  0  0  0  0  0  0  0  0  0  0
  -14.1596   -3.7775    0.8327 C   0  0  1  0  0  0  0  0  0  0  0  0
  -15.4466   -3.8678    1.6622 C   0  0  0  0  0  0  0  0  0  0  0  0
  -13.7963   -5.1128    0.3493 N   0  0  0  0  0  0  0  0  0  0  0  0
  -12.4526   -5.6236    0.3475 C   0  0  0  0  0  0  0  0  0  0  0  0
  -12.2770   -6.8625    0.5003 O   0  0  0  0  0  0  0  0  0  0  0  0
  -11.2455   -4.7295    0.1853 C   0  0  1  0  0  0  0  0  0  0  0  0
  -10.6197   -4.4602    1.5653 C   0  0  0  0  0  0  0  0  0  0  0  0
  -10.2791   -5.3843   -0.7099 N   0  0  0  0  0  0  0  0  0  0  0  0
   -8.8766   -5.0783   -0.7210 C   0  0  0  0  0  0  0  0  0  0  0  0
   -8.5019   -3.8753   -0.7658 O   0  0  0  0  0  0  0  0  0  0  0  0
   -7.8381   -6.1712   -0.6215 C   0  0  1  0  0  0  0  0  0  0  0  0
   -8.4581   -7.5486   -0.3367 C   0  0  0  0  0  0  0  0  0  0  0  0
   -7.0581   -6.2359   -1.8595 N   0  0  0  0  0  0  0  0  0  0  0  0
   -5.6253   -6.1253   -1.9653 C   0  0  0  0  0  0  0  0  0  0  0  0
   -5.0835   -6.4664   -3.0523 O   0  0  0  0  0  0  0  0  0  0  0  0
   -1.0831    4.1338    1.0109 C   0  0  0  0  0  0  0  0  0  0  0  0
   -2.0407    4.1109    1.8370 O   0  0  0  0  0  0  0  0  0  0  0  0
   -0.2881    5.3183    0.9043 N   0  0  0  0  0  0  0  0  0  0  0  0
    0.9850    5.4400    1.6284 C   0  0  2  0  0  0  0  0  0  0  0  0
    0.7462    6.1200    2.9805 C   0  0  0  0  0  0  0  0  0  0  0  0
    1.9901    6.2080    0.8051 C   0  0  0  0  0  0  0  0  0  0  0  0
    1.6918    6.6205   -0.3500 O   0  0  0  0  0  0  0  0  0  0  0  0
    3.2922    6.4783    1.3317 N   0  0  0  0  0  0  0  0  0  0  0  0
    4.5005    5.9350    0.7019 C   0  0  2  0  0  0  0  0  0  0  0  0
    4.3469    4.4287    0.4290 C   0  0  0  0  0  0  0  0  0  0  0  0
    5.7217    6.1782    1.5573 C   0  0  0  0  0  0  0  0  0  0  0  0
    5.6221    6.7110    2.6966 O   0  0  0  0  0  0  0  0  0  0  0  0
    7.0147    5.8053    1.0687 N   0  0  0  0  0  0  0  0  0  0  0  0
    8.0350    6.7611    0.6287 C   0  0  2  0  0  0  0  0  0  0  0  0
    7.4431    8.1415    0.2837 C   0  0  0  0  0  0  0  0  0  0  0  0
    8.7537    6.2210   -0.5894 C   0  0  0  0  0  0  0  0  0  0  0  0
    8.2140    5.2886   -1.2542 O   0  0  0  0  0  0  0  0  0  0  0  0
   10.0315    6.7231   -1.0179 N   0  0  0  0  0  0  0  0  0  0  0  0
   10.9845    7.4020   -0.1292 C   0  0  2  0  0  0  0  0  0  0  0  0
   11.8659    8.3382   -0.9639 C   0  0  0  0  0  0  0  0  0  0  0  0
   11.8377    6.3920    0.6129 C   0  0  0  0  0  0  0  0  0  0  0  0
   12.8275    6.7855    1.2860 O   0  0  0  0  0  0  0  0  0  0  0  0
   11.4900    5.0040    0.6010 N   0  0  0  0  0  0  0  0  0  0  0  0
   12.4506    3.8957    0.4714 C   0  0  2  0  0  0  0  0  0  0  0  0
   13.7021    4.2962   -0.3213 C   0  0  0  0  0  0  0  0  0  0  0  0
   11.7581    2.7480   -0.2161 C   0  0  0  0  0  0  0  0  0  0  0  0
   11.2880    2.9138   -1.3737 O   0  0  0  0  0  0  0  0  0  0  0  0
   11.5184    1.5147    0.4690 N   0  0  0  0  0  0  0  0  0  0  0  0
   12.5142    0.4491    0.6169 C   0  0  2  0  0  0  0  0  0  0  0  0
   13.6336    0.8503    1.5776 C   0  0  0  0  0  0  0  0  0  0  0  0
   13.0772    0.0339   -0.7244 C   0  0  0  0  0  0  0  0  0  0  0  0
   13.6619    0.8925   -1.4425 O   0  0  0  0  0  0  0  0  0  0  0  0
   12.9374   -1.3010   -1.2338 N   0  0  0  0  0  0  0  0  0  0  0  0
   13.0514   -2.5136   -0.4141 C   0  0  2  0  0  0  0  0  0  0  0  0
   14.4501   -3.1165   -0.5837 C   0  0  0  0  0  0  0  0  0  0  0  0
   11.9895   -3.4971   -0.8404 C   0  0  0  0  0  0  0  0  0  0  0  0
   11.9745   -3.9271   -2.0235 O   0  0  0  0  0  0  0  0  0  0  0  0
   10.9330   -3.8761    0.0514 N   0  0  0  0  0  0  0  0  0  0  0  0
   11.0846   -4.8935    1.0986 C   0  0  2  0  0  0  0  0  0  0  0  0
   11.7761   -4.2972    2.3325 C   0  0  0  0  0  0  0  0  0  0  0  0
   11.8158   -6.1124    0.5653 C   0  0  0  0  0  0  0  0  0  0  0  0
   13.0543   -6.2318    0.7805 O   0  0  0  0  0  0  0  0  0  0  0  0
   11.1624   -7.1084   -0.2299 N   0  0  0  0  0  0  0  0  0  0  0  0
    9.7110   -7.3259   -0.2882 C   0  0  2  0  0  0  0  0  0  0  0  0
    9.4218   -8.7692   -0.7175 C   0  0  0  0  0  0  0  0  0  0  0  0
    9.0736   -6.3589   -1.2563 C   0  0  0  0  0  0  0  0  0  0  0  0
    9.7422   -5.9483   -2.2410 O   0  0  0  0  0  0  0  0  0  0  0  0
    7.7327   -5.8631   -1.0643 N   0  0  0  0  0  0  0  0  0  0  0  0
    6.6523   -6.6151   -0.4194 C   0  0  2  0  0  0  0  0  0  0  0  0
    5.8765   -7.3944   -1.4895 C   0  0  0  0  0  0  0  0  0  0  0  0
    5.7966   -5.6587    0.3897 C   0  0  0  0  0  0  0  0  0  0  0  0
    6.3727   -4.9541    1.2670 O   0  0  0  0  0  0  0  0  0  0  0  0
    4.3857   -5.4552    0.1713 N   0  0  0  0  0  0  0  0  0  0  0  0
    3.3666   -6.4809    0.4650 C   0  0  1  0  0  0  0  0  0  0  0  0
    3.6153   -7.0794    1.8276 C   0  0  0  0  0  0  0  0  0  0  0  0
    3.4962   -6.2845    3.0084 N   0  0  0  0  0  0  0  0  0  0  0  0
    3.9166   -8.3013    1.9259 O   0  0  0  0  0  0  0  0  0  0  0  0
    1.9344   -5.9006    0.3787 C   0  0  0  0  0  0  0  0  0  0  0  0
    1.2205   -6.1410   -1.2905 S   0  0  0  0  0  0  0  0  0  0  0  0
    1.6779   -4.5092   -1.9817 C   0  0  0  0  0  0  0  0  0  0  0  0
   -5.1059   -8.0908    2.3672 H   0  0  0  0  0  0  0  0  0  0  0  0
   -5.3772   -9.5247    1.3093 H   0  0  0  0  0  0  0  0  0  0  0  0
   -3.7051   -9.1180    1.8806 H   0  0  0  0  0  0  0  0  0  0  0  0
   -5.0744   -6.0352    1.2536 H   0  0  0  0  0  0  0  0  0  0  0  0
   -3.6765   -5.6522   -1.2396 H   0  0  0  0  0  0  0  0  0  0  0  0
   -5.8822   -4.0617    0.1838 H   0  0  0  0  0  0  0  0  0  0  0  0
   -5.3173   -3.5680   -1.4305 H   0  0  0  0  0  0  0  0  0  0  0  0
   -3.3741   -1.5839   -1.3498 H   0  0  0  0  0  0  0  0  0  0  0  0
   -3.1385   -3.1757   -2.1310 H   0  0  0  0  0  0  0  0  0  0  0  0
   -1.0475   -4.4390   -1.8303 H   0  0  0  0  0  0  0  0  0  0  0  0
    2.4614   -2.0578   -1.1084 H   0  0  0  0  0  0  0  0  0  0  0  0
   -1.4565   -0.3903   -0.4756 H   0  0  0  0  0  0  0  0  0  0  0  0
    0.8288    0.5565    0.6087 H   0  0  0  0  0  0  0  0  0  0  0  0
    2.2820    0.1958   -0.3669 H   0  0  0  0  0  0  0  0  0  0  0  0
    0.6404    3.8368   -1.1927 H   0  0  0  0  0  0  0  0  0  0  0  0
    1.3247    2.9047    0.1673 H   0  0  0  0  0  0  0  0  0  0  0  0
   -0.8805    2.0532    0.7955 H   0  0  0  0  0  0  0  0  0  0  0  0
   -2.4511    1.8678   -0.8462 H   0  0  0  0  0  0  0  0  0  0  0  0
   -2.4459    5.3794   -0.8077 H   0  0  0  0  0  0  0  0  0  0  0  0
   -1.3259    5.6966   -3.6553 H   0  0  0  0  0  0  0  0  0  0  0  0
   -0.3843    5.7394   -2.1159 H   0  0  0  0  0  0  0  0  0  0  0  0
   -1.6013    7.0120   -2.4407 H   0  0  0  0  0  0  0  0  0  0  0  0
   -3.8775    5.2229   -3.4959 H   0  0  0  0  0  0  0  0  0  0  0  0
   -4.4715    5.1155    0.0466 H   0  0  0  0  0  0  0  0  0  0  0  0
   -4.6569    7.0493    1.5567 H   0  0  0  0  0  0  0  0  0  0  0  0
   -5.0481    8.1461    0.1713 H   0  0  0  0  0  0  0  0  0  0  0  0
   -3.4200    7.3565    0.2840 H   0  0  0  0  0  0  0  0  0  0  0  0
   -6.6179    5.0164    0.7215 H   0  0  0  0  0  0  0  0  0  0  0  0
   -7.7078    7.4113    1.8370 H   0  0  0  0  0  0  0  0  0  0  0  0
  -10.0361    8.3191    1.6433 H   0  0  0  0  0  0  0  0  0  0  0  0
   -8.8264    9.1374    0.5698 H   0  0  0  0  0  0  0  0  0  0  0  0
  -10.0183    7.9639   -0.1266 H   0  0  0  0  0  0  0  0  0  0  0  0
   -8.8180    5.5281    2.4871 H   0  0  0  0  0  0  0  0  0  0  0  0
   -9.9239    5.8338   -1.0763 H   0  0  0  0  0  0  0  0  0  0  0  0
   -9.8602    2.8791   -0.2580 H   0  0  0  0  0  0  0  0  0  0  0  0
   -8.5112    3.9286   -0.8015 H   0  0  0  0  0  0  0  0  0  0  0  0
   -9.8047    3.4728   -1.9652 H   0  0  0  0  0  0  0  0  0  0  0  0
  -12.1430    5.7472   -1.5177 H   0  0  0  0  0  0  0  0  0  0  0  0
  -11.8356    2.8219    0.7882 H   0  0  0  0  0  0  0  0  0  0  0  0
  -14.8698    3.3351    0.7128 H   0  0  0  0  0  0  0  0  0  0  0  0
  -13.8401    2.8493    2.1207 H   0  0  0  0  0  0  0  0  0  0  0  0
  -13.6684    4.4960    1.3931 H   0  0  0  0  0  0  0  0  0  0  0  0
  -14.1732    1.3349   -0.4154 H   0  0  0  0  0  0  0  0  0  0  0  0
  -12.1352   -1.6073    0.8690 H   0  0  0  0  0  0  0  0  0  0  0  0
  -13.0462    0.0538    2.6241 H   0  0  0  0  0  0  0  0  0  0  0  0
  -13.9324   -1.4862    2.5286 H   0  0  0  0  0  0  0  0  0  0  0  0
  -14.6370   -0.0155    1.7574 H   0  0  0  0  0  0  0  0  0  0  0  0
  -14.1505   -0.9037   -1.1606 H   0  0  0  0  0  0  0  0  0  0  0  0
  -13.3646   -3.4061    1.4984 H   0  0  0  0  0  0  0  0  0  0  0  0
  -16.2783   -4.2857    1.0537 H   0  0  0  0  0  0  0  0  0  0  0  0
  -15.7557   -2.8629    2.0254 H   0  0  0  0  0  0  0  0  0  0  0  0
  -15.2855   -4.5274    2.5409 H   0  0  0  0  0  0  0  0  0  0  0  0
  -14.5654   -5.7921    0.1370 H   0  0  0  0  0  0  0  0  0  0  0  0
  -11.5519   -3.7645   -0.2696 H   0  0  0  0  0  0  0  0  0  0  0  0
   -9.8269   -3.6871    1.4905 H   0  0  0  0  0  0  0  0  0  0  0  0
  -11.3732   -4.0836    2.2871 H   0  0  0  0  0  0  0  0  0  0  0  0
  -10.1760   -5.3918    1.9826 H   0  0  0  0  0  0  0  0  0  0  0  0
  -10.6312   -6.0495   -1.4349 H   0  0  0  0  0  0  0  0  0  0  0  0
   -7.2061   -5.9304    0.2481 H   0  0  0  0  0  0  0  0  0  0  0  0
   -9.0720   -7.5128    0.5895 H   0  0  0  0  0  0  0  0  0  0  0  0
   -9.0942   -7.8748   -1.1836 H   0  0  0  0  0  0  0  0  0  0  0  0
   -7.6547   -8.3028   -0.1938 H   0  0  0  0  0  0  0  0  0  0  0  0
   -7.5781   -6.4862   -2.7329 H   0  0  0  0  0  0  0  0  0  0  0  0
   -0.7810    6.2073    0.6568 H   0  0  0  0  0  0  0  0  0  0  0  0
    1.4113    4.4337    1.8293 H   0  0  0  0  0  0  0  0  0  0  0  0
    0.3564    7.1490    2.8350 H   0  0  0  0  0  0  0  0  0  0  0  0
    1.6878    6.1654    3.5671 H   0  0  0  0  0  0  0  0  0  0  0  0
    0.0046    5.5393    3.5687 H   0  0  0  0  0  0  0  0  0  0  0  0
    3.3717    7.3779    1.8714 H   0  0  0  0  0  0  0  0  0  0  0  0
    4.6624    6.4557   -0.2690 H   0  0  0  0  0  0  0  0  0  0  0  0
    5.2697    4.0144   -0.0329 H   0  0  0  0  0  0  0  0  0  0  0  0
    4.1353    3.8801    1.3761 H   0  0  0  0  0  0  0  0  0  0  0  0
    3.5133    4.2482   -0.2804 H   0  0  0  0  0  0  0  0  0  0  0  0
    7.3467    4.8451    1.3429 H   0  0  0  0  0  0  0  0  0  0  0  0
    8.7562    6.8806    1.4659 H   0  0  0  0  0  0  0  0  0  0  0  0
    6.9991    8.6073    1.1876 H   0  0  0  0  0  0  0  0  0  0  0  0
    8.2355    8.8236   -0.0924 H   0  0  0  0  0  0  0  0  0  0  0  0
    6.6579    8.0379   -0.4950 H   0  0  0  0  0  0  0  0  0  0  0  0
   10.4045    6.3366   -1.9167 H   0  0  0  0  0  0  0  0  0  0  0  0
   10.4544    8.0325    0.6110 H   0  0  0  0  0  0  0  0  0  0  0  0
   12.5042    7.7568   -1.6648 H   0  0  0  0  0  0  0  0  0  0  0  0
   12.5135    8.9455   -0.2967 H   0  0  0  0  0  0  0  0  0  0  0  0
   11.2306    9.0315   -1.5505 H   0  0  0  0  0  0  0  0  0  0  0  0
   10.4885    4.7568    0.7817 H   0  0  0  0  0  0  0  0  0  0  0  0
   12.7534    3.5870    1.4951 H   0  0  0  0  0  0  0  0  0  0  0  0
   13.4101    4.7722   -1.2832 H   0  0  0  0  0  0  0  0  0  0  0  0
   14.3297    3.4060   -0.5403 H   0  0  0  0  0  0  0  0  0  0  0  0
   14.3178    5.0047    0.2687 H   0  0  0  0  0  0  0  0  0  0  0  0
   10.5182    1.2743    0.6659 H   0  0  0  0  0  0  0  0  0  0  0  0
   11.9867   -0.4083    1.0855 H   0  0  0  0  0  0  0  0  0  0  0  0
   13.2012    1.1911    2.5438 H   0  0  0  0  0  0  0  0  0  0  0  0
   14.2915   -0.0251    1.7744 H   0  0  0  0  0  0  0  0  0  0  0  0
   14.2544    1.6674    1.1506 H   0  0  0  0  0  0  0  0  0  0  0  0
   13.0227   -1.4193   -2.2672 H   0  0  0  0  0  0  0  0  0  0  0  0
   12.9180   -2.2808    0.6564 H   0  0  0  0  0  0  0  0  0  0  0  0
   14.5268   -4.0704   -0.0221 H   0  0  0  0  0  0  0  0  0  0  0  0
   14.6696   -3.3028   -1.6551 H   0  0  0  0  0  0  0  0  0  0  0  0
   15.2062   -2.4106   -0.1848 H   0  0  0  0  0  0  0  0  0  0  0  0
    9.9594   -3.6350   -0.2435 H   0  0  0  0  0  0  0  0  0  0  0  0
   10.0737   -5.1961    1.4396 H   0  0  0  0  0  0  0  0  0  0  0  0
   11.2394   -3.3837    2.6635 H   0  0  0  0  0  0  0  0  0  0  0  0
   11.7575   -5.0352    3.1647 H   0  0  0  0  0  0  0  0  0  0  0  0
   12.8342   -4.0391    2.1172 H   0  0  0  0  0  0  0  0  0  0  0  0
   11.7831   -7.8168   -0.6948 H   0  0  0  0  0  0  0  0  0  0  0  0
    9.2831   -7.1880    0.7255 H   0  0  0  0  0  0  0  0  0  0  0  0
    8.3344   -8.9682   -0.7787 H   0  0  0  0  0  0  0  0  0  0  0  0
    9.8575   -9.4692    0.0223 H   0  0  0  0  0  0  0  0  0  0  0  0
    9.8696   -8.9759   -1.7097 H   0  0  0  0  0  0  0  0  0  0  0  0
    7.4508   -5.0300   -1.6379 H   0  0  0  0  0  0  0  0  0  0  0  0
    7.0627   -7.3502    0.3025 H   0  0  0  0  0  0  0  0  0  0  0  0
    6.5775   -7.8734   -2.2043 H   0  0  0  0  0  0  0  0  0  0  0  0
    5.2083   -6.7191   -2.0675 H   0  0  0  0  0  0  0  0  0  0  0  0
    5.2979   -8.2164   -1.0224 H   0  0  0  0  0  0  0  0  0  0  0  0
    4.0872   -4.4579    0.0907 H   0  0  0  0  0  0  0  0  0  0  0  0
    3.4503   -7.2873   -0.2870 H   0  0  0  0  0  0  0  0  0  0  0  0
    3.6560   -6.7127    3.9476 H   0  0  0  0  0  0  0  0  0  0  0  0
    3.2650   -5.2711    2.9513 H   0  0  0  0  0  0  0  0  0  0  0  0
    1.2649   -6.4577    1.0650 H   0  0  0  0  0  0  0  0  0  0  0  0
    1.9016   -4.8367    0.7016 H   0  0  0  0  0  0  0  0  0  0  0  0
    2.7511   -4.3099   -1.7955 H   0  0  0  0  0  0  0  0  0  0  0  0
    1.5444   -4.5553   -3.0809 H   0  0  0  0  0  0  0  0  0  0  0  0
  1  2  1  0
  2  3  2  0
  2  4  1  0
  4  5  1  0
  5  6  1  0
  6  7  1  0
  7  8  1  0
  8  9  1  0
  9 10  1  0
 10 11  2  0
 11 12  1  0
 12 13  2  0
 13 14  1  0
 13 15  1  0
 15 16  1  0
 16 17  1  0
 17 18  1  0
 18 19  1  0
 19 20  1  0
 20 21  2  0
 20 22  1  0
 22 23  1  0
 22 24  1  0
 24 25  1  0
 25 26  2  0
 25 27  1  0
 27 28  1  0
 27 29  1  0
 29 30  1  0
 30 31  2  0
 30 32  1  0
 32 33  1  0
 32 34  1  0
 34 35  1  0
 35 36  2  0
 35 37  1  0
 37 38  1  0
 37 39  1  0
 39 40  1  0
 40 41  2  0
 40 42  1  0
 42 43  1  0
 42 44  1  0
 44 45  1  0
 45 46  2  0
 45 47  1  0
 47 48  1  0
 47 49  1  0
 49 50  1  0
 50 51  2  0
 50 52  1  0
 52 53  1  0
 52 54  1  0
 54 55  1  0
 55 56  2  0
 55 57  1  0
 57 58  1  0
 57 59  1  0
 59 60  1  0
 60 61  2  0
 60 62  1  0
 62 63  1  0
 62 64  1  0
 64 65  1  0
 65 66  2  0
 18 67  1  0
 67 68  2  0
 67 69  1  0
 69 70  1  0
 70 71  1  0
 70 72  1  0
 72 73  2  0
 72 74  1  0
 74 75  1  0
 75 76  1  0
 75 77  1  0
 77 78  2  0
 77 79  1  0
 79 80  1  0
 80 81  1  0
 80 82  1  0
 82 83  2  0
 82 84  1  0
 84 85  1  0
 85 86  1  0
 85 87  1  0
 87 88  2  0
 87 89  1  0
 89 90  1  0
 90 91  1  0
 90 92  1  0
 92 93  2  0
 92 94  1  0
 94 95  1  0
 95 96  1  0
 95 97  1  0
 97 98  2  0
 97 99  1  0
 99100  1  0
100101  1  0
100102  1  0
102103  2  0
102104  1  0
104105  1  0
105106  1  0
105107  1  0
107108  2  0
107109  1  0
109110  1  0
110111  1  0
110112  1  0
112113  2  0
112114  1  0
114115  1  0
115116  1  0
115117  1  0
117118  2  0
117119  1  0
119120  1  0
120121  1  0
121122  1  0
121123  2  0
120124  1  0
124125  1  0
125126  1  0
 65  5  1  0
 14  9  2  0
126 11  1  0
  1127  1  0
  1128  1  0
  1129  1  0
  4130  1  0
  5131  1  6
  6132  1  0
  6133  1  0
  8134  1  0
  8135  1  0
 10136  1  0
 12137  1  0
 14138  1  0
 15139  1  0
 15140  1  0
 17141  1  0
 17142  1  0
 18143  1  1
 19144  1  0
 22145  1  1
 23146  1  0
 23147  1  0
 23148  1  0
 24149  1  0
 27150  1  1
 28151  1  0
 28152  1  0
 28153  1  0
 29154  1  0
 32155  1  1
 33156  1  0
 33157  1  0
 33158  1  0
 34159  1  0
 37160  1  6
 38161  1  0
 38162  1  0
 38163  1  0
 39164  1  0
 42165  1  1
 43166  1  0
 43167  1  0
 43168  1  0
 44169  1  0
 47170  1  1
 48171  1  0
 48172  1  0
 48173  1  0
 49174  1  0
 52175  1  1
 53176  1  0
 53177  1  0
 53178  1  0
 54179  1  0
 57180  1  6
 58181  1  0
 58182  1  0
 58183  1  0
 59184  1  0
 62185  1  1
 63186  1  0
 63187  1  0
 63188  1  0
 64189  1  0
 69190  1  0
 70191  1  1
 71192  1  0
 71193  1  0
 71194  1  0
 74195  1  0
 75196  1  6
 76197  1  0
 76198  1  0
 76199  1  0
 79200  1  0
 80201  1  1
 81202  1  0
 81203  1  0
 81204  1  0
 84205  1  0
 85206  1  1
 86207  1  0
 86208  1  0
 86209  1  0
 89210  1  0
 90211  1  1
 91212  1  0
 91213  1  0
 91214  1  0
 94215  1  0
 95216  1  1
 96217  1  0
 96218  1  0
 96219  1  0
 99220  1  0
100221  1  1
101222  1  0
101223  1  0
101224  1  0
104225  1  0
105226  1  1
106227  1  0
106228  1  0
106229  1  0
109230  1  0
110231  1  1
111232  1  0
111233  1  0
111234  1  0
114235  1  0
115236  1  1
116237  1  0
116238  1  0
116239  1  0
119240  1  0
120241  1  6
122242  1  0
122243  1  0
124244  1  0
124245  1  0
126246  1  0
126247  1  0
M  END
