
     RDKit          3D

247249  0  0  0  0  0  0  0  0999 V2000
    3.2552    9.3979    0.9191 C   0  0  0  0  0  0  0  0  0  0  0  0
    3.4974    7.9367    0.7117 C   0  0  0  0  0  0  0  0  0  0  0  0
    3.2695    7.1337    1.6590 O   0  0  0  0  0  0  0  0  0  0  0  0
    3.9494    7.4599   -0.5650 N   0  0  0  0  0  0  0  0  0  0  0  0
    4.5894    6.1522   -0.7437 C   0  0  1  0  0  0  0  0  0  0  0  0
    3.6913    5.2353   -1.5823 C   0  0  0  0  0  0  0  0  0  0  0  0
    4.2909    3.5009   -1.5851 S   0  0  0  0  0  0  0  0  0  0  0  0
    3.5804    2.9877    0.0210 C   0  0  0  0  0  0  0  0  0  0  0  0
    2.0847    2.8277   -0.0618 C   0  0  0  0  0  0  0  0  0  0  0  0
    1.2530    3.6971    0.6515 C   0  0  0  0  0  0  0  0  0  0  0  0
   -0.1402    3.5972    0.5507 C   0  0  0  0  0  0  0  0  0  0  0  0
   -0.7010    2.5878   -0.2502 C   0  0  0  0  0  0  0  0  0  0  0  0
    0.1237    1.6753   -0.9373 C   0  0  0  0  0  0  0  0  0  0  0  0
    1.5228    1.8291   -0.8573 C   0  0  0  0  0  0  0  0  0  0  0  0
   -0.5204    0.6643   -1.8565 C   0  0  0  0  0  0  0  0  0  0  0  0
    0.4590   -0.8678   -2.0884 S   0  0  0  0  0  0  0  0  0  0  0  0
    0.0686   -1.6079   -0.4604 C   0  0  0  0  0  0  0  0  0  0  0  0
    0.7949   -2.9527   -0.3219 C   0  0  2  0  0  0  0  0  0  0  0  0
    0.3423   -3.8937   -1.3584 N   0  0  0  0  0  0  0  0  0  0  0  0
    1.2320   -4.7067   -2.1319 C   0  0  0  0  0  0  0  0  0  0  0  0
    0.8962   -5.0383   -3.2984 O   0  0  0  0  0  0  0  0  0  0  0  0
    2.5778   -5.1262   -1.5881 C   0  0  1  0  0  0  0  0  0  0  0  0
    2.9952   -6.5054   -2.1261 C   0  0  0  0  0  0  0  0  0  0  0  0
    3.5914   -4.1112   -1.9084 N   0  0  0  0  0  0  0  0  0  0  0  0
    4.9983   -4.2345   -1.6363 C   0  0  0  0  0  0  0  0  0  0  0  0
    5.8069   -4.0627   -2.5923 O   0  0  0  0  0  0  0  0  0  0  0  0
    5.5898   -4.4415   -0.2537 C   0  0  1  0  0  0  0  0  0  0  0  0
    4.5718   -4.4358    0.8899 C   0  0  0  0  0  0  0  0  0  0  0  0
    6.3603   -5.6918   -0.2269 N   0  0  0  0  0  0  0  0  0  0  0  0
    7.4663   -5.9711    0.6524 C   0  0  0  0  0  0  0  0  0  0  0  0
    7.9510   -7.1387    0.6564 O   0  0  0  0  0  0  0  0  0  0  0  0
    8.1362   -4.8936    1.4786 C   0  0  1  0  0  0  0  0  0  0  0  0
    8.7007   -5.4826    2.7851 C   0  0  0  0  0  0  0  0  0  0  0  0
    9.1561   -4.2311    0.6496 N   0  0  0  0  0  0  0  0  0  0  0  0
   10.5729   -4.2894    0.8859 C   0  0  0  0  0  0  0  0  0  0  0  0
   11.0456   -3.8758    1.9832 O   0  0  0  0  0  0  0  0  0  0  0  0
   11.5032   -4.7608   -0.1972 C   0  0  1  0  0  0  0  0  0  0  0  0
   11.0185   -6.0882   -0.7869 C   0  0  0  0  0  0  0  0  0  0  0  0
   11.5988   -3.7539   -1.2602 N   0  0  0  0  0  0  0  0  0  0  0  0
   12.8122   -3.1129   -1.6985 C   0  0  0  0  0  0  0  0  0  0  0  0
   12.8161   -2.5383   -2.8244 O   0  0  0  0  0  0  0  0  0  0  0  0
   14.0920   -3.1651   -0.9004 C   0  0  1  0  0  0  0  0  0  0  0  0
   14.9456   -4.3579   -1.3401 C   0  0  0  0  0  0  0  0  0  0  0  0
   14.8626   -1.9254   -1.0868 N   0  0  0  0  0  0  0  0  0  0  0  0
   15.2672   -1.0465   -0.0208 C   0  0  0  0  0  0  0  0  0  0  0  0
   16.2289   -0.2598   -0.2223 O   0  0  0  0  0  0  0  0  0  0  0  0
   14.5908   -1.0680    1.3402 C   0  0  1  0  0  0  0  0  0  0  0  0
   15.1472   -0.0416    2.3372 C   0  0  0  0  0  0  0  0  0  0  0  0
   13.1299   -0.9502    1.2256 N   0  0  0  0  0  0  0  0  0  0  0  0
   12.3812    0.1783    0.7405 C   0  0  0  0  0  0  0  0  0  0  0  0
   11.1301    0.1885    0.9285 O   0  0  0  0  0  0  0  0  0  0  0  0
   13.0053    1.3806    0.0694 C   0  0  1  0  0  0  0  0  0  0  0  0
   12.4329    1.5268   -1.3482 C   0  0  0  0  0  0  0  0  0  0  0  0
   12.7847    2.5637    0.9137 N   0  0  0  0  0  0  0  0  0  0  0  0
   12.1583    3.7800    0.4834 C   0  0  0  0  0  0  0  0  0  0  0  0
   12.5243    4.3409   -0.5883 O   0  0  0  0  0  0  0  0  0  0  0  0
   11.0808    4.4069    1.3177 C   0  0  1  0  0  0  0  0  0  0  0  0
   11.6110    5.7002    1.9524 C   0  0  0  0  0  0  0  0  0  0  0  0
    9.8835    4.5992    0.4739 N   0  0  0  0  0  0  0  0  0  0  0  0
    9.1097    5.8074    0.3782 C   0  0  0  0  0  0  0  0  0  0  0  0
    8.8491    6.4672    1.4228 O   0  0  0  0  0  0  0  0  0  0  0  0
    8.4212    6.1864   -0.9168 C   0  0  1  0  0  0  0  0  0  0  0  0
    9.2080    5.7291   -2.1521 C   0  0  0  0  0  0  0  0  0  0  0  0
    7.0725    5.6132   -0.9387 N   0  0  0  0  0  0  0  0  0  0  0  0
    5.9347    6.3482   -1.4034 C   0  0  0  0  0  0  0  0  0  0  0  0
    6.0666    7.1849   -2.3290 O   0  0  0  0  0  0  0  0  0  0  0  0
    0.6013   -3.5396    1.0551 C   0  0  0  0  0  0  0  0  0  0  0  0
    1.2191   -3.0371    2.0296 O   0  0  0  0  0  0  0  0  0  0  0  0
   -0.2195   -4.6887    1.2611 N   0  0  0  0  0  0  0  0  0  0  0  0
   -1.6695   -4.5526    1.4097 C   0  0  2  0  0  0  0  0  0  0  0  0
   -2.0747   -4.7868    2.8684 C   0  0  0  0  0  0  0  0  0  0  0  0
   -2.4012   -5.5161    0.5096 C   0  0  0  0  0  0  0  0  0  0  0  0
   -1.8048   -6.5165    0.0234 O   0  0  0  0  0  0  0  0  0  0  0  0
   -3.7914   -5.2965    0.2241 N   0  0  0  0  0  0  0  0  0  0  0  0
   -4.6930   -6.3929   -0.1511 C   0  0  2  0  0  0  0  0  0  0  0  0
   -4.5523   -6.6884   -1.6541 C   0  0  0  0  0  0  0  0  0  0  0  0
   -6.1183   -6.0782    0.2651 C   0  0  0  0  0  0  0  0  0  0  0  0
   -6.3208   -5.5319    1.3877 O   0  0  0  0  0  0  0  0  0  0  0  0
   -7.2401   -6.4876   -0.5320 N   0  0  0  0  0  0  0  0  0  0  0  0
   -8.4250   -7.1316    0.0520 C   0  0  2  0  0  0  0  0  0  0  0  0
   -8.0051   -8.2468    1.0298 C   0  0  0  0  0  0  0  0  0  0  0  0
   -9.2604   -7.7435   -1.0482 C   0  0  0  0  0  0  0  0  0  0  0  0
   -8.6828   -8.4974   -1.8829 O   0  0  0  0  0  0  0  0  0  0  0  0
  -10.6748   -7.5290   -1.1934 N   0  0  0  0  0  0  0  0  0  0  0  0
  -11.5638   -6.8618   -0.2254 C   0  0  2  0  0  0  0  0  0  0  0  0
  -11.6262   -7.6484    1.0924 C   0  0  0  0  0  0  0  0  0  0  0  0
  -12.9652   -6.7779   -0.8084 C   0  0  0  0  0  0  0  0  0  0  0  0
  -13.5183   -7.8484   -1.1824 O   0  0  0  0  0  0  0  0  0  0  0  0
  -13.6710   -5.5423   -1.0026 N   0  0  0  0  0  0  0  0  0  0  0  0
  -13.5574   -4.3558   -0.1349 C   0  0  2  0  0  0  0  0  0  0  0  0
  -14.3347   -4.5782    1.1630 C   0  0  0  0  0  0  0  0  0  0  0  0
  -14.0952   -3.1329   -0.8539 C   0  0  0  0  0  0  0  0  0  0  0  0
  -15.1978   -3.2111   -1.4618 O   0  0  0  0  0  0  0  0  0  0  0  0
  -13.3936   -1.8823   -0.8598 N   0  0  0  0  0  0  0  0  0  0  0  0
  -12.5688   -1.3960    0.2498 C   0  0  2  0  0  0  0  0  0  0  0  0
  -13.3091   -0.2782    0.9993 C   0  0  0  0  0  0  0  0  0  0  0  0
  -11.1930   -1.0379   -0.2668 C   0  0  0  0  0  0  0  0  0  0  0  0
  -10.4706   -1.9775   -0.6983 O   0  0  0  0  0  0  0  0  0  0  0  0
  -10.6332    0.2851   -0.2175 N   0  0  0  0  0  0  0  0  0  0  0  0
  -11.2388    1.4513   -0.8670 C   0  0  2  0  0  0  0  0  0  0  0  0
  -11.3322    1.2519   -2.3834 C   0  0  0  0  0  0  0  0  0  0  0  0
  -10.4401    2.6876   -0.5483 C   0  0  0  0  0  0  0  0  0  0  0  0
   -9.2384    2.7702   -0.9259 O   0  0  0  0  0  0  0  0  0  0  0  0
  -10.9891    3.7398    0.2536 N   0  0  0  0  0  0  0  0  0  0  0  0
  -11.9685    4.7114   -0.2443 C   0  0  2  0  0  0  0  0  0  0  0  0
  -13.3740    4.0930   -0.3466 C   0  0  0  0  0  0  0  0  0  0  0  0
  -11.4972    5.3203   -1.5522 C   0  0  0  0  0  0  0  0  0  0  0  0
  -12.0332    4.9600   -2.6356 O   0  0  0  0  0  0  0  0  0  0  0  0
  -10.4169    6.2687   -1.6035 N   0  0  0  0  0  0  0  0  0  0  0  0
   -9.8360    6.9277   -0.4269 C   0  0  2  0  0  0  0  0  0  0  0  0
  -10.5794    8.2390   -0.1589 C   0  0  0  0  0  0  0  0  0  0  0  0
   -8.3552    7.1664   -0.6076 C   0  0  0  0  0  0  0  0  0  0  0  0
   -7.7872    6.8857   -1.7005 O   0  0  0  0  0  0  0  0  0  0  0  0
   -7.5841    7.6835    0.4735 N   0  0  0  0  0  0  0  0  0  0  0  0
   -6.4619    6.9235    1.0295 C   0  0  2  0  0  0  0  0  0  0  0  0
   -6.9912    5.6829    1.7633 C   0  0  0  0  0  0  0  0  0  0  0  0
   -5.6769    7.7749    2.0054 C   0  0  0  0  0  0  0  0  0  0  0  0
   -6.2981    8.3722    2.9227 O   0  0  0  0  0  0  0  0  0  0  0  0
   -4.2428    7.9126    1.9417 N   0  0  0  0  0  0  0  0  0  0  0  0
   -3.3751    7.1985    0.9962 C   0  0  1  0  0  0  0  0  0  0  0  0
   -3.4280    7.8581   -0.3573 C   0  0  0  0  0  0  0  0  0  0  0  0
   -3.1787    9.2582   -0.4933 N   0  0  0  0  0  0  0  0  0  0  0  0
   -3.6357    7.1605   -1.3860 O   0  0  0  0  0  0  0  0  0  0  0  0
   -1.9321    7.1694    1.5301 C   0  0  0  0  0  0  0  0  0  0  0  0
   -0.8326    6.2257    0.4089 S   0  0  0  0  0  0  0  0  0  0  0  0
   -1.0110    4.6089    1.2421 C   0  0  0  0  0  0  0  0  0  0  0  0
    3.5949    9.9737    0.0320 H   0  0  0  0  0  0  0  0  0  0  0  0
    2.1678    9.5841    1.0722 H   0  0  0  0  0  0  0  0  0  0  0  0
    3.8149    9.7472    1.8147 H   0  0  0  0  0  0  0  0  0  0  0  0
    3.7143    8.0272   -1.4043 H   0  0  0  0  0  0  0  0  0  0  0  0
    4.7686    5.6995    0.2461 H   0  0  0  0  0  0  0  0  0  0  0  0
    3.6611    5.6090   -2.6307 H   0  0  0  0  0  0  0  0  0  0  0  0
    2.6479    5.2808   -1.2072 H   0  0  0  0  0  0  0  0  0  0  0  0
    4.0368    2.0216    0.3201 H   0  0  0  0  0  0  0  0  0  0  0  0
    3.8544    3.7151    0.8080 H   0  0  0  0  0  0  0  0  0  0  0  0
    1.6837    4.4875    1.2532 H   0  0  0  0  0  0  0  0  0  0  0  0
   -1.7730    2.5180   -0.3494 H   0  0  0  0  0  0  0  0  0  0  0  0
    2.1795    1.1655   -1.4094 H   0  0  0  0  0  0  0  0  0  0  0  0
   -1.5328    0.3930   -1.4875 H   0  0  0  0  0  0  0  0  0  0  0  0
   -0.6482    1.1400   -2.8476 H   0  0  0  0  0  0  0  0  0  0  0  0
   -1.0281   -1.7562   -0.3809 H   0  0  0  0  0  0  0  0  0  0  0  0
    0.3929   -0.9185    0.3450 H   0  0  0  0  0  0  0  0  0  0  0  0
    1.8818   -2.7515   -0.4433 H   0  0  0  0  0  0  0  0  0  0  0  0
   -0.6685   -3.8872   -1.6259 H   0  0  0  0  0  0  0  0  0  0  0  0
    2.4644   -5.2190   -0.4926 H   0  0  0  0  0  0  0  0  0  0  0  0
    3.8833   -6.8748   -1.5807 H   0  0  0  0  0  0  0  0  0  0  0  0
    3.2278   -6.4459   -3.2100 H   0  0  0  0  0  0  0  0  0  0  0  0
    2.1764   -7.2358   -1.9720 H   0  0  0  0  0  0  0  0  0  0  0  0
    3.3413   -3.3889   -2.6226 H   0  0  0  0  0  0  0  0  0  0  0  0
    6.2790   -3.5850   -0.1002 H   0  0  0  0  0  0  0  0  0  0  0  0
    4.0728   -5.4247    0.9830 H   0  0  0  0  0  0  0  0  0  0  0  0
    3.8256   -3.6267    0.7569 H   0  0  0  0  0  0  0  0  0  0  0  0
    5.0919   -4.2542    1.8533 H   0  0  0  0  0  0  0  0  0  0  0  0
    6.0624   -6.4718   -0.8548 H   0  0  0  0  0  0  0  0  0  0  0  0
    7.3945   -4.1287    1.7820 H   0  0  0  0  0  0  0  0  0  0  0  0
    9.0834   -4.6728    3.4396 H   0  0  0  0  0  0  0  0  0  0  0  0
    7.8940   -6.0077    3.3392 H   0  0  0  0  0  0  0  0  0  0  0  0
    9.5176   -6.2055    2.5772 H   0  0  0  0  0  0  0  0  0  0  0  0
    8.8439   -3.8764   -0.2812 H   0  0  0  0  0  0  0  0  0  0  0  0
   12.4893   -4.9708    0.2551 H   0  0  0  0  0  0  0  0  0  0  0  0
   10.9116   -6.8435    0.0192 H   0  0  0  0  0  0  0  0  0  0  0  0
   11.7683   -6.4593   -1.5222 H   0  0  0  0  0  0  0  0  0  0  0  0
   10.0412   -5.9625   -1.3010 H   0  0  0  0  0  0  0  0  0  0  0  0
   10.7341   -3.5457   -1.8047 H   0  0  0  0  0  0  0  0  0  0  0  0
   13.8511   -3.3003    0.1672 H   0  0  0  0  0  0  0  0  0  0  0  0
   14.3727   -5.3054   -1.2522 H   0  0  0  0  0  0  0  0  0  0  0  0
   15.8442   -4.4310   -0.6938 H   0  0  0  0  0  0  0  0  0  0  0  0
   15.2714   -4.2360   -2.3934 H   0  0  0  0  0  0  0  0  0  0  0  0
   15.2476   -1.7232   -2.0386 H   0  0  0  0  0  0  0  0  0  0  0  0
   14.8196   -2.0591    1.7892 H   0  0  0  0  0  0  0  0  0  0  0  0
   14.6087   -0.1387    3.3019 H   0  0  0  0  0  0  0  0  0  0  0  0
   15.0457    0.9991    1.9738 H   0  0  0  0  0  0  0  0  0  0  0  0
   16.2217   -0.2412    2.5212 H   0  0  0  0  0  0  0  0  0  0  0  0
   12.5735   -1.7389    1.6183 H   0  0  0  0  0  0  0  0  0  0  0  0
   14.0933    1.2565   -0.0468 H   0  0  0  0  0  0  0  0  0  0  0  0
   12.5157    0.5599   -1.8891 H   0  0  0  0  0  0  0  0  0  0  0  0
   13.0131    2.2772   -1.9281 H   0  0  0  0  0  0  0  0  0  0  0  0
   11.3635    1.8255   -1.3251 H   0  0  0  0  0  0  0  0  0  0  0  0
   12.9700    2.4617    1.9396 H   0  0  0  0  0  0  0  0  0  0  0  0
   10.8184    3.7030    2.1384 H   0  0  0  0  0  0  0  0  0  0  0  0
   10.9094    6.0616    2.7299 H   0  0  0  0  0  0  0  0  0  0  0  0
   12.5837    5.5117    2.4547 H   0  0  0  0  0  0  0  0  0  0  0  0
   11.7589    6.4870    1.1808 H   0  0  0  0  0  0  0  0  0  0  0  0
    9.6116    3.8068   -0.1442 H   0  0  0  0  0  0  0  0  0  0  0  0
    8.3593    7.2925   -0.9560 H   0  0  0  0  0  0  0  0  0  0  0  0
    9.1609    4.6278   -2.2639 H   0  0  0  0  0  0  0  0  0  0  0  0
   10.2668    6.0410   -2.0768 H   0  0  0  0  0  0  0  0  0  0  0  0
    8.7777    6.1937   -3.0612 H   0  0  0  0  0  0  0  0  0  0  0  0
    6.9038    4.6925   -0.4702 H   0  0  0  0  0  0  0  0  0  0  0  0
    0.2466   -5.5737    1.5683 H   0  0  0  0  0  0  0  0  0  0  0  0
   -1.9721   -3.5207    1.1234 H   0  0  0  0  0  0  0  0  0  0  0  0
   -1.5370   -4.0713    3.5308 H   0  0  0  0  0  0  0  0  0  0  0  0
   -1.8247   -5.8240    3.1832 H   0  0  0  0  0  0  0  0  0  0  0  0
   -3.1675   -4.6269    2.9975 H   0  0  0  0  0  0  0  0  0  0  0  0
   -4.1973   -4.3857    0.5181 H   0  0  0  0  0  0  0  0  0  0  0  0
   -4.4040   -7.3085    0.4058 H   0  0  0  0  0  0  0  0  0  0  0  0
   -4.8121   -5.7939   -2.2548 H   0  0  0  0  0  0  0  0  0  0  0  0
   -3.5033   -6.9723   -1.8847 H   0  0  0  0  0  0  0  0  0  0  0  0
   -5.2005   -7.5408   -1.9503 H   0  0  0  0  0  0  0  0  0  0  0  0
   -7.1862   -6.3578   -1.5703 H   0  0  0  0  0  0  0  0  0  0  0  0
   -9.0004   -6.3653    0.6062 H   0  0  0  0  0  0  0  0  0  0  0  0
   -7.5841   -7.8165    1.9581 H   0  0  0  0  0  0  0  0  0  0  0  0
   -8.8732   -8.8780    1.3137 H   0  0  0  0  0  0  0  0  0  0  0  0
   -7.2368   -8.8987    0.5612 H   0  0  0  0  0  0  0  0  0  0  0  0
  -11.0932   -7.8956   -2.0782 H   0  0  0  0  0  0  0  0  0  0  0  0
  -11.1663   -5.8470   -0.0256 H   0  0  0  0  0  0  0  0  0  0  0  0
  -11.7094   -8.7398    0.8904 H   0  0  0  0  0  0  0  0  0  0  0  0
  -12.4945   -7.3294    1.7044 H   0  0  0  0  0  0  0  0  0  0  0  0
  -10.7172   -7.4758    1.7018 H   0  0  0  0  0  0  0  0  0  0  0  0
  -14.5211   -5.6073   -1.6077 H   0  0  0  0  0  0  0  0  0  0  0  0
  -12.4948   -4.1861    0.1136 H   0  0  0  0  0  0  0  0  0  0  0  0
  -14.3040   -3.6634    1.7961 H   0  0  0  0  0  0  0  0  0  0  0  0
  -15.3943   -4.8340    0.9412 H   0  0  0  0  0  0  0  0  0  0  0  0
  -13.8867   -5.4146    1.7399 H   0  0  0  0  0  0  0  0  0  0  0  0
  -13.6384   -1.1977   -1.6129 H   0  0  0  0  0  0  0  0  0  0  0  0
  -12.4151   -2.1941    1.0028 H   0  0  0  0  0  0  0  0  0  0  0  0
  -12.6067    0.3271    1.6083 H   0  0  0  0  0  0  0  0  0  0  0  0
  -13.8759    0.3729    0.3026 H   0  0  0  0  0  0  0  0  0  0  0  0
  -14.0559   -0.7269    1.6877 H   0  0  0  0  0  0  0  0  0  0  0  0
   -9.6258    0.3365    0.0496 H   0  0  0  0  0  0  0  0  0  0  0  0
  -12.2534    1.6025   -0.4792 H   0  0  0  0  0  0  0  0  0  0  0  0
  -11.9477    0.3586   -2.6097 H   0  0  0  0  0  0  0  0  0  0  0  0
  -10.3235    1.1064   -2.8230 H   0  0  0  0  0  0  0  0  0  0  0  0
  -11.8176    2.1323   -2.8523 H   0  0  0  0  0  0  0  0  0  0  0  0
  -10.4785    3.9760    1.1368 H   0  0  0  0  0  0  0  0  0  0  0  0
  -12.0690    5.5300    0.5000 H   0  0  0  0  0  0  0  0  0  0  0  0
  -13.6229    3.5658    0.5948 H   0  0  0  0  0  0  0  0  0  0  0  0
  -13.4419    3.3809   -1.1909 H   0  0  0  0  0  0  0  0  0  0  0  0
  -14.1248    4.8948   -0.5101 H   0  0  0  0  0  0  0  0  0  0  0  0
  -10.1819    6.6614   -2.5459 H   0  0  0  0  0  0  0  0  0  0  0  0
   -9.9321    6.2843    0.4699 H   0  0  0  0  0  0  0  0  0  0  0  0
  -10.4653    8.9398   -1.0137 H   0  0  0  0  0  0  0  0  0  0  0  0
  -10.2007    8.7239    0.7668 H   0  0  0  0  0  0  0  0  0  0  0  0
  -11.6618    8.0330   -0.0090 H   0  0  0  0  0  0  0  0  0  0  0  0
   -7.8053    8.6431    0.8294 H   0  0  0  0  0  0  0  0  0  0  0  0
   -5.8211    6.5803    0.1999 H   0  0  0  0  0  0  0  0  0  0  0  0
   -7.6856    5.9783    2.5800 H   0  0  0  0  0  0  0  0  0  0  0  0
   -6.1440    5.1050    2.1971 H   0  0  0  0  0  0  0  0  0  0  0  0
   -7.5357    5.0206    1.0584 H   0  0  0  0  0  0  0  0  0  0  0  0
   -3.8102    8.5902    2.6062 H   0  0  0  0  0  0  0  0  0  0  0  0
   -3.7134    6.1381    0.9258 H   0  0  0  0  0  0  0  0  0  0  0  0
   -3.2180    9.8878    0.3370 H   0  0  0  0  0  0  0  0  0  0  0  0
   -2.8524    9.6343   -1.4064 H   0  0  0  0  0  0  0  0  0  0  0  0
   -1.9184    6.7225    2.5496 H   0  0  0  0  0  0  0  0  0  0  0  0
   -1.5400    8.2051    1.6128 H   0  0  0  0  0  0  0  0  0  0  0  0
   -2.0750    4.2951    1.2304 H   0  0  0  0  0  0  0  0  0  0  0  0
   -0.7023    4.6918    2.3068 H   0  0  0  0  0  0  0  0  0  0  0  0
  1  2  1  0
  2  3  2  0
  2  4  1  0
  4  5  1  0
  5  6  1  0
  6  7  1  0
  7  8  1  0
  8  9  1  0
  9 10  1  0
 10 11  2  0
 11 12  1  0
 12 13  2  0
 13 14  1  0
 13 15  1  0
 15 16  1  0
 16 17  1  0
 17 18  1  0
 18 19  1  0
 19 20  1  0
 20 21  2  0
 20 22  1  0
 22 23  1  0
 22 24  1  0
 24 25  1  0
 25 26  2  0
 25 27  1  0
 27 28  1  0
 27 29  1  0
 29 30  1  0
 30 31  2  0
 30 32  1  0
 32 33  1  0
 32 34  1  0
 34 35  1  0
 35 36  2  0
 35 37  1  0
 37 38  1  0
 37 39  1  0
 39 40  1  0
 40 41  2  0
 40 42  1  0
 42 43  1  0
 42 44  1  0
 44 45  1  0
 45 46  2  0
 45 47  1  0
 47 48  1  0
 47 49  1  0
 49 50  1  0
 50 51  2  0
 50 52  1  0
 52 53  1  0
 52 54  1  0
 54 55  1  0
 55 56  2  0
 55 57  1  0
 57 58  1  0
 57 59  1  0
 59 60  1  0
 60 61  2  0
 60 62  1  0
 62 63  1  0
 62 64  1  0
 64 65  1  0
 65 66  2  0
 18 67  1  0
 67 68  2  0
 67 69  1  0
 69 70  1  0
 70 71  1  0
 70 72  1  0
 72 73  2  0
 72 74  1  0
 74 75  1  0
 75 76  1  0
 75 77  1  0
 77 78  2  0
 77 79  1  0
 79 80  1  0
 80 81  1  0
 80 82  1  0
 82 83  2  0
 82 84  1  0
 84 85  1  0
 85 86  1  0
 85 87  1  0
 87 88  2  0
 87 89  1  0
 89 90  1  0
 90 91  1  0
 90 92  1  0
 92 93  2  0
 92 94  1  0
 94 95  1  0
 95 96  1  0
 95 97  1  0
 97 98  2  0
 97 99  1  0
 99100  1  0
100101  1  0
100102  1  0
102103  2  0
102104  1  0
104105  1  0
105106  1  0
105107  1  0
107108  2  0
107109  1  0
109110  1  0
110111  1  0
110112  1  0
112113  2  0
112114  1  0
114115  1  0
115116  1  0
115117  1  0
117118  2  0
117119  1  0
119120  1  0
120121  1  0
121122  1  0
121123  2  0
120124  1  0
124125  1  0
125126  1  0
 65  5  1  0
 14  9  2  0
126 11  1  0
  1127  1  0
  1128  1  0
  1129  1  0
  4130  1  0
  5131  1  1
  6132  1  0
  6133  1  0
  8134  1  0
  8135  1  0
 10136  1  0
 12137  1  0
 14138  1  0
 15139  1  0
 15140  1  0
 17141  1  0
 17142  1  0
 18143  1  6
 19144  1  0
 22145  1  1
 23146  1  0
 23147  1  0
 23148  1  0
 24149  1  0
 27150  1  1
 28151  1  0
 28152  1  0
 28153  1  0
 29154  1  0
 32155  1  1
 33156  1  0
 33157  1  0
 33158  1  0
 34159  1  0
 37160  1  1
 38161  1  0
 38162  1  0
 38163  1  0
 39164  1  0
 42165  1  1
 43166  1  0
 43167  1  0
 43168  1  0
 44169  1  0
 47170  1  1
 48171  1  0
 48172  1  0
 48173  1  0
 49174  1  0
 52175  1  6
 53176  1  0
 53177  1  0
 53178  1  0
 54179  1  0
 57180  1  1
 58181  1  0
 58182  1  0
 58183  1  0
 59184  1  0
 62185  1  6
 63186  1  0
 63187  1  0
 63188  1  0
 64189  1  0
 69190  1  0
 70191  1  6
 71192  1  0
 71193  1  0
 71194  1  0
 74195  1  0
 75196  1  1
 76197  1  0
 76198  1  0
 76199  1  0
 79200  1  0
 80201  1  1
 81202  1  0
 81203  1  0
 81204  1  0
 84205  1  0
 85206  1  1
 86207  1  0
 86208  1  0
 86209  1  0
 89210  1  0
 90211  1  1
 91212  1  0
 91213  1  0
 91214  1  0
 94215  1  0
 95216  1  1
 96217  1  0
 96218  1  0
 96219  1  0
 99220  1  0
100221  1  1
101222  1  0
101223  1  0
101224  1  0
104225  1  0
105226  1  1
106227  1  0
106228  1  0
106229  1  0
109230  1  0
110231  1  1
111232  1  0
111233  1  0
111234  1  0
114235  1  0
115236  1  6
116237  1  0
116238  1  0
116239  1  0
119240  1  0
120241  1  6
122242  1  0
122243  1  0
124244  1  0
124245  1  0
126246  1  0
126247  1  0
M  END
