
     RDKit          3D

197199  0  0  0  0  0  0  0  0999 V2000
    2.3757   -9.6773    0.3931 C   0  0  0  0  0  0  0  0  0  0  0  0
    1.6873   -8.6214   -0.4152 C   0  0  0  0  0  0  0  0  0  0  0  0
    1.9177   -8.5508   -1.6520 O   0  0  0  0  0  0  0  0  0  0  0  0
    0.7912   -7.6897    0.2087 N   0  0  0  0  0  0  0  0  0  0  0  0
    0.0522   -6.6880   -0.5684 C   0  0  1  0  0  0  0  0  0  0  0  0
   -1.0898   -6.0503    0.2488 C   0  0  0  0  0  0  0  0  0  0  0  0
   -0.4760   -4.9016    1.5364 S   0  0  0  0  0  0  0  0  0  0  0  0
   -2.0837   -4.1034    1.8983 C   0  0  0  0  0  0  0  0  0  0  0  0
   -2.5521   -3.2085    0.7738 C   0  0  0  0  0  0  0  0  0  0  0  0
   -3.8914   -3.2585    0.3581 C   0  0  0  0  0  0  0  0  0  0  0  0
   -4.3625   -2.4139   -0.6622 C   0  0  0  0  0  0  0  0  0  0  0  0
   -3.4720   -1.5050   -1.2570 C   0  0  0  0  0  0  0  0  0  0  0  0
   -2.1387   -1.4194   -0.8291 C   0  0  0  0  0  0  0  0  0  0  0  0
   -1.6838   -2.2699    0.1907 C   0  0  0  0  0  0  0  0  0  0  0  0
   -1.2072   -0.4201   -1.4636 C   0  0  0  0  0  0  0  0  0  0  0  0
   -0.5868    0.8108   -0.2600 S   0  0  0  0  0  0  0  0  0  0  0  0
   -2.1725    1.6599    0.1264 C   0  0  0  0  0  0  0  0  0  0  0  0
   -2.4346    2.9450   -0.6945 C   0  0  1  0  0  0  0  0  0  0  0  0
   -1.1987    3.6908   -0.9433 N   0  0  0  0  0  0  0  0  0  0  0  0
   -0.6884    4.6022    0.0311 C   0  0  0  0  0  0  0  0  0  0  0  0
    0.0432    4.1599    0.9577 O   0  0  0  0  0  0  0  0  0  0  0  0
   -0.9191    6.0862   -0.0981 C   0  0  1  0  0  0  0  0  0  0  0  0
   -2.2642    6.4098   -0.7574 C   0  0  0  0  0  0  0  0  0  0  0  0
   -0.8769    6.7138    1.2285 N   0  0  0  0  0  0  0  0  0  0  0  0
    0.0953    7.6710    1.6899 C   0  0  0  0  0  0  0  0  0  0  0  0
   -0.0076    8.0999    2.8712 O   0  0  0  0  0  0  0  0  0  0  0  0
    1.1881    8.2286    0.7936 C   0  0  1  0  0  0  0  0  0  0  0  0
    0.6071    9.3121   -0.1174 C   0  0  0  0  0  0  0  0  0  0  0  0
    2.2735    8.8068    1.5955 N   0  0  0  0  0  0  0  0  0  0  0  0
    3.6720    8.5795    1.3584 C   0  0  0  0  0  0  0  0  0  0  0  0
    4.4747    8.6997    2.3230 O   0  0  0  0  0  0  0  0  0  0  0  0
    4.2202    8.2982   -0.0249 C   0  0  1  0  0  0  0  0  0  0  0  0
    5.2295    9.3745   -0.4306 C   0  0  0  0  0  0  0  0  0  0  0  0
    4.8175    6.9583   -0.1038 N   0  0  0  0  0  0  0  0  0  0  0  0
    5.8690    6.5172    0.7604 C   0  0  0  0  0  0  0  0  0  0  0  0
    5.5774    5.9448    1.8456 O   0  0  0  0  0  0  0  0  0  0  0  0
    7.3065    6.6678    0.3318 C   0  0  1  0  0  0  0  0  0  0  0  0
    8.2538    6.8526    1.5291 C   0  0  0  0  0  0  0  0  0  0  0  0
    7.7183    5.5525   -0.5285 N   0  0  0  0  0  0  0  0  0  0  0  0
    8.3366    4.3543   -0.0429 C   0  0  0  0  0  0  0  0  0  0  0  0
    9.5562    4.1542   -0.3024 O   0  0  0  0  0  0  0  0  0  0  0  0
    7.5251    3.3169    0.6973 C   0  0  1  0  0  0  0  0  0  0  0  0
    6.5069    2.6314   -0.2138 C   0  0  0  0  0  0  0  0  0  0  0  0
    8.3614    2.3498    1.4309 N   0  0  0  0  0  0  0  0  0  0  0  0
    9.3660    1.4588    0.9022 C   0  0  0  0  0  0  0  0  0  0  0  0
   10.2274    1.0074    1.7052 O   0  0  0  0  0  0  0  0  0  0  0  0
    9.4070    1.0222   -0.5482 C   0  0  1  0  0  0  0  0  0  0  0  0
   10.8210    0.6356   -1.0037 C   0  0  0  0  0  0  0  0  0  0  0  0
    8.4392   -0.0507   -0.8206 N   0  0  0  0  0  0  0  0  0  0  0  0
    8.6860   -1.4612   -0.6779 C   0  0  0  0  0  0  0  0  0  0  0  0
    8.3604   -2.2284   -1.6233 O   0  0  0  0  0  0  0  0  0  0  0  0
    9.1853   -2.0584    0.6114 C   0  0  1  0  0  0  0  0  0  0  0  0
    7.9886   -2.4601    1.4855 C   0  0  0  0  0  0  0  0  0  0  0  0
   10.0900   -3.1830    0.3302 N   0  0  0  0  0  0  0  0  0  0  0  0
    9.7961   -4.5529    0.6263 C   0  0  0  0  0  0  0  0  0  0  0  0
   10.2410   -5.0622    1.6893 O   0  0  0  0  0  0  0  0  0  0  0  0
    9.0698   -5.3999   -0.3857 C   0  0  1  0  0  0  0  0  0  0  0  0
   10.0589   -5.9307   -1.4262 C   0  0  0  0  0  0  0  0  0  0  0  0
    8.3832   -6.5259    0.2577 N   0  0  0  0  0  0  0  0  0  0  0  0
    7.1462   -7.0824   -0.2194 C   0  0  0  0  0  0  0  0  0  0  0  0
    6.9302   -8.3154   -0.0605 O   0  0  0  0  0  0  0  0  0  0  0  0
    6.0955   -6.2397   -0.9067 C   0  0  1  0  0  0  0  0  0  0  0  0
    6.2890   -6.2673   -2.4246 C   0  0  0  0  0  0  0  0  0  0  0  0
    4.7583   -6.7406   -0.5852 N   0  0  0  0  0  0  0  0  0  0  0  0
    4.0857   -6.3398    0.6091 C   0  0  0  0  0  0  0  0  0  0  0  0
    4.5379   -6.7042    1.7285 O   0  0  0  0  0  0  0  0  0  0  0  0
    2.8573   -5.4712    0.5504 C   0  0  1  0  0  0  0  0  0  0  0  0
    3.2003   -4.0572    1.0262 C   0  0  0  0  0  0  0  0  0  0  0  0
    2.3256   -5.4147   -0.8170 N   0  0  0  0  0  0  0  0  0  0  0  0
    0.9514   -5.6347   -1.1929 C   0  0  0  0  0  0  0  0  0  0  0  0
    0.4766   -4.9452   -2.1344 O   0  0  0  0  0  0  0  0  0  0  0  0
   -3.1567    2.6519   -1.9912 C   0  0  0  0  0  0  0  0  0  0  0  0
   -2.4880    2.3710   -3.0252 O   0  0  0  0  0  0  0  0  0  0  0  0
   -4.5896    2.7198   -2.0990 N   0  0  0  0  0  0  0  0  0  0  0  0
   -5.5223    2.5667   -0.9778 C   0  0  2  0  0  0  0  0  0  0  0  0
   -6.3462    1.2939   -1.1799 C   0  0  0  0  0  0  0  0  0  0  0  0
   -6.3861    3.7943   -0.8626 C   0  0  0  0  0  0  0  0  0  0  0  0
   -5.8469    4.9240   -0.7221 O   0  0  0  0  0  0  0  0  0  0  0  0
   -7.8158    3.6918   -0.8716 N   0  0  0  0  0  0  0  0  0  0  0  0
   -8.6427    3.9229    0.3186 C   0  0  2  0  0  0  0  0  0  0  0  0
   -7.8660    3.6605    1.6238 C   0  0  0  0  0  0  0  0  0  0  0  0
   -9.9148    3.1036    0.2012 C   0  0  0  0  0  0  0  0  0  0  0  0
  -10.7196    3.4003   -0.7225 O   0  0  0  0  0  0  0  0  0  0  0  0
  -10.2337    2.0188    1.1001 N   0  0  0  0  0  0  0  0  0  0  0  0
  -11.5423    1.3537    1.0821 C   0  0  2  0  0  0  0  0  0  0  0  0
  -12.6323    2.3096    1.5785 C   0  0  0  0  0  0  0  0  0  0  0  0
  -11.5381    0.1206    1.9515 C   0  0  0  0  0  0  0  0  0  0  0  0
  -11.1802    0.2050    3.1585 O   0  0  0  0  0  0  0  0  0  0  0  0
  -12.0597   -1.1205    1.4687 N   0  0  0  0  0  0  0  0  0  0  0  0
  -11.3472   -1.9465    0.4917 C   0  0  2  0  0  0  0  0  0  0  0  0
  -12.0263   -1.8450   -0.8753 C   0  0  0  0  0  0  0  0  0  0  0  0
  -11.3401   -3.3824    0.9574 C   0  0  0  0  0  0  0  0  0  0  0  0
  -12.4353   -3.9592    1.2009 O   0  0  0  0  0  0  0  0  0  0  0  0
  -10.1185   -4.0932    1.1989 N   0  0  0  0  0  0  0  0  0  0  0  0
   -9.1632   -4.4774    0.1511 C   0  0  1  0  0  0  0  0  0  0  0  0
   -9.8854   -5.0571   -1.0483 C   0  0  0  0  0  0  0  0  0  0  0  0
  -10.6743   -6.2380   -0.8979 N   0  0  0  0  0  0  0  0  0  0  0  0
   -9.8009   -4.5121   -2.1808 O   0  0  0  0  0  0  0  0  0  0  0  0
   -8.2213   -3.3128   -0.1910 C   0  0  0  0  0  0  0  0  0  0  0  0
   -6.6793   -3.9359   -0.9592 S   0  0  0  0  0  0  0  0  0  0  0  0
   -5.8332   -2.3117   -0.9803 C   0  0  0  0  0  0  0  0  0  0  0  0
    2.1749  -10.6725   -0.0522 H   0  0  0  0  0  0  0  0  0  0  0  0
    3.4701   -9.4944    0.3881 H   0  0  0  0  0  0  0  0  0  0  0  0
    2.0145   -9.6731    1.4412 H   0  0  0  0  0  0  0  0  0  0  0  0
    0.5976   -7.7935    1.2306 H   0  0  0  0  0  0  0  0  0  0  0  0
   -0.4382   -7.2317   -1.4075 H   0  0  0  0  0  0  0  0  0  0  0  0
   -1.6919   -6.8478    0.7354 H   0  0  0  0  0  0  0  0  0  0  0  0
   -1.7597   -5.5071   -0.4498 H   0  0  0  0  0  0  0  0  0  0  0  0
   -1.9551   -3.4804    2.8101 H   0  0  0  0  0  0  0  0  0  0  0  0
   -2.8369   -4.8889    2.1340 H   0  0  0  0  0  0  0  0  0  0  0  0
   -4.5762   -3.9322    0.8597 H   0  0  0  0  0  0  0  0  0  0  0  0
   -3.8280   -0.8327   -2.0284 H   0  0  0  0  0  0  0  0  0  0  0  0
   -0.6546   -2.1999    0.5269 H   0  0  0  0  0  0  0  0  0  0  0  0
   -1.6888    0.1019   -2.3132 H   0  0  0  0  0  0  0  0  0  0  0  0
   -0.3334   -0.9667   -1.8752 H   0  0  0  0  0  0  0  0  0  0  0  0
   -3.0377    0.9666    0.0643 H   0  0  0  0  0  0  0  0  0  0  0  0
   -2.1040    1.9603    1.1948 H   0  0  0  0  0  0  0  0  0  0  0  0
   -3.0964    3.5966   -0.0845 H   0  0  0  0  0  0  0  0  0  0  0  0
   -0.5266    3.3433   -1.6677 H   0  0  0  0  0  0  0  0  0  0  0  0
   -0.1268    6.4841   -0.7595 H   0  0  0  0  0  0  0  0  0  0  0  0
   -3.1022    6.0096   -0.1493 H   0  0  0  0  0  0  0  0  0  0  0  0
   -2.3106    5.9780   -1.7798 H   0  0  0  0  0  0  0  0  0  0  0  0
   -2.3836    7.5110   -0.8390 H   0  0  0  0  0  0  0  0  0  0  0  0
   -1.6058    6.4122    1.9173 H   0  0  0  0  0  0  0  0  0  0  0  0
    1.5992    7.4006    0.1789 H   0  0  0  0  0  0  0  0  0  0  0  0
    1.4010    9.7140   -0.7820 H   0  0  0  0  0  0  0  0  0  0  0  0
   -0.2042    8.9025   -0.7539 H   0  0  0  0  0  0  0  0  0  0  0  0
    0.1927   10.1493    0.4876 H   0  0  0  0  0  0  0  0  0  0  0  0
    2.0268    9.4359    2.3947 H   0  0  0  0  0  0  0  0  0  0  0  0
    3.4019    8.3512   -0.7736 H   0  0  0  0  0  0  0  0  0  0  0  0
    6.0525    9.4563    0.3139 H   0  0  0  0  0  0  0  0  0  0  0  0
    4.7213   10.3597   -0.4966 H   0  0  0  0  0  0  0  0  0  0  0  0
    5.6617    9.1383   -1.4253 H   0  0  0  0  0  0  0  0  0  0  0  0
    4.4518    6.2821   -0.8110 H   0  0  0  0  0  0  0  0  0  0  0  0
    7.3830    7.5951   -0.2684 H   0  0  0  0  0  0  0  0  0  0  0  0
    7.9422    7.7375    2.1248 H   0  0  0  0  0  0  0  0  0  0  0  0
    9.2881    7.0238    1.1659 H   0  0  0  0  0  0  0  0  0  0  0  0
    8.2471    5.9595    2.1931 H   0  0  0  0  0  0  0  0  0  0  0  0
    7.8598    5.7745   -1.5418 H   0  0  0  0  0  0  0  0  0  0  0  0
    6.9337    3.8642    1.4610 H   0  0  0  0  0  0  0  0  0  0  0  0
    6.9319    2.4125   -1.2138 H   0  0  0  0  0  0  0  0  0  0  0  0
    6.1414    1.6897    0.2503 H   0  0  0  0  0  0  0  0  0  0  0  0
    5.6335    3.3015   -0.3692 H   0  0  0  0  0  0  0  0  0  0  0  0
    8.2890    2.3853    2.4733 H   0  0  0  0  0  0  0  0  0  0  0  0
    9.1335    1.8868   -1.1789 H   0  0  0  0  0  0  0  0  0  0  0  0
   11.5142    1.4881   -0.8418 H   0  0  0  0  0  0  0  0  0  0  0  0
   11.2074   -0.2428   -0.4450 H   0  0  0  0  0  0  0  0  0  0  0  0
   10.8173    0.3955   -2.0881 H   0  0  0  0  0  0  0  0  0  0  0  0
    7.6385    0.1980   -1.4428 H   0  0  0  0  0  0  0  0  0  0  0  0
    9.7605   -1.3101    1.1771 H   0  0  0  0  0  0  0  0  0  0  0  0
    8.3441   -2.9008    2.4413 H   0  0  0  0  0  0  0  0  0  0  0  0
    7.3781   -1.5622    1.7222 H   0  0  0  0  0  0  0  0  0  0  0  0
    7.3441   -3.1998    0.9638 H   0  0  0  0  0  0  0  0  0  0  0  0
   11.0151   -2.9734   -0.1068 H   0  0  0  0  0  0  0  0  0  0  0  0
    8.3391   -4.7529   -0.9025 H   0  0  0  0  0  0  0  0  0  0  0  0
    9.5398   -6.6167   -2.1296 H   0  0  0  0  0  0  0  0  0  0  0  0
   10.4926   -5.0878   -2.0073 H   0  0  0  0  0  0  0  0  0  0  0  0
   10.8841   -6.4909   -0.9334 H   0  0  0  0  0  0  0  0  0  0  0  0
    8.9514   -7.1332    0.8945 H   0  0  0  0  0  0  0  0  0  0  0  0
    6.1641   -5.1867   -0.5586 H   0  0  0  0  0  0  0  0  0  0  0  0
    5.4843   -5.6802   -2.9166 H   0  0  0  0  0  0  0  0  0  0  0  0
    7.2620   -5.8213   -2.7121 H   0  0  0  0  0  0  0  0  0  0  0  0
    6.2459   -7.3109   -2.8036 H   0  0  0  0  0  0  0  0  0  0  0  0
    4.3980   -7.5863   -1.0887 H   0  0  0  0  0  0  0  0  0  0  0  0
    2.1120   -5.8818    1.2575 H   0  0  0  0  0  0  0  0  0  0  0  0
    3.9793   -3.6055    0.3744 H   0  0  0  0  0  0  0  0  0  0  0  0
    3.5811   -4.0803    2.0712 H   0  0  0  0  0  0  0  0  0  0  0  0
    2.2911   -3.4205    0.9977 H   0  0  0  0  0  0  0  0  0  0  0  0
    2.9356   -4.9660   -1.5383 H   0  0  0  0  0  0  0  0  0  0  0  0
   -4.9984    2.7494   -3.0613 H   0  0  0  0  0  0  0  0  0  0  0  0
   -4.9807    2.4511   -0.0187 H   0  0  0  0  0  0  0  0  0  0  0  0
   -6.9682    1.3681   -2.0993 H   0  0  0  0  0  0  0  0  0  0  0  0
   -5.6558    0.4395   -1.2926 H   0  0  0  0  0  0  0  0  0  0  0  0
   -6.9989    1.1038   -0.3025 H   0  0  0  0  0  0  0  0  0  0  0  0
   -8.2704    3.8392   -1.8043 H   0  0  0  0  0  0  0  0  0  0  0  0
   -8.9396    4.9966    0.3376 H   0  0  0  0  0  0  0  0  0  0  0  0
   -7.4211    2.6459    1.6223 H   0  0  0  0  0  0  0  0  0  0  0  0
   -7.0453    4.4003    1.7360 H   0  0  0  0  0  0  0  0  0  0  0  0
   -8.5337    3.7795    2.5038 H   0  0  0  0  0  0  0  0  0  0  0  0
   -9.5143    1.6869    1.7804 H   0  0  0  0  0  0  0  0  0  0  0  0
  -11.7871    1.0573    0.0411 H   0  0  0  0  0  0  0  0  0  0  0  0
  -12.3810    2.6910    2.5930 H   0  0  0  0  0  0  0  0  0  0  0  0
  -12.7383    3.1745    0.8942 H   0  0  0  0  0  0  0  0  0  0  0  0
  -13.6128    1.7868    1.6228 H   0  0  0  0  0  0  0  0  0  0  0  0
  -12.8768   -1.5255    1.9819 H   0  0  0  0  0  0  0  0  0  0  0  0
  -10.3032   -1.5784    0.3990 H   0  0  0  0  0  0  0  0  0  0  0  0
  -11.5313   -2.5213   -1.6029 H   0  0  0  0  0  0  0  0  0  0  0  0
  -11.9536   -0.8106   -1.2686 H   0  0  0  0  0  0  0  0  0  0  0  0
  -13.1017   -2.1216   -0.7959 H   0  0  0  0  0  0  0  0  0  0  0  0
  -10.0644   -4.6318    2.0938 H   0  0  0  0  0  0  0  0  0  0  0  0
   -8.5285   -5.2949    0.5607 H   0  0  0  0  0  0  0  0  0  0  0  0
  -10.7818   -6.6850    0.0428 H   0  0  0  0  0  0  0  0  0  0  0  0
  -11.1767   -6.6448   -1.7173 H   0  0  0  0  0  0  0  0  0  0  0  0
   -8.7049   -2.5875   -0.8792 H   0  0  0  0  0  0  0  0  0  0  0  0
   -7.9613   -2.7901    0.7534 H   0  0  0  0  0  0  0  0  0  0  0  0
   -5.9820   -1.8790   -1.9944 H   0  0  0  0  0  0  0  0  0  0  0  0
   -6.2745   -1.6196   -0.2365 H   0  0  0  0  0  0  0  0  0  0  0  0
  1  2  1  0
  2  3  2  0
  2  4  1  0
  4  5  1  0
  5  6  1  0
  6  7  1  0
  7  8  1  0
  8  9  1  0
  9 10  2  0
 10 11  1  0
 11 12  2  0
 12 13  1  0
 13 14  2  0
 13 15  1  0
 15 16  1  0
 16 17  1  0
 17 18  1  0
 18 19  1  0
 19 20  1  0
 20 21  2  0
 20 22  1  0
 22 23  1  0
 22 24  1  0
 24 25  1  0
 25 26  2  0
 25 27  1  0
 27 28  1  0
 27 29  1  0
 29 30  1  0
 30 31  2  0
 30 32  1  0
 32 33  1  0
 32 34  1  0
 34 35  1  0
 35 36  2  0
 35 37  1  0
 37 38  1  0
 37 39  1  0
 39 40  1  0
 40 41  2  0
 40 42  1  0
 42 43  1  0
 42 44  1  0
 44 45  1  0
 45 46  2  0
 45 47  1  0
 47 48  1  0
 47 49  1  0
 49 50  1  0
 50 51  2  0
 50 52  1  0
 52 53  1  0
 52 54  1  0
 54 55  1  0
 55 56  2  0
 55 57  1  0
 57 58  1  0
 57 59  1  0
 59 60  1  0
 60 61  2  0
 60 62  1  0
 62 63  1  0
 62 64  1  0
 64 65  1  0
 65 66  2  0
 65 67  1  0
 67 68  1  0
 67 69  1  0
 69 70  1  0
 70 71  2  0
 18 72  1  0
 72 73  2  0
 72 74  1  0
 74 75  1  0
 75 76  1  0
 75 77  1  0
 77 78  2  0
 77 79  1  0
 79 80  1  0
 80 81  1  0
 80 82  1  0
 82 83  2  0
 82 84  1  0
 84 85  1  0
 85 86  1  0
 85 87  1  0
 87 88  2  0
 87 89  1  0
 89 90  1  0
 90 91  1  0
 90 92  1  0
 92 93  2  0
 92 94  1  0
 94 95  1  0
 95 96  1  0
 96 97  1  0
 96 98  2  0
 95 99  1  0
 99100  1  0
100101  1  0
 70  5  1  0
 14  9  1  0
101 11  1  0
  1102  1  0
  1103  1  0
  1104  1  0
  4105  1  0
  5106  1  6
  6107  1  0
  6108  1  0
  8109  1  0
  8110  1  0
 10111  1  0
 12112  1  0
 14113  1  0
 15114  1  0
 15115  1  0
 17116  1  0
 17117  1  0
 18118  1  1
 19119  1  0
 22120  1  6
 23121  1  0
 23122  1  0
 23123  1  0
 24124  1  0
 27125  1  6
 28126  1  0
 28127  1  0
 28128  1  0
 29129  1  0
 32130  1  6
 33131  1  0
 33132  1  0
 33133  1  0
 34134  1  0
 37135  1  6
 38136  1  0
 38137  1  0
 38138  1  0
 39139  1  0
 42140  1  1
 43141  1  0
 43142  1  0
 43143  1  0
 44144  1  0
 47145  1  6
 48146  1  0
 48147  1  0
 48148  1  0
 49149  1  0
 52150  1  1
 53151  1  0
 53152  1  0
 53153  1  0
 54154  1  0
 57155  1  6
 58156  1  0
 58157  1  0
 58158  1  0
 59159  1  0
 62160  1  1
 63161  1  0
 63162  1  0
 63163  1  0
 64164  1  0
 67165  1  1
 68166  1  0
 68167  1  0
 68168  1  0
 69169  1  0
 74170  1  0
 75171  1  1
 76172  1  0
 76173  1  0
 76174  1  0
 79175  1  0
 80176  1  1
 81177  1  0
 81178  1  0
 81179  1  0
 84180  1  0
 85181  1  6
 86182  1  0
 86183  1  0
 86184  1  0
 89185  1  0
 90186  1  6
 91187  1  0
 91188  1  0
 91189  1  0
 94190  1  0
 95191  1  1
 97192  1  0
 97193  1  0
 99194  1  0
 99195  1  0
101196  1  0
101197  1  0
M  END
