
     RDKit          3D

197199  0  0  0  0  0  0  0  0999 V2000
   -1.0587   10.1865    2.3788 C   0  0  0  0  0  0  0  0  0  0  0  0
   -0.3858    9.4244    1.3262 C   0  0  0  0  0  0  0  0  0  0  0  0
    0.0083    9.9854    0.2546 O   0  0  0  0  0  0  0  0  0  0  0  0
   -0.2852    7.9881    1.4267 N   0  0  0  0  0  0  0  0  0  0  0  0
    0.6659    7.1383    0.6691 C   0  0  2  0  0  0  0  0  0  0  0  0
    0.0847    5.7481    0.3645 C   0  0  0  0  0  0  0  0  0  0  0  0
   -1.6748    5.8027   -0.3401 S   0  0  0  0  0  0  0  0  0  0  0  0
   -2.5782    5.3156    1.2036 C   0  0  0  0  0  0  0  0  0  0  0  0
   -3.4269    4.1096    0.9037 C   0  0  0  0  0  0  0  0  0  0  0  0
   -4.7193    4.0165    1.4046 C   0  0  0  0  0  0  0  0  0  0  0  0
   -5.4514    2.8303    1.3405 C   0  0  0  0  0  0  0  0  0  0  0  0
   -4.8302    1.6891    0.7826 C   0  0  0  0  0  0  0  0  0  0  0  0
   -3.4192    1.6395    0.7290 C   0  0  0  0  0  0  0  0  0  0  0  0
   -2.8156    2.8990    0.4945 C   0  0  0  0  0  0  0  0  0  0  0  0
   -2.8003    1.0308    2.0050 C   0  0  0  0  0  0  0  0  0  0  0  0
   -3.5562   -0.4979    2.4659 S   0  0  0  0  0  0  0  0  0  0  0  0
   -2.7278   -1.5014    1.1134 C   0  0  0  0  0  0  0  0  0  0  0  0
   -3.2247   -3.0005    1.0209 C   0  0  1  0  0  0  0  0  0  0  0  0
   -2.1227   -3.9653    1.1147 N   0  0  0  0  0  0  0  0  0  0  0  0
   -2.2793   -5.3186    0.7836 C   0  0  0  0  0  0  0  0  0  0  0  0
   -2.3731   -5.6856   -0.4379 O   0  0  0  0  0  0  0  0  0  0  0  0
   -2.1500   -6.3651    1.8879 C   0  0  1  0  0  0  0  0  0  0  0  0
   -3.5986   -6.8014    2.2916 C   0  0  0  0  0  0  0  0  0  0  0  0
   -1.3785   -7.5658    1.4410 N   0  0  0  0  0  0  0  0  0  0  0  0
   -0.0810   -7.5038    0.8535 C   0  0  0  0  0  0  0  0  0  0  0  0
    0.3508   -8.5753    0.2784 O   0  0  0  0  0  0  0  0  0  0  0  0
    0.8601   -6.2756    0.9640 C   0  0  1  0  0  0  0  0  0  0  0  0
    1.8958   -6.5891    2.0620 C   0  0  0  0  0  0  0  0  0  0  0  0
    1.4164   -5.9874   -0.3537 N   0  0  0  0  0  0  0  0  0  0  0  0
    2.1784   -6.8664   -1.1703 C   0  0  0  0  0  0  0  0  0  0  0  0
    1.7521   -7.1180   -2.3481 O   0  0  0  0  0  0  0  0  0  0  0  0
    3.5504   -7.3623   -0.7458 C   0  0  1  0  0  0  0  0  0  0  0  0
    3.6263   -8.8908   -1.0646 C   0  0  0  0  0  0  0  0  0  0  0  0
    4.5545   -6.6956   -1.5648 N   0  0  0  0  0  0  0  0  0  0  0  0
    5.2461   -5.5541   -1.0972 C   0  0  0  0  0  0  0  0  0  0  0  0
    4.9303   -4.4160   -1.5629 O   0  0  0  0  0  0  0  0  0  0  0  0
    6.4618   -5.6714   -0.2041 C   0  0  1  0  0  0  0  0  0  0  0  0
    6.2574   -6.4915    1.0976 C   0  0  0  0  0  0  0  0  0  0  0  0
    7.5378   -6.2583   -1.0139 N   0  0  0  0  0  0  0  0  0  0  0  0
    8.8846   -5.8418   -0.9018 C   0  0  0  0  0  0  0  0  0  0  0  0
    9.7144   -6.6658   -0.4232 O   0  0  0  0  0  0  0  0  0  0  0  0
    9.3876   -4.6505   -1.6672 C   0  0  1  0  0  0  0  0  0  0  0  0
    9.8337   -5.1475   -3.0335 C   0  0  0  0  0  0  0  0  0  0  0  0
    8.2971   -3.6543   -1.8198 N   0  0  0  0  0  0  0  0  0  0  0  0
    8.4702   -2.2432   -1.6768 C   0  0  0  0  0  0  0  0  0  0  0  0
    7.9238   -1.4521   -2.5037 O   0  0  0  0  0  0  0  0  0  0  0  0
    9.1626   -1.6254   -0.4761 C   0  0  1  0  0  0  0  0  0  0  0  0
    8.9441   -2.4765    0.8150 C   0  0  0  0  0  0  0  0  0  0  0  0
   10.5525   -1.4432   -0.7631 N   0  0  0  0  0  0  0  0  0  0  0  0
   11.1628   -0.1877   -0.9868 C   0  0  0  0  0  0  0  0  0  0  0  0
   12.1236   -0.1497   -1.8533 O   0  0  0  0  0  0  0  0  0  0  0  0
   10.9319    1.0065   -0.1377 C   0  0  1  0  0  0  0  0  0  0  0  0
   11.9463    1.0276    1.0030 C   0  0  0  0  0  0  0  0  0  0  0  0
   11.1021    2.2064   -0.9727 N   0  0  0  0  0  0  0  0  0  0  0  0
    9.9622    2.9638   -1.3990 C   0  0  0  0  0  0  0  0  0  0  0  0
    9.4898    2.8045   -2.5629 O   0  0  0  0  0  0  0  0  0  0  0  0
    9.4432    4.1135   -0.5684 C   0  0  1  0  0  0  0  0  0  0  0  0
   10.4556    4.4956    0.5269 C   0  0  0  0  0  0  0  0  0  0  0  0
    9.2357    5.2823   -1.4189 N   0  0  0  0  0  0  0  0  0  0  0  0
    7.9516    5.7628   -1.8781 C   0  0  0  0  0  0  0  0  0  0  0  0
    7.8413    6.0842   -3.0998 O   0  0  0  0  0  0  0  0  0  0  0  0
    6.7568    5.9316   -0.9552 C   0  0  1  0  0  0  0  0  0  0  0  0
    7.1566    6.3822    0.4769 C   0  0  0  0  0  0  0  0  0  0  0  0
    5.8569    6.9833   -1.5035 N   0  0  0  0  0  0  0  0  0  0  0  0
    4.4429    7.0760   -1.2127 C   0  0  0  0  0  0  0  0  0  0  0  0
    3.5850    6.8708   -2.1451 O   0  0  0  0  0  0  0  0  0  0  0  0
    3.9951    7.6038    0.1186 C   0  0  1  0  0  0  0  0  0  0  0  0
    3.3061    8.9778   -0.1426 C   0  0  0  0  0  0  0  0  0  0  0  0
    3.1443    6.6321    0.8062 N   0  0  0  0  0  0  0  0  0  0  0  0
    1.9264    6.9476    1.4535 C   0  0  0  0  0  0  0  0  0  0  0  0
    1.8090    6.7386    2.7076 O   0  0  0  0  0  0  0  0  0  0  0  0
   -4.2415   -3.3268    2.1657 C   0  0  0  0  0  0  0  0  0  0  0  0
   -3.7953   -3.4584    3.3550 O   0  0  0  0  0  0  0  0  0  0  0  0
   -5.6529   -3.2824    1.9202 N   0  0  0  0  0  0  0  0  0  0  0  0
   -6.2778   -2.3324    0.9387 C   0  0  2  0  0  0  0  0  0  0  0  0
   -7.0932   -1.2612    1.6688 C   0  0  0  0  0  0  0  0  0  0  0  0
   -6.9925   -3.2195   -0.0391 C   0  0  0  0  0  0  0  0  0  0  0  0
   -6.2697   -3.7450   -0.9707 O   0  0  0  0  0  0  0  0  0  0  0  0
   -8.3731   -3.6509    0.0498 N   0  0  0  0  0  0  0  0  0  0  0  0
   -9.5490   -2.8434    0.3722 C   0  0  2  0  0  0  0  0  0  0  0  0
  -10.1016   -3.3298    1.7121 C   0  0  0  0  0  0  0  0  0  0  0  0
  -10.6106   -3.0381   -0.6704 C   0  0  0  0  0  0  0  0  0  0  0  0
  -11.3475   -4.1049   -0.6454 O   0  0  0  0  0  0  0  0  0  0  0  0
  -10.9239   -2.0221   -1.6282 N   0  0  0  0  0  0  0  0  0  0  0  0
   -9.9594   -1.3977   -2.5917 C   0  0  2  0  0  0  0  0  0  0  0  0
   -8.7594   -2.3121   -2.9926 C   0  0  0  0  0  0  0  0  0  0  0  0
   -9.4925   -0.0307   -2.1673 C   0  0  0  0  0  0  0  0  0  0  0  0
   -8.3642    0.1003   -1.6039 O   0  0  0  0  0  0  0  0  0  0  0  0
  -10.2318    1.1697   -2.5537 N   0  0  0  0  0  0  0  0  0  0  0  0
  -11.5375    1.4706   -1.9029 C   0  0  2  0  0  0  0  0  0  0  0  0
  -12.6361    1.6750   -2.9442 C   0  0  0  0  0  0  0  0  0  0  0  0
  -11.4051    2.8115   -1.1892 C   0  0  0  0  0  0  0  0  0  0  0  0
  -12.4510    3.3276   -0.6928 O   0  0  0  0  0  0  0  0  0  0  0  0
  -10.2207    3.6362   -1.1576 N   0  0  0  0  0  0  0  0  0  0  0  0
   -8.7628    3.2798   -0.9974 C   0  0  1  0  0  0  0  0  0  0  0  0
   -7.9461    4.5482   -1.0130 C   0  0  0  0  0  0  0  0  0  0  0  0
   -6.8262    4.6217   -1.9029 N   0  0  0  0  0  0  0  0  0  0  0  0
   -8.1751    5.4587   -0.1374 O   0  0  0  0  0  0  0  0  0  0  0  0
   -8.4847    2.3850    0.2664 C   0  0  0  0  0  0  0  0  0  0  0  0
   -8.1638    3.3358    1.9091 S   0  0  0  0  0  0  0  0  0  0  0  0
   -6.5697    2.6192    2.3760 C   0  0  0  0  0  0  0  0  0  0  0  0
   -0.8109    9.7826    3.3981 H   0  0  0  0  0  0  0  0  0  0  0  0
   -0.7891   11.2751    2.3249 H   0  0  0  0  0  0  0  0  0  0  0  0
   -2.1975   10.1095    2.2156 H   0  0  0  0  0  0  0  0  0  0  0  0
   -1.0176    7.5438    2.0447 H   0  0  0  0  0  0  0  0  0  0  0  0
    0.8560    7.6590   -0.3148 H   0  0  0  0  0  0  0  0  0  0  0  0
    0.1506    5.0966    1.2666 H   0  0  0  0  0  0  0  0  0  0  0  0
    0.7040    5.3099   -0.4319 H   0  0  0  0  0  0  0  0  0  0  0  0
   -3.2779    6.1544    1.4003 H   0  0  0  0  0  0  0  0  0  0  0  0
   -1.9853    5.2171    2.1379 H   0  0  0  0  0  0  0  0  0  0  0  0
   -5.1539    4.8327    1.9306 H   0  0  0  0  0  0  0  0  0  0  0  0
   -5.4054    0.7515    0.7492 H   0  0  0  0  0  0  0  0  0  0  0  0
   -1.8343    2.8565    0.0106 H   0  0  0  0  0  0  0  0  0  0  0  0
   -3.0468    1.7148    2.8694 H   0  0  0  0  0  0  0  0  0  0  0  0
   -1.6863    0.9253    1.9235 H   0  0  0  0  0  0  0  0  0  0  0  0
   -1.6203   -1.5087    1.3556 H   0  0  0  0  0  0  0  0  0  0  0  0
   -2.9192   -1.0727    0.0948 H   0  0  0  0  0  0  0  0  0  0  0  0
   -3.7213   -3.1557    0.0480 H   0  0  0  0  0  0  0  0  0  0  0  0
   -1.1542   -3.6137    1.3344 H   0  0  0  0  0  0  0  0  0  0  0  0
   -1.6822   -5.8746    2.7757 H   0  0  0  0  0  0  0  0  0  0  0  0
   -3.5591   -7.7067    2.9609 H   0  0  0  0  0  0  0  0  0  0  0  0
   -4.1164   -6.0013    2.9057 H   0  0  0  0  0  0  0  0  0  0  0  0
   -4.2202   -7.0113    1.3497 H   0  0  0  0  0  0  0  0  0  0  0  0
   -1.8857   -8.4762    1.4126 H   0  0  0  0  0  0  0  0  0  0  0  0
    0.3216   -5.4131    1.3240 H   0  0  0  0  0  0  0  0  0  0  0  0
    2.2667   -7.6328    1.9541 H   0  0  0  0  0  0  0  0  0  0  0  0
    2.7525   -5.8665    1.9633 H   0  0  0  0  0  0  0  0  0  0  0  0
    1.4085   -6.5202    3.0216 H   0  0  0  0  0  0  0  0  0  0  0  0
    0.8690   -5.2692   -0.9066 H   0  0  0  0  0  0  0  0  0  0  0  0
    3.7449   -7.2726    0.3178 H   0  0  0  0  0  0  0  0  0  0  0  0
    3.3305   -9.1281   -2.1051 H   0  0  0  0  0  0  0  0  0  0  0  0
    2.9474   -9.4695   -0.3569 H   0  0  0  0  0  0  0  0  0  0  0  0
    4.6441   -9.2662   -0.9019 H   0  0  0  0  0  0  0  0  0  0  0  0
    4.5100   -6.8345   -2.5995 H   0  0  0  0  0  0  0  0  0  0  0  0
    6.7479   -4.6329    0.1165 H   0  0  0  0  0  0  0  0  0  0  0  0
    7.1419   -6.4027    1.6848 H   0  0  0  0  0  0  0  0  0  0  0  0
    6.1045   -7.5628    0.7890 H   0  0  0  0  0  0  0  0  0  0  0  0
    5.3637   -6.1153    1.6433 H   0  0  0  0  0  0  0  0  0  0  0  0
    7.3512   -7.2461   -1.3292 H   0  0  0  0  0  0  0  0  0  0  0  0
   10.2591   -4.2250   -1.1225 H   0  0  0  0  0  0  0  0  0  0  0  0
   10.4061   -6.1300   -2.9538 H   0  0  0  0  0  0  0  0  0  0  0  0
   10.5341   -4.3907   -3.4856 H   0  0  0  0  0  0  0  0  0  0  0  0
    8.9623   -5.3242   -3.6787 H   0  0  0  0  0  0  0  0  0  0  0  0
    7.4610   -3.9814   -2.3687 H   0  0  0  0  0  0  0  0  0  0  0  0
    8.6208   -0.6392   -0.2532 H   0  0  0  0  0  0  0  0  0  0  0  0
    9.1243   -1.8536    1.7009 H   0  0  0  0  0  0  0  0  0  0  0  0
    9.6496   -3.3223    0.8238 H   0  0  0  0  0  0  0  0  0  0  0  0
    7.9016   -2.8825    0.8350 H   0  0  0  0  0  0  0  0  0  0  0  0
   11.1166   -2.2712   -0.9885 H   0  0  0  0  0  0  0  0  0  0  0  0
    9.9029    1.0102    0.3135 H   0  0  0  0  0  0  0  0  0  0  0  0
   12.0953   -0.0136    1.4118 H   0  0  0  0  0  0  0  0  0  0  0  0
   11.5855    1.6765    1.8328 H   0  0  0  0  0  0  0  0  0  0  0  0
   12.9389    1.3848    0.6623 H   0  0  0  0  0  0  0  0  0  0  0  0
   11.9764    2.3543   -1.5216 H   0  0  0  0  0  0  0  0  0  0  0  0
    8.4735    3.7726   -0.1047 H   0  0  0  0  0  0  0  0  0  0  0  0
   10.1323    5.4067    1.0528 H   0  0  0  0  0  0  0  0  0  0  0  0
   10.5468    3.6757    1.2584 H   0  0  0  0  0  0  0  0  0  0  0  0
   11.4328    4.7056    0.0511 H   0  0  0  0  0  0  0  0  0  0  0  0
   10.0520    5.5658   -1.9945 H   0  0  0  0  0  0  0  0  0  0  0  0
    6.2435    4.9795   -0.8598 H   0  0  0  0  0  0  0  0  0  0  0  0
    7.4150    7.4830    0.5033 H   0  0  0  0  0  0  0  0  0  0  0  0
    6.3179    6.1630    1.1747 H   0  0  0  0  0  0  0  0  0  0  0  0
    8.0165    5.8217    0.8348 H   0  0  0  0  0  0  0  0  0  0  0  0
    6.1184    7.4673   -2.3970 H   0  0  0  0  0  0  0  0  0  0  0  0
    4.8765    7.8710    0.7532 H   0  0  0  0  0  0  0  0  0  0  0  0
    4.0622    9.7509   -0.3698 H   0  0  0  0  0  0  0  0  0  0  0  0
    2.7056    9.3012    0.7546 H   0  0  0  0  0  0  0  0  0  0  0  0
    2.6126    8.9218   -1.0365 H   0  0  0  0  0  0  0  0  0  0  0  0
    3.6693    5.7996    1.1757 H   0  0  0  0  0  0  0  0  0  0  0  0
   -6.2959   -3.8286    2.5684 H   0  0  0  0  0  0  0  0  0  0  0  0
   -5.5153   -1.7776    0.4360 H   0  0  0  0  0  0  0  0  0  0  0  0
   -7.5035   -0.5596    0.9155 H   0  0  0  0  0  0  0  0  0  0  0  0
   -7.8874   -1.7106    2.2675 H   0  0  0  0  0  0  0  0  0  0  0  0
   -6.4600   -0.7433    2.3563 H   0  0  0  0  0  0  0  0  0  0  0  0
   -8.5661   -4.6027   -0.3302 H   0  0  0  0  0  0  0  0  0  0  0  0
   -9.3269   -1.7406    0.4279 H   0  0  0  0  0  0  0  0  0  0  0  0
   -9.2952   -3.3334    2.4850 H   0  0  0  0  0  0  0  0  0  0  0  0
  -10.4499   -4.4063    1.6473 H   0  0  0  0  0  0  0  0  0  0  0  0
  -10.9546   -2.7177    2.0566 H   0  0  0  0  0  0  0  0  0  0  0  0
  -11.8815   -2.0268   -2.0041 H   0  0  0  0  0  0  0  0  0  0  0  0
  -10.5359   -1.1944   -3.5586 H   0  0  0  0  0  0  0  0  0  0  0  0
   -7.8043   -2.0905   -2.4259 H   0  0  0  0  0  0  0  0  0  0  0  0
   -8.5092   -2.1449   -4.0758 H   0  0  0  0  0  0  0  0  0  0  0  0
   -8.9704   -3.3826   -2.8263 H   0  0  0  0  0  0  0  0  0  0  0  0
  -10.3458    1.1908   -3.6166 H   0  0  0  0  0  0  0  0  0  0  0  0
  -11.8206    0.6429   -1.2198 H   0  0  0  0  0  0  0  0  0  0  0  0
  -12.4043    2.6010   -3.5624 H   0  0  0  0  0  0  0  0  0  0  0  0
  -12.5905    0.8372   -3.6671 H   0  0  0  0  0  0  0  0  0  0  0  0
  -13.6323    1.6733   -2.5242 H   0  0  0  0  0  0  0  0  0  0  0  0
  -10.4396    4.6846   -1.2307 H   0  0  0  0  0  0  0  0  0  0  0  0
   -8.4724    2.6593   -1.8934 H   0  0  0  0  0  0  0  0  0  0  0  0
   -6.0802    5.3714   -1.7571 H   0  0  0  0  0  0  0  0  0  0  0  0
   -6.7366    3.8887   -2.7611 H   0  0  0  0  0  0  0  0  0  0  0  0
   -7.5566    1.7890    0.0273 H   0  0  0  0  0  0  0  0  0  0  0  0
   -9.2859    1.6657    0.4799 H   0  0  0  0  0  0  0  0  0  0  0  0
   -6.8016    1.5660    2.5937 H   0  0  0  0  0  0  0  0  0  0  0  0
   -6.2389    3.1530    3.3171 H   0  0  0  0  0  0  0  0  0  0  0  0
  1  2  1  0
  2  3  2  0
  2  4  1  0
  4  5  1  0
  5  6  1  0
  6  7  1  0
  7  8  1  0
  8  9  1  0
  9 10  2  0
 10 11  1  0
 11 12  2  0
 12 13  1  0
 13 14  2  0
 13 15  1  0
 15 16  1  0
 16 17  1  0
 17 18  1  0
 18 19  1  0
 19 20  1  0
 20 21  2  0
 20 22  1  0
 22 23  1  0
 22 24  1  0
 24 25  1  0
 25 26  2  0
 25 27  1  0
 27 28  1  0
 27 29  1  0
 29 30  1  0
 30 31  2  0
 30 32  1  0
 32 33  1  0
 32 34  1  0
 34 35  1  0
 35 36  2  0
 35 37  1  0
 37 38  1  0
 37 39  1  0
 39 40  1  0
 40 41  2  0
 40 42  1  0
 42 43  1  0
 42 44  1  0
 44 45  1  0
 45 46  2  0
 45 47  1  0
 47 48  1  0
 47 49  1  0
 49 50  1  0
 50 51  2  0
 50 52  1  0
 52 53  1  0
 52 54  1  0
 54 55  1  0
 55 56  2  0
 55 57  1  0
 57 58  1  0
 57 59  1  0
 59 60  1  0
 60 61  2  0
 60 62  1  0
 62 63  1  0
 62 64  1  0
 64 65  1  0
 65 66  2  0
 65 67  1  0
 67 68  1  0
 67 69  1  0
 69 70  1  0
 70 71  2  0
 18 72  1  0
 72 73  2  0
 72 74  1  0
 74 75  1  0
 75 76  1  0
 75 77  1  0
 77 78  2  0
 77 79  1  0
 79 80  1  0
 80 81  1  0
 80 82  1  0
 82 83  2  0
 82 84  1  0
 84 85  1  0
 85 86  1  0
 85 87  1  0
 87 88  2  0
 87 89  1  0
 89 90  1  0
 90 91  1  0
 90 92  1  0
 92 93  2  0
 92 94  1  0
 94 95  1  0
 95 96  1  0
 96 97  1  0
 96 98  2  0
 95 99  1  0
 99100  1  0
100101  1  0
 70  5  1  0
 14  9  1  0
101 11  1  0
  1102  1  0
  1103  1  0
  1104  1  0
  4105  1  0
  5106  1  6
  6107  1  0
  6108  1  0
  8109  1  0
  8110  1  0
 10111  1  0
 12112  1  0
 14113  1  0
 15114  1  0
 15115  1  0
 17116  1  0
 17117  1  0
 18118  1  6
 19119  1  0
 22120  1  1
 23121  1  0
 23122  1  0
 23123  1  0
 24124  1  0
 27125  1  1
 28126  1  0
 28127  1  0
 28128  1  0
 29129  1  0
 32130  1  1
 33131  1  0
 33132  1  0
 33133  1  0
 34134  1  0
 37135  1  1
 38136  1  0
 38137  1  0
 38138  1  0
 39139  1  0
 42140  1  1
 43141  1  0
 43142  1  0
 43143  1  0
 44144  1  0
 47145  1  1
 48146  1  0
 48147  1  0
 48148  1  0
 49149  1  0
 52150  1  1
 53151  1  0
 53152  1  0
 53153  1  0
 54154  1  0
 57155  1  1
 58156  1  0
 58157  1  0
 58158  1  0
 59159  1  0
 62160  1  1
 63161  1  0
 63162  1  0
 63163  1  0
 64164  1  0
 67165  1  1
 68166  1  0
 68167  1  0
 68168  1  0
 69169  1  0
 74170  1  0
 75171  1  6
 76172  1  0
 76173  1  0
 76174  1  0
 79175  1  0
 80176  1  1
 81177  1  0
 81178  1  0
 81179  1  0
 84180  1  0
 85181  1  6
 86182  1  0
 86183  1  0
 86184  1  0
 89185  1  0
 90186  1  1
 91187  1  0
 91188  1  0
 91189  1  0
 94190  1  0
 95191  1  6
 97192  1  0
 97193  1  0
 99194  1  0
 99195  1  0
101196  1  0
101197  1  0
M  END
