
     RDKit          3D

207209  0  0  0  0  0  0  0  0999 V2000
    2.6492    9.5477   -1.4088 C   0  0  0  0  0  0  0  0  0  0  0  0
    1.9732    8.6925   -0.3864 C   0  0  0  0  0  0  0  0  0  0  0  0
    1.4555    9.2242    0.6337 O   0  0  0  0  0  0  0  0  0  0  0  0
    1.9435    7.2666   -0.5646 N   0  0  0  0  0  0  0  0  0  0  0  0
    1.3000    6.3725    0.3982 C   0  0  1  0  0  0  0  0  0  0  0  0
    0.9476    5.0181   -0.2358 C   0  0  0  0  0  0  0  0  0  0  0  0
   -0.1163    5.2734   -1.7037 S   0  0  0  0  0  0  0  0  0  0  0  0
   -0.9899    3.6692   -1.6210 C   0  0  0  0  0  0  0  0  0  0  0  0
   -2.1177    3.7087   -0.6201 C   0  0  0  0  0  0  0  0  0  0  0  0
   -3.1212    4.6903   -0.7280 C   0  0  0  0  0  0  0  0  0  0  0  0
   -4.1485    4.7596    0.2194 C   0  0  0  0  0  0  0  0  0  0  0  0
   -4.2225    3.7786    1.2243 C   0  0  0  0  0  0  0  0  0  0  0  0
   -3.2831    2.7392    1.2980 C   0  0  0  0  0  0  0  0  0  0  0  0
   -2.1945    2.7499    0.4045 C   0  0  0  0  0  0  0  0  0  0  0  0
   -3.3934    1.7405    2.4224 C   0  0  0  0  0  0  0  0  0  0  0  0
   -2.6434    0.1081    2.0713 S   0  0  0  0  0  0  0  0  0  0  0  0
   -3.7196   -0.3669    0.6543 C   0  0  0  0  0  0  0  0  0  0  0  0
   -3.5190   -1.8390    0.2620 C   0  0  1  0  0  0  0  0  0  0  0  0
   -2.1315   -2.0674   -0.1672 N   0  0  0  0  0  0  0  0  0  0  0  0
   -1.7963   -2.9349   -1.2584 C   0  0  0  0  0  0  0  0  0  0  0  0
   -1.2875   -2.4402   -2.3028 O   0  0  0  0  0  0  0  0  0  0  0  0
   -1.8938   -4.4291   -1.1211 C   0  0  1  0  0  0  0  0  0  0  0  0
   -2.6184   -5.0230   -2.3353 C   0  0  0  0  0  0  0  0  0  0  0  0
   -0.5496   -5.0008   -0.9945 N   0  0  0  0  0  0  0  0  0  0  0  0
   -0.3337   -6.3639   -0.6329 C   0  0  0  0  0  0  0  0  0  0  0  0
   -0.7669   -6.7727    0.4779 O   0  0  0  0  0  0  0  0  0  0  0  0
    0.2703   -7.3303   -1.6070 C   0  0  1  0  0  0  0  0  0  0  0  0
    1.2092   -6.6744   -2.6245 C   0  0  0  0  0  0  0  0  0  0  0  0
    0.9333   -8.4555   -0.9280 N   0  0  0  0  0  0  0  0  0  0  0  0
    2.2177   -8.4377   -0.2665 C   0  0  0  0  0  0  0  0  0  0  0  0
    2.8579   -9.5249   -0.1821 O   0  0  0  0  0  0  0  0  0  0  0  0
    2.8147   -7.1984    0.3747 C   0  0  1  0  0  0  0  0  0  0  0  0
    2.7762   -7.3742    1.8993 C   0  0  0  0  0  0  0  0  0  0  0  0
    4.2017   -7.0222   -0.0741 N   0  0  0  0  0  0  0  0  0  0  0  0
    5.0279   -5.9221    0.3434 C   0  0  0  0  0  0  0  0  0  0  0  0
    4.4664   -4.8686    0.7616 O   0  0  0  0  0  0  0  0  0  0  0  0
    6.5421   -6.0517    0.4370 C   0  0  1  0  0  0  0  0  0  0  0  0
    7.1089   -6.9945   -0.6442 C   0  0  0  0  0  0  0  0  0  0  0  0
    7.1957   -4.7248    0.3936 N   0  0  0  0  0  0  0  0  0  0  0  0
    8.6162   -4.5588    0.2479 C   0  0  0  0  0  0  0  0  0  0  0  0
    9.3466   -4.5591    1.2839 O   0  0  0  0  0  0  0  0  0  0  0  0
    9.2419   -4.4085   -1.1207 C   0  0  1  0  0  0  0  0  0  0  0  0
    8.5206   -3.3613   -1.9781 C   0  0  0  0  0  0  0  0  0  0  0  0
   10.6863   -4.1720   -1.0327 N   0  0  0  0  0  0  0  0  0  0  0  0
   11.3334   -2.8905   -1.1197 C   0  0  0  0  0  0  0  0  0  0  0  0
   12.2799   -2.7419   -1.9518 O   0  0  0  0  0  0  0  0  0  0  0  0
   10.9982   -1.7713   -0.1724 C   0  0  1  0  0  0  0  0  0  0  0  0
   11.8537   -1.8871    1.1009 C   0  0  0  0  0  0  0  0  0  0  0  0
   11.1690   -0.4653   -0.8331 N   0  0  0  0  0  0  0  0  0  0  0  0
   12.3454    0.3513   -0.7069 C   0  0  0  0  0  0  0  0  0  0  0  0
   13.4311   -0.0449   -1.2210 O   0  0  0  0  0  0  0  0  0  0  0  0
   12.2697    1.6916   -0.0311 C   0  0  1  0  0  0  0  0  0  0  0  0
   13.2751    1.7734    1.1171 C   0  0  0  0  0  0  0  0  0  0  0  0
   12.5538    2.7532   -1.0036 N   0  0  0  0  0  0  0  0  0  0  0  0
   11.7150    3.8973   -1.2414 C   0  0  0  0  0  0  0  0  0  0  0  0
   12.2599    4.9866   -1.5645 O   0  0  0  0  0  0  0  0  0  0  0  0
   10.2052    3.8584   -1.1365 C   0  0  1  0  0  0  0  0  0  0  0  0
    9.5952    2.5741   -1.7299 C   0  0  0  0  0  0  0  0  0  0  0  0
    9.7661    4.0853    0.2436 N   0  0  0  0  0  0  0  0  0  0  0  0
    8.4244    4.5021    0.5259 C   0  0  0  0  0  0  0  0  0  0  0  0
    7.4929    4.1124   -0.2198 O   0  0  0  0  0  0  0  0  0  0  0  0
    8.1394    5.4693    1.6577 C   0  0  1  0  0  0  0  0  0  0  0  0
    8.7420    6.8452    1.2906 C   0  0  0  0  0  0  0  0  0  0  0  0
    6.6880    5.5248    1.9215 N   0  0  0  0  0  0  0  0  0  0  0  0
    5.8155    6.5972    1.5362 C   0  0  0  0  0  0  0  0  0  0  0  0
    6.0752    7.7743    1.9039 O   0  0  0  0  0  0  0  0  0  0  0  0
    4.5505    6.3339    0.7410 C   0  0  1  0  0  0  0  0  0  0  0  0
    4.8433    5.4347   -0.4556 C   0  0  0  0  0  0  0  0  0  0  0  0
    3.5187    5.7352    1.5869 N   0  0  0  0  0  0  0  0  0  0  0  0
    2.1542    6.1775    1.6347 C   0  0  0  0  0  0  0  0  0  0  0  0
    1.6089    6.3238    2.7590 O   0  0  0  0  0  0  0  0  0  0  0  0
   -3.9121   -2.7717    1.3901 C   0  0  0  0  0  0  0  0  0  0  0  0
   -3.0354   -3.4570    1.9923 O   0  0  0  0  0  0  0  0  0  0  0  0
   -5.2809   -2.8237    1.8167 N   0  0  0  0  0  0  0  0  0  0  0  0
   -6.0297   -4.0688    2.0063 C   0  0  2  0  0  0  0  0  0  0  0  0
   -5.5552   -4.8164    3.2550 C   0  0  0  0  0  0  0  0  0  0  0  0
   -5.9530   -4.9113    0.7513 C   0  0  0  0  0  0  0  0  0  0  0  0
   -5.0830   -5.8353    0.6724 O   0  0  0  0  0  0  0  0  0  0  0  0
   -6.7337   -4.6365   -0.4306 N   0  0  0  0  0  0  0  0  0  0  0  0
   -8.0236   -3.9283   -0.5298 C   0  0  2  0  0  0  0  0  0  0  0  0
   -7.9070   -2.4340   -0.2037 C   0  0  0  0  0  0  0  0  0  0  0  0
   -9.1187   -4.6065    0.2524 C   0  0  0  0  0  0  0  0  0  0  0  0
   -8.8471   -5.4458    1.1519 O   0  0  0  0  0  0  0  0  0  0  0  0
  -10.4825   -4.3787   -0.0986 N   0  0  0  0  0  0  0  0  0  0  0  0
  -11.2585   -3.2707    0.4591 C   0  0  2  0  0  0  0  0  0  0  0  0
  -12.3071   -3.8191    1.4321 C   0  0  0  0  0  0  0  0  0  0  0  0
  -11.9096   -2.4747   -0.6485 C   0  0  0  0  0  0  0  0  0  0  0  0
  -12.3079   -3.0755   -1.6898 O   0  0  0  0  0  0  0  0  0  0  0  0
  -12.0901   -1.0473   -0.5701 N   0  0  0  0  0  0  0  0  0  0  0  0
  -12.1261   -0.2748    0.6768 C   0  0  2  0  0  0  0  0  0  0  0  0
  -13.4025    0.5697    0.7501 C   0  0  0  0  0  0  0  0  0  0  0  0
  -10.8776    0.5493    0.7979 C   0  0  0  0  0  0  0  0  0  0  0  0
   -9.8354    0.0046    1.2685 O   0  0  0  0  0  0  0  0  0  0  0  0
  -10.8514    1.9498    0.4833 N   0  0  0  0  0  0  0  0  0  0  0  0
  -10.8332    2.4448   -0.8968 C   0  0  2  0  0  0  0  0  0  0  0  0
   -9.7849    1.7010   -1.7452 C   0  0  0  0  0  0  0  0  0  0  0  0
  -10.5810    3.9368   -0.8860 C   0  0  0  0  0  0  0  0  0  0  0  0
  -11.4041    4.7035   -0.3124 O   0  0  0  0  0  0  0  0  0  0  0  0
   -9.4064    4.4898   -1.4896 N   0  0  0  0  0  0  0  0  0  0  0  0
   -8.2764    5.0310   -0.7161 C   0  0  1  0  0  0  0  0  0  0  0  0
   -8.2083    4.4340    0.6783 C   0  0  0  0  0  0  0  0  0  0  0  0
   -8.3920    5.2535    1.8308 N   0  0  0  0  0  0  0  0  0  0  0  0
   -8.0070    3.2004    0.8243 O   0  0  0  0  0  0  0  0  0  0  0  0
   -6.9434    4.8063   -1.4672 C   0  0  0  0  0  0  0  0  0  0  0  0
   -5.8515    6.2728   -1.3724 S   0  0  0  0  0  0  0  0  0  0  0  0
   -5.0932    5.9358    0.2521 C   0  0  0  0  0  0  0  0  0  0  0  0
    3.7282    9.2976   -1.4384 H   0  0  0  0  0  0  0  0  0  0  0  0
    2.2028    9.3400   -2.4050 H   0  0  0  0  0  0  0  0  0  0  0  0
    2.5297   10.6278   -1.1732 H   0  0  0  0  0  0  0  0  0  0  0  0
    2.2774    6.8958   -1.4850 H   0  0  0  0  0  0  0  0  0  0  0  0
    0.3313    6.8339    0.7104 H   0  0  0  0  0  0  0  0  0  0  0  0
    0.4083    4.4093    0.5257 H   0  0  0  0  0  0  0  0  0  0  0  0
    1.8592    4.4585   -0.5403 H   0  0  0  0  0  0  0  0  0  0  0  0
   -0.2748    2.8499   -1.3873 H   0  0  0  0  0  0  0  0  0  0  0  0
   -1.4233    3.4705   -2.6266 H   0  0  0  0  0  0  0  0  0  0  0  0
   -3.0761    5.4204   -1.5261 H   0  0  0  0  0  0  0  0  0  0  0  0
   -4.9798    3.8489    1.9901 H   0  0  0  0  0  0  0  0  0  0  0  0
   -1.3987    2.0246    0.4990 H   0  0  0  0  0  0  0  0  0  0  0  0
   -4.4581    1.5867    2.6798 H   0  0  0  0  0  0  0  0  0  0  0  0
   -2.8813    2.1581    3.3004 H   0  0  0  0  0  0  0  0  0  0  0  0
   -3.4724    0.2673   -0.2295 H   0  0  0  0  0  0  0  0  0  0  0  0
   -4.7808   -0.1634    0.9007 H   0  0  0  0  0  0  0  0  0  0  0  0
   -4.1902   -2.0582   -0.5969 H   0  0  0  0  0  0  0  0  0  0  0  0
   -1.3983   -1.3522    0.0620 H   0  0  0  0  0  0  0  0  0  0  0  0
   -2.4800   -4.6837   -0.2131 H   0  0  0  0  0  0  0  0  0  0  0  0
   -3.5985   -4.5198   -2.4804 H   0  0  0  0  0  0  0  0  0  0  0  0
   -2.7989   -6.1062   -2.1857 H   0  0  0  0  0  0  0  0  0  0  0  0
   -2.0072   -4.8902   -3.2511 H   0  0  0  0  0  0  0  0  0  0  0  0
    0.2900   -4.3677   -0.9507 H   0  0  0  0  0  0  0  0  0  0  0  0
   -0.5776   -7.7439   -2.1991 H   0  0  0  0  0  0  0  0  0  0  0  0
    1.6976   -7.4514   -3.2501 H   0  0  0  0  0  0  0  0  0  0  0  0
    0.6316   -6.0085   -3.2986 H   0  0  0  0  0  0  0  0  0  0  0  0
    1.9945   -6.0618   -2.1346 H   0  0  0  0  0  0  0  0  0  0  0  0
    0.4999   -9.3967   -1.0720 H   0  0  0  0  0  0  0  0  0  0  0  0
    2.2254   -6.2935    0.1216 H   0  0  0  0  0  0  0  0  0  0  0  0
    1.7505   -7.6503    2.2287 H   0  0  0  0  0  0  0  0  0  0  0  0
    3.0561   -6.4259    2.4032 H   0  0  0  0  0  0  0  0  0  0  0  0
    3.4899   -8.1675    2.2228 H   0  0  0  0  0  0  0  0  0  0  0  0
    4.5326   -7.5990   -0.8801 H   0  0  0  0  0  0  0  0  0  0  0  0
    6.7707   -6.5147    1.4234 H   0  0  0  0  0  0  0  0  0  0  0  0
    6.6735   -8.0098   -0.5493 H   0  0  0  0  0  0  0  0  0  0  0  0
    6.9074   -6.5941   -1.6599 H   0  0  0  0  0  0  0  0  0  0  0  0
    8.2012   -7.1291   -0.4984 H   0  0  0  0  0  0  0  0  0  0  0  0
    6.7617   -3.9964    1.0082 H   0  0  0  0  0  0  0  0  0  0  0  0
    9.1077   -5.3770   -1.6520 H   0  0  0  0  0  0  0  0  0  0  0  0
    7.4914   -3.7039   -2.2036 H   0  0  0  0  0  0  0  0  0  0  0  0
    9.0603   -3.2209   -2.9409 H   0  0  0  0  0  0  0  0  0  0  0  0
    8.4495   -2.3844   -1.4547 H   0  0  0  0  0  0  0  0  0  0  0  0
   11.3031   -5.0038   -1.1909 H   0  0  0  0  0  0  0  0  0  0  0  0
    9.9418   -1.8552    0.1545 H   0  0  0  0  0  0  0  0  0  0  0  0
   11.6200   -2.8380    1.6259 H   0  0  0  0  0  0  0  0  0  0  0  0
   12.9348   -1.8737    0.8649 H   0  0  0  0  0  0  0  0  0  0  0  0
   11.6204   -1.0445    1.7873 H   0  0  0  0  0  0  0  0  0  0  0  0
   10.5078   -0.2440   -1.6123 H   0  0  0  0  0  0  0  0  0  0  0  0
   11.2637    1.8200    0.4099 H   0  0  0  0  0  0  0  0  0  0  0  0
   13.1758    2.7537    1.6330 H   0  0  0  0  0  0  0  0  0  0  0  0
   13.0844    0.9659    1.8611 H   0  0  0  0  0  0  0  0  0  0  0  0
   14.3162    1.6761    0.7405 H   0  0  0  0  0  0  0  0  0  0  0  0
   13.5155    2.7913   -1.4145 H   0  0  0  0  0  0  0  0  0  0  0  0
    9.8274    4.7016   -1.7676 H   0  0  0  0  0  0  0  0  0  0  0  0
    9.5124    1.7759   -0.9693 H   0  0  0  0  0  0  0  0  0  0  0  0
    8.5714    2.7772   -2.1086 H   0  0  0  0  0  0  0  0  0  0  0  0
   10.1908    2.2090   -2.5949 H   0  0  0  0  0  0  0  0  0  0  0  0
   10.4678    4.0947    1.0244 H   0  0  0  0  0  0  0  0  0  0  0  0
    8.6493    5.1115    2.5794 H   0  0  0  0  0  0  0  0  0  0  0  0
    8.6562    7.5382    2.1505 H   0  0  0  0  0  0  0  0  0  0  0  0
    9.8246    6.7399    1.0725 H   0  0  0  0  0  0  0  0  0  0  0  0
    8.2491    7.2716    0.3940 H   0  0  0  0  0  0  0  0  0  0  0  0
    6.2403    4.6256    2.2409 H   0  0  0  0  0  0  0  0  0  0  0  0
    4.2130    7.3164    0.3614 H   0  0  0  0  0  0  0  0  0  0  0  0
    5.6946    5.8307   -1.0530 H   0  0  0  0  0  0  0  0  0  0  0  0
    3.9657    5.3795   -1.1295 H   0  0  0  0  0  0  0  0  0  0  0  0
    5.0558    4.4007   -0.1101 H   0  0  0  0  0  0  0  0  0  0  0  0
    3.8222    5.0739    2.3368 H   0  0  0  0  0  0  0  0  0  0  0  0
   -5.8387   -1.9455    1.7761 H   0  0  0  0  0  0  0  0  0  0  0  0
   -7.0891   -3.8259    2.1942 H   0  0  0  0  0  0  0  0  0  0  0  0
   -6.2389   -5.6639    3.4789 H   0  0  0  0  0  0  0  0  0  0  0  0
   -5.5708   -4.1235    4.1205 H   0  0  0  0  0  0  0  0  0  0  0  0
   -4.5303   -5.2127    3.1392 H   0  0  0  0  0  0  0  0  0  0  0  0
   -6.3934   -5.0704   -1.3219 H   0  0  0  0  0  0  0  0  0  0  0  0
   -8.3383   -3.9752   -1.5984 H   0  0  0  0  0  0  0  0  0  0  0  0
   -8.0108   -2.2419    0.8859 H   0  0  0  0  0  0  0  0  0  0  0  0
   -6.9366   -2.0288   -0.5567 H   0  0  0  0  0  0  0  0  0  0  0  0
   -8.7188   -1.8700   -0.7125 H   0  0  0  0  0  0  0  0  0  0  0  0
  -10.9873   -5.1535   -0.5890 H   0  0  0  0  0  0  0  0  0  0  0  0
  -10.5768   -2.5982    1.0292 H   0  0  0  0  0  0  0  0  0  0  0  0
  -13.0290   -3.0326    1.7432 H   0  0  0  0  0  0  0  0  0  0  0  0
  -12.8859   -4.6462    0.9681 H   0  0  0  0  0  0  0  0  0  0  0  0
  -11.7977   -4.1930    2.3436 H   0  0  0  0  0  0  0  0  0  0  0  0
  -12.2668   -0.5275   -1.4647 H   0  0  0  0  0  0  0  0  0  0  0  0
  -12.1602   -0.9557    1.5560 H   0  0  0  0  0  0  0  0  0  0  0  0
  -13.4904    1.2473   -0.1208 H   0  0  0  0  0  0  0  0  0  0  0  0
  -13.4238    1.1755    1.6790 H   0  0  0  0  0  0  0  0  0  0  0  0
  -14.2897   -0.1056    0.7579 H   0  0  0  0  0  0  0  0  0  0  0  0
  -10.5952    2.5940    1.2663 H   0  0  0  0  0  0  0  0  0  0  0  0
  -11.8223    2.2634   -1.3576 H   0  0  0  0  0  0  0  0  0  0  0  0
   -8.7801    1.7809   -1.2708 H   0  0  0  0  0  0  0  0  0  0  0  0
   -9.7450    2.1240   -2.7730 H   0  0  0  0  0  0  0  0  0  0  0  0
  -10.0441    0.6256   -1.8328 H   0  0  0  0  0  0  0  0  0  0  0  0
   -9.4358    4.6556   -2.5188 H   0  0  0  0  0  0  0  0  0  0  0  0
   -8.4603    6.1226   -0.6197 H   0  0  0  0  0  0  0  0  0  0  0  0
   -8.4224    4.8207    2.7784 H   0  0  0  0  0  0  0  0  0  0  0  0
   -8.3822    6.3029    1.7519 H   0  0  0  0  0  0  0  0  0  0  0  0
   -6.4052    3.8986   -1.1201 H   0  0  0  0  0  0  0  0  0  0  0  0
   -7.1353    4.6384   -2.5481 H   0  0  0  0  0  0  0  0  0  0  0  0
   -4.5162    6.8338    0.5540 H   0  0  0  0  0  0  0  0  0  0  0  0
   -5.8891    5.8041    1.0181 H   0  0  0  0  0  0  0  0  0  0  0  0
  1  2  1  0
  2  3  2  0
  2  4  1  0
  4  5  1  0
  5  6  1  0
  6  7  1  0
  7  8  1  0
  8  9  1  0
  9 10  2  0
 10 11  1  0
 11 12  2  0
 12 13  1  0
 13 14  2  0
 13 15  1  0
 15 16  1  0
 16 17  1  0
 17 18  1  0
 18 19  1  0
 19 20  1  0
 20 21  2  0
 20 22  1  0
 22 23  1  0
 22 24  1  0
 24 25  1  0
 25 26  2  0
 25 27  1  0
 27 28  1  0
 27 29  1  0
 29 30  1  0
 30 31  2  0
 30 32  1  0
 32 33  1  0
 32 34  1  0
 34 35  1  0
 35 36  2  0
 35 37  1  0
 37 38  1  0
 37 39  1  0
 39 40  1  0
 40 41  2  0
 40 42  1  0
 42 43  1  0
 42 44  1  0
 44 45  1  0
 45 46  2  0
 45 47  1  0
 47 48  1  0
 47 49  1  0
 49 50  1  0
 50 51  2  0
 50 52  1  0
 52 53  1  0
 52 54  1  0
 54 55  1  0
 55 56  2  0
 55 57  1  0
 57 58  1  0
 57 59  1  0
 59 60  1  0
 60 61  2  0
 60 62  1  0
 62 63  1  0
 62 64  1  0
 64 65  1  0
 65 66  2  0
 65 67  1  0
 67 68  1  0
 67 69  1  0
 69 70  1  0
 70 71  2  0
 18 72  1  0
 72 73  2  0
 72 74  1  0
 74 75  1  0
 75 76  1  0
 75 77  1  0
 77 78  2  0
 77 79  1  0
 79 80  1  0
 80 81  1  0
 80 82  1  0
 82 83  2  0
 82 84  1  0
 84 85  1  0
 85 86  1  0
 85 87  1  0
 87 88  2  0
 87 89  1  0
 89 90  1  0
 90 91  1  0
 90 92  1  0
 92 93  2  0
 92 94  1  0
 94 95  1  0
 95 96  1  0
 95 97  1  0
 97 98  2  0
 97 99  1  0
 99100  1  0
100101  1  0
101102  1  0
101103  2  0
100104  1  0
104105  1  0
105106  1  0
 70  5  1  0
 14  9  1  0
106 11  1  0
  1107  1  0
  1108  1  0
  1109  1  0
  4110  1  0
  5111  1  1
  6112  1  0
  6113  1  0
  8114  1  0
  8115  1  0
 10116  1  0
 12117  1  0
 14118  1  0
 15119  1  0
 15120  1  0
 17121  1  0
 17122  1  0
 18123  1  6
 19124  1  0
 22125  1  1
 23126  1  0
 23127  1  0
 23128  1  0
 24129  1  0
 27130  1  6
 28131  1  0
 28132  1  0
 28133  1  0
 29134  1  0
 32135  1  1
 33136  1  0
 33137  1  0
 33138  1  0
 34139  1  0
 37140  1  1
 38141  1  0
 38142  1  0
 38143  1  0
 39144  1  0
 42145  1  6
 43146  1  0
 43147  1  0
 43148  1  0
 44149  1  0
 47150  1  1
 48151  1  0
 48152  1  0
 48153  1  0
 49154  1  0
 52155  1  1
 53156  1  0
 53157  1  0
 53158  1  0
 54159  1  0
 57160  1  6
 58161  1  0
 58162  1  0
 58163  1  0
 59164  1  0
 62165  1  1
 63166  1  0
 63167  1  0
 63168  1  0
 64169  1  0
 67170  1  6
 68171  1  0
 68172  1  0
 68173  1  0
 69174  1  0
 74175  1  0
 75176  1  1
 76177  1  0
 76178  1  0
 76179  1  0
 79180  1  0
 80181  1  6
 81182  1  0
 81183  1  0
 81184  1  0
 84185  1  0
 85186  1  1
 86187  1  0
 86188  1  0
 86189  1  0
 89190  1  0
 90191  1  1
 91192  1  0
 91193  1  0
 91194  1  0
 94195  1  0
 95196  1  6
 96197  1  0
 96198  1  0
 96199  1  0
 99200  1  0
100201  1  1
102202  1  0
102203  1  0
104204  1  0
104205  1  0
106206  1  0
106207  1  0
M  END
