
     RDKit          3D

227229  0  0  0  0  0  0  0  0999 V2000
    2.1422    7.0382    2.5066 C   0  0  0  0  0  0  0  0  0  0  0  0
    2.0860    5.6196    1.9384 C   0  0  0  0  0  0  0  0  0  0  0  0
    1.2627    4.8263    2.4190 O   0  0  0  0  0  0  0  0  0  0  0  0
    2.9678    5.2623    0.9163 N   0  0  0  0  0  0  0  0  0  0  0  0
    2.6358    5.2647   -0.5310 C   0  0  1  0  0  0  0  0  0  0  0  0
    1.5226    6.2832   -0.9545 C   0  0  0  0  0  0  0  0  0  0  0  0
    0.1600    5.5502   -1.9480 S   0  0  0  0  0  0  0  0  0  0  0  0
   -0.4728    4.4147   -0.6844 C   0  0  0  0  0  0  0  0  0  0  0  0
   -1.7507    3.7678   -1.0948 C   0  0  0  0  0  0  0  0  0  0  0  0
   -2.8728    4.0328   -0.2760 C   0  0  0  0  0  0  0  0  0  0  0  0
   -3.7950    2.9992   -0.0343 C   0  0  0  0  0  0  0  0  0  0  0  0
   -3.7293    1.8723   -0.8453 C   0  0  0  0  0  0  0  0  0  0  0  0
   -2.4950    1.5253   -1.4044 C   0  0  0  0  0  0  0  0  0  0  0  0
   -1.7649    2.6066   -1.8452 C   0  0  0  0  0  0  0  0  0  0  0  0
   -1.6909    0.5541   -0.5189 C   0  0  0  0  0  0  0  0  0  0  0  0
   -2.1236   -1.1921   -0.7966 S   0  0  0  0  0  0  0  0  0  0  0  0
   -0.9666   -1.8943    0.4541 C   0  0  0  0  0  0  0  0  0  0  0  0
   -1.3656   -3.3302    0.8288 C   0  0  1  0  0  0  0  0  0  0  0  0
   -0.5163   -3.8625    1.8759 N   0  0  0  0  0  0  0  0  0  0  0  0
    0.8006   -4.4169    1.7065 C   0  0  0  0  0  0  0  0  0  0  0  0
    1.8000   -3.8074    2.1082 O   0  0  0  0  0  0  0  0  0  0  0  0
    0.9878   -5.8287    1.1306 C   0  0  1  0  0  0  0  0  0  0  0  0
    0.1377   -6.8375    1.9142 C   0  0  0  0  0  0  0  0  0  0  0  0
    0.6306   -5.8967   -0.2836 N   0  0  0  0  0  0  0  0  0  0  0  0
    1.6029   -6.2309   -1.3351 C   0  0  0  0  0  0  0  0  0  0  0  0
    1.4011   -7.2276   -2.0368 O   0  0  0  0  0  0  0  0  0  0  0  0
    2.7641   -5.3392   -1.5933 C   0  0  1  0  0  0  0  0  0  0  0  0
    2.2978   -3.9388   -1.9616 C   0  0  0  0  0  0  0  0  0  0  0  0
    3.6895   -5.3245   -0.4339 N   0  0  0  0  0  0  0  0  0  0  0  0
    4.7595   -6.3020   -0.2771 C   0  0  0  0  0  0  0  0  0  0  0  0
    4.9599   -6.7057    0.9318 O   0  0  0  0  0  0  0  0  0  0  0  0
    5.6159   -6.6354   -1.4638 C   0  0  1  0  0  0  0  0  0  0  0  0
    6.1546   -5.3577   -2.1624 C   0  0  0  0  0  0  0  0  0  0  0  0
    6.7265   -7.6468   -1.1369 N   0  0  0  0  0  0  0  0  0  0  0  0
    7.3637   -7.8687    0.1367 C   0  0  0  0  0  0  0  0  0  0  0  0
    7.0273   -8.9072    0.8001 O   0  0  0  0  0  0  0  0  0  0  0  0
    8.2984   -6.8617    0.7742 C   0  0  1  0  0  0  0  0  0  0  0  0
    9.2037   -7.5027    1.8461 C   0  0  0  0  0  0  0  0  0  0  0  0
    9.1125   -6.2390   -0.2916 N   0  0  0  0  0  0  0  0  0  0  0  0
   10.0978   -5.1874   -0.0705 C   0  0  0  0  0  0  0  0  0  0  0  0
   11.3090   -5.5093   -0.4156 O   0  0  0  0  0  0  0  0  0  0  0  0
    9.9135   -3.7650    0.3606 C   0  0  1  0  0  0  0  0  0  0  0  0
    8.4391   -3.4044    0.7662 C   0  0  0  0  0  0  0  0  0  0  0  0
   10.8116   -3.3879    1.4068 N   0  0  0  0  0  0  0  0  0  0  0  0
   12.0981   -2.8545    1.1723 C   0  0  0  0  0  0  0  0  0  0  0  0
   13.0533   -3.5889    1.5378 O   0  0  0  0  0  0  0  0  0  0  0  0
   12.2612   -1.6358    0.4949 C   0  0  1  0  0  0  0  0  0  0  0  0
   12.2651   -1.7999   -1.0793 C   0  0  0  0  0  0  0  0  0  0  0  0
   11.1501   -0.6691    0.8279 N   0  0  0  0  0  0  0  0  0  0  0  0
   11.3947    0.5222    1.6084 C   0  0  0  0  0  0  0  0  0  0  0  0
   11.2813    0.4714    2.8352 O   0  0  0  0  0  0  0  0  0  0  0  0
   11.6605    1.8181    0.8636 C   0  0  1  0  0  0  0  0  0  0  0  0
   12.5390    1.6460   -0.3779 C   0  0  0  0  0  0  0  0  0  0  0  0
   10.3740    2.3971    0.5092 N   0  0  0  0  0  0  0  0  0  0  0  0
    9.8033    3.5537    1.1685 C   0  0  0  0  0  0  0  0  0  0  0  0
    8.7240    3.3961    1.7639 O   0  0  0  0  0  0  0  0  0  0  0  0
   10.4650    4.9114    1.1074 C   0  0  1  0  0  0  0  0  0  0  0  0
   11.1899    5.1404   -0.2675 C   0  0  0  0  0  0  0  0  0  0  0  0
    9.4373    5.9482    1.4130 N   0  0  0  0  0  0  0  0  0  0  0  0
    8.8993    6.9363    0.4985 C   0  0  0  0  0  0  0  0  0  0  0  0
    9.2511    8.1246    0.6335 O   0  0  0  0  0  0  0  0  0  0  0  0
    7.7558    6.5859   -0.4599 C   0  0  1  0  0  0  0  0  0  0  0  0
    7.9968    5.4535   -1.4370 C   0  0  0  0  0  0  0  0  0  0  0  0
    6.5389    6.2407    0.3686 N   0  0  0  0  0  0  0  0  0  0  0  0
    5.5468    7.2390    0.5602 C   0  0  0  0  0  0  0  0  0  0  0  0
    5.3796    7.7155    1.7665 O   0  0  0  0  0  0  0  0  0  0  0  0
    4.6953    7.7447   -0.5667 C   0  0  1  0  0  0  0  0  0  0  0  0
    5.3212    9.0232   -1.2113 C   0  0  0  0  0  0  0  0  0  0  0  0
    4.5054    6.7041   -1.6228 N   0  0  0  0  0  0  0  0  0  0  0  0
    3.8827    5.4034   -1.3758 C   0  0  0  0  0  0  0  0  0  0  0  0
    4.3073    4.4342   -2.0098 O   0  0  0  0  0  0  0  0  0  0  0  0
   -2.7993   -3.3992    1.2970 C   0  0  0  0  0  0  0  0  0  0  0  0
   -3.2383   -2.5028    2.0828 O   0  0  0  0  0  0  0  0  0  0  0  0
   -3.6080   -4.5787    1.1297 N   0  0  0  0  0  0  0  0  0  0  0  0
   -4.3861   -4.8436   -0.0799 C   0  0  2  0  0  0  0  0  0  0  0  0
   -3.4824   -4.9191   -1.3323 C   0  0  0  0  0  0  0  0  0  0  0  0
   -5.5327   -3.8600   -0.2450 C   0  0  0  0  0  0  0  0  0  0  0  0
   -5.8480   -3.1380    0.7721 O   0  0  0  0  0  0  0  0  0  0  0  0
   -6.2271   -3.6169   -1.4669 N   0  0  0  0  0  0  0  0  0  0  0  0
   -6.8379   -4.6371   -2.3749 C   0  0  2  0  0  0  0  0  0  0  0  0
   -8.1239   -4.0501   -2.9884 C   0  0  0  0  0  0  0  0  0  0  0  0
   -7.1442   -5.9827   -1.7040 C   0  0  0  0  0  0  0  0  0  0  0  0
   -6.2994   -6.9179   -1.8754 O   0  0  0  0  0  0  0  0  0  0  0  0
   -8.3566   -6.2604   -1.0878 N   0  0  0  0  0  0  0  0  0  0  0  0
   -8.9996   -5.4254   -0.0292 C   0  0  2  0  0  0  0  0  0  0  0  0
   -8.8486   -6.1108    1.3340 C   0  0  0  0  0  0  0  0  0  0  0  0
  -10.4740   -5.2442   -0.3622 C   0  0  0  0  0  0  0  0  0  0  0  0
  -11.0732   -6.0904   -1.0524 O   0  0  0  0  0  0  0  0  0  0  0  0
  -11.2857   -4.2077    0.2385 N   0  0  0  0  0  0  0  0  0  0  0  0
  -10.8293   -3.0436    0.9833 C   0  0  2  0  0  0  0  0  0  0  0  0
  -10.5942   -3.4111    2.4728 C   0  0  0  0  0  0  0  0  0  0  0  0
  -11.8452   -1.9124    0.9187 C   0  0  0  0  0  0  0  0  0  0  0  0
  -13.0785   -2.1932    0.6861 O   0  0  0  0  0  0  0  0  0  0  0  0
  -11.5337   -0.6004    1.3457 N   0  0  0  0  0  0  0  0  0  0  0  0
  -10.5206    0.2748    0.7155 C   0  0  2  0  0  0  0  0  0  0  0  0
   -9.1912    0.2232    1.5156 C   0  0  0  0  0  0  0  0  0  0  0  0
  -11.0896    1.7005    0.7141 C   0  0  0  0  0  0  0  0  0  0  0  0
  -11.2347    2.3028    1.7852 O   0  0  0  0  0  0  0  0  0  0  0  0
  -11.5933    2.2964   -0.4996 N   0  0  0  0  0  0  0  0  0  0  0  0
  -10.8937    2.4343   -1.7990 C   0  0  2  0  0  0  0  0  0  0  0  0
   -9.3933    2.1302   -1.7291 C   0  0  0  0  0  0  0  0  0  0  0  0
  -11.1330    3.8245   -2.3581 C   0  0  0  0  0  0  0  0  0  0  0  0
  -11.3242    3.9478   -3.5809 O   0  0  0  0  0  0  0  0  0  0  0  0
  -11.2684    4.9886   -1.4928 N   0  0  0  0  0  0  0  0  0  0  0  0
  -10.2902    5.3878   -0.4391 C   0  0  2  0  0  0  0  0  0  0  0  0
  -11.0583    6.1842    0.6463 C   0  0  0  0  0  0  0  0  0  0  0  0
   -9.2086    6.2496   -1.0740 C   0  0  0  0  0  0  0  0  0  0  0  0
   -9.5496    7.2855   -1.6789 O   0  0  0  0  0  0  0  0  0  0  0  0
   -7.7988    5.8872   -1.0603 N   0  0  0  0  0  0  0  0  0  0  0  0
   -6.9568    5.4632    0.0960 C   0  0  1  0  0  0  0  0  0  0  0  0
   -7.5643    5.8535    1.4377 C   0  0  0  0  0  0  0  0  0  0  0  0
   -7.3641    7.1688    1.9136 N   0  0  0  0  0  0  0  0  0  0  0  0
   -8.2902    5.0197    2.0739 O   0  0  0  0  0  0  0  0  0  0  0  0
   -6.5759    3.9742   -0.0783 C   0  0  0  0  0  0  0  0  0  0  0  0
   -6.2337    2.9423    1.4046 S   0  0  0  0  0  0  0  0  0  0  0  0
   -4.4139    2.9232    1.3209 C   0  0  0  0  0  0  0  0  0  0  0  0
    1.1753    7.5611    2.3399 H   0  0  0  0  0  0  0  0  0  0  0  0
    2.9046    7.6013    1.9702 H   0  0  0  0  0  0  0  0  0  0  0  0
    2.4074    7.0096    3.5855 H   0  0  0  0  0  0  0  0  0  0  0  0
    3.7658    4.5942    1.1998 H   0  0  0  0  0  0  0  0  0  0  0  0
    2.2936    4.2456   -0.7722 H   0  0  0  0  0  0  0  0  0  0  0  0
    1.1154    6.8599   -0.1049 H   0  0  0  0  0  0  0  0  0  0  0  0
    1.9337    7.0716   -1.6037 H   0  0  0  0  0  0  0  0  0  0  0  0
   -0.5719    4.9229    0.2826 H   0  0  0  0  0  0  0  0  0  0  0  0
    0.2263    3.5787   -0.5057 H   0  0  0  0  0  0  0  0  0  0  0  0
   -2.8772    4.8985    0.3834 H   0  0  0  0  0  0  0  0  0  0  0  0
   -4.5779    1.1763   -0.9184 H   0  0  0  0  0  0  0  0  0  0  0  0
   -1.0148    2.4496   -2.5920 H   0  0  0  0  0  0  0  0  0  0  0  0
   -1.8802    0.8223    0.5323 H   0  0  0  0  0  0  0  0  0  0  0  0
   -0.6035    0.7185   -0.6819 H   0  0  0  0  0  0  0  0  0  0  0  0
   -0.9416   -1.2744    1.3682 H   0  0  0  0  0  0  0  0  0  0  0  0
    0.0626   -1.8633    0.0225 H   0  0  0  0  0  0  0  0  0  0  0  0
   -1.2482   -3.9601   -0.0777 H   0  0  0  0  0  0  0  0  0  0  0  0
   -0.6617   -3.4507    2.8429 H   0  0  0  0  0  0  0  0  0  0  0  0
    2.0689   -6.1154    1.3037 H   0  0  0  0  0  0  0  0  0  0  0  0
   -0.9449   -6.7424    1.6488 H   0  0  0  0  0  0  0  0  0  0  0  0
    0.2293   -6.6905    3.0030 H   0  0  0  0  0  0  0  0  0  0  0  0
    0.4743   -7.8643    1.6755 H   0  0  0  0  0  0  0  0  0  0  0  0
   -0.3508   -6.0494   -0.5703 H   0  0  0  0  0  0  0  0  0  0  0  0
    3.2778   -5.7313   -2.4805 H   0  0  0  0  0  0  0  0  0  0  0  0
    1.4455   -4.0016   -2.6797 H   0  0  0  0  0  0  0  0  0  0  0  0
    1.9277   -3.3939   -1.0506 H   0  0  0  0  0  0  0  0  0  0  0  0
    3.1144   -3.3324   -2.4369 H   0  0  0  0  0  0  0  0  0  0  0  0
    3.5425   -4.6361    0.3377 H   0  0  0  0  0  0  0  0  0  0  0  0
    5.0219   -7.2316   -2.1907 H   0  0  0  0  0  0  0  0  0  0  0  0
    6.1503   -5.1108   -3.3515 H   0  0  0  0  0  0  0  0  0  0  0  0
    6.8205   -4.8253   -1.5813 H   0  0  0  0  0  0  0  0  0  0  0  0
    5.3329   -4.7150   -2.2023 H   0  0  0  0  0  0  0  0  0  0  0  0
    6.7994   -8.4769   -1.7730 H   0  0  0  0  0  0  0  0  0  0  0  0
    7.5719   -6.2258    1.2825 H   0  0  0  0  0  0  0  0  0  0  0  0
    9.4503   -8.5458    1.6451 H   0  0  0  0  0  0  0  0  0  0  0  0
    8.6826   -7.4852    2.8600 H   0  0  0  0  0  0  0  0  0  0  0  0
   10.1752   -6.9613    1.9949 H   0  0  0  0  0  0  0  0  0  0  0  0
    9.3278   -6.8598   -1.1433 H   0  0  0  0  0  0  0  0  0  0  0  0
   10.0960   -3.0850   -0.5751 H   0  0  0  0  0  0  0  0  0  0  0  0
    8.0635   -2.6349    0.0304 H   0  0  0  0  0  0  0  0  0  0  0  0
    8.2036   -3.0832    1.8045 H   0  0  0  0  0  0  0  0  0  0  0  0
    7.9881   -4.2779    0.6556 H   0  0  0  0  0  0  0  0  0  0  0  0
   10.5563   -3.8497    2.3979 H   0  0  0  0  0  0  0  0  0  0  0  0
   13.2388   -1.2022    0.7778 H   0  0  0  0  0  0  0  0  0  0  0  0
   11.3372   -1.4597   -1.5547 H   0  0  0  0  0  0  0  0  0  0  0  0
   13.1227   -1.2625   -1.5255 H   0  0  0  0  0  0  0  0  0  0  0  0
   12.3908   -2.9019   -1.3732 H   0  0  0  0  0  0  0  0  0  0  0  0
   10.1703   -0.8945    0.6080 H   0  0  0  0  0  0  0  0  0  0  0  0
   12.2323    2.4820    1.5835 H   0  0  0  0  0  0  0  0  0  0  0  0
   13.4019    0.9848   -0.2015 H   0  0  0  0  0  0  0  0  0  0  0  0
   12.9140    2.6304   -0.7411 H   0  0  0  0  0  0  0  0  0  0  0  0
   11.9260    1.1885   -1.2088 H   0  0  0  0  0  0  0  0  0  0  0  0
    9.7132    1.7907   -0.0280 H   0  0  0  0  0  0  0  0  0  0  0  0
   11.2266    4.9396    1.8981 H   0  0  0  0  0  0  0  0  0  0  0  0
   11.0856    6.1621   -0.6221 H   0  0  0  0  0  0  0  0  0  0  0  0
   12.2848    4.9479   -0.1062 H   0  0  0  0  0  0  0  0  0  0  0  0
   10.8292    4.4671   -1.0688 H   0  0  0  0  0  0  0  0  0  0  0  0
    9.3480    6.1637    2.4412 H   0  0  0  0  0  0  0  0  0  0  0  0
    7.5793    7.4979   -1.0498 H   0  0  0  0  0  0  0  0  0  0  0  0
    8.1686    4.4842   -0.9328 H   0  0  0  0  0  0  0  0  0  0  0  0
    7.1355    5.3450   -2.1047 H   0  0  0  0  0  0  0  0  0  0  0  0
    8.8760    5.6772   -2.0764 H   0  0  0  0  0  0  0  0  0  0  0  0
    6.6307    5.4725    1.0519 H   0  0  0  0  0  0  0  0  0  0  0  0
    3.7068    8.0581   -0.1733 H   0  0  0  0  0  0  0  0  0  0  0  0
    4.5277    9.7611   -1.4696 H   0  0  0  0  0  0  0  0  0  0  0  0
    6.0298    9.5321   -0.5355 H   0  0  0  0  0  0  0  0  0  0  0  0
    5.8918    8.8284   -2.1503 H   0  0  0  0  0  0  0  0  0  0  0  0
    4.9561    6.8255   -2.5521 H   0  0  0  0  0  0  0  0  0  0  0  0
   -4.0713   -4.9001    2.0168 H   0  0  0  0  0  0  0  0  0  0  0  0
   -4.8389   -5.8425    0.0263 H   0  0  0  0  0  0  0  0  0  0  0  0
   -2.6215   -5.5853   -1.1582 H   0  0  0  0  0  0  0  0  0  0  0  0
   -4.0358   -5.3151   -2.2041 H   0  0  0  0  0  0  0  0  0  0  0  0
   -3.1049   -3.9014   -1.5854 H   0  0  0  0  0  0  0  0  0  0  0  0
   -6.3851   -2.6135   -1.7204 H   0  0  0  0  0  0  0  0  0  0  0  0
   -6.1324   -4.8452   -3.2188 H   0  0  0  0  0  0  0  0  0  0  0  0
   -8.8393   -4.8319   -3.3375 H   0  0  0  0  0  0  0  0  0  0  0  0
   -7.8739   -3.4269   -3.8618 H   0  0  0  0  0  0  0  0  0  0  0  0
   -8.6550   -3.4163   -2.2407 H   0  0  0  0  0  0  0  0  0  0  0  0
   -8.7549   -7.2455   -1.1954 H   0  0  0  0  0  0  0  0  0  0  0  0
   -8.4940   -4.4427   -0.0043 H   0  0  0  0  0  0  0  0  0  0  0  0
   -8.2912   -7.0618    1.2413 H   0  0  0  0  0  0  0  0  0  0  0  0
   -8.2759   -5.4555    2.0297 H   0  0  0  0  0  0  0  0  0  0  0  0
   -9.8209   -6.3646    1.8022 H   0  0  0  0  0  0  0  0  0  0  0  0
  -12.3066   -4.4741    0.3124 H   0  0  0  0  0  0  0  0  0  0  0  0
   -9.8935   -2.6400    0.5391 H   0  0  0  0  0  0  0  0  0  0  0  0
  -11.0176   -2.6551    3.1779 H   0  0  0  0  0  0  0  0  0  0  0  0
   -9.5063   -3.4964    2.6896 H   0  0  0  0  0  0  0  0  0  0  0  0
  -11.0860   -4.3670    2.7044 H   0  0  0  0  0  0  0  0  0  0  0  0
  -12.2447   -0.1612    1.9603 H   0  0  0  0  0  0  0  0  0  0  0  0
  -10.3376   -0.0814   -0.3110 H   0  0  0  0  0  0  0  0  0  0  0  0
   -9.1174    1.0140    2.2901 H   0  0  0  0  0  0  0  0  0  0  0  0
   -8.3058    0.3190    0.8550 H   0  0  0  0  0  0  0  0  0  0  0  0
   -9.0833   -0.7521    2.0527 H   0  0  0  0  0  0  0  0  0  0  0  0
  -12.4609    2.8939   -0.3479 H   0  0  0  0  0  0  0  0  0  0  0  0
  -11.3401    1.7043   -2.5142 H   0  0  0  0  0  0  0  0  0  0  0  0
   -9.1429    1.1360   -2.1128 H   0  0  0  0  0  0  0  0  0  0  0  0
   -9.1209    2.0622   -0.6688 H   0  0  0  0  0  0  0  0  0  0  0  0
   -8.7661    2.8970   -2.2764 H   0  0  0  0  0  0  0  0  0  0  0  0
  -11.8740    5.7216   -1.8672 H   0  0  0  0  0  0  0  0  0  0  0  0
   -9.8570    4.4842    0.0053 H   0  0  0  0  0  0  0  0  0  0  0  0
  -11.9379    6.7116    0.2228 H   0  0  0  0  0  0  0  0  0  0  0  0
  -11.4235    5.5085    1.4345 H   0  0  0  0  0  0  0  0  0  0  0  0
  -10.4311    6.9672    1.1134 H   0  0  0  0  0  0  0  0  0  0  0  0
   -7.2831    6.0638   -1.9582 H   0  0  0  0  0  0  0  0  0  0  0  0
   -5.9747    5.9923   -0.0054 H   0  0  0  0  0  0  0  0  0  0  0  0
   -6.4635    7.6670    1.7353 H   0  0  0  0  0  0  0  0  0  0  0  0
   -8.0990    7.5795    2.5261 H   0  0  0  0  0  0  0  0  0  0  0  0
   -5.9425    3.7847   -0.9660 H   0  0  0  0  0  0  0  0  0  0  0  0
   -7.4799    3.5262   -0.3755 H   0  0  0  0  0  0  0  0  0  0  0  0
   -4.0824    1.9763    1.7870 H   0  0  0  0  0  0  0  0  0  0  0  0
   -4.0071    3.7252    1.9711 H   0  0  0  0  0  0  0  0  0  0  0  0
  1  2  1  0
  2  3  2  0
  2  4  1  0
  4  5  1  0
  5  6  1  0
  6  7  1  0
  7  8  1  0
  8  9  1  0
  9 10  2  0
 10 11  1  0
 11 12  2  0
 12 13  1  0
 13 14  2  0
 13 15  1  0
 15 16  1  0
 16 17  1  0
 17 18  1  0
 18 19  1  0
 19 20  1  0
 20 21  2  0
 20 22  1  0
 22 23  1  0
 22 24  1  0
 24 25  1  0
 25 26  2  0
 25 27  1  0
 27 28  1  0
 27 29  1  0
 29 30  1  0
 30 31  2  0
 30 32  1  0
 32 33  1  0
 32 34  1  0
 34 35  1  0
 35 36  2  0
 35 37  1  0
 37 38  1  0
 37 39  1  0
 39 40  1  0
 40 41  2  0
 40 42  1  0
 42 43  1  0
 42 44  1  0
 44 45  1  0
 45 46  2  0
 45 47  1  0
 47 48  1  0
 47 49  1  0
 49 50  1  0
 50 51  2  0
 50 52  1  0
 52 53  1  0
 52 54  1  0
 54 55  1  0
 55 56  2  0
 55 57  1  0
 57 58  1  0
 57 59  1  0
 59 60  1  0
 60 61  2  0
 60 62  1  0
 62 63  1  0
 62 64  1  0
 64 65  1  0
 65 66  2  0
 65 67  1  0
 67 68  1  0
 67 69  1  0
 69 70  1  0
 70 71  2  0
 18 72  1  0
 72 73  2  0
 72 74  1  0
 74 75  1  0
 75 76  1  0
 75 77  1  0
 77 78  2  0
 77 79  1  0
 79 80  1  0
 80 81  1  0
 80 82  1  0
 82 83  2  0
 82 84  1  0
 84 85  1  0
 85 86  1  0
 85 87  1  0
 87 88  2  0
 87 89  1  0
 89 90  1  0
 90 91  1  0
 90 92  1  0
 92 93  2  0
 92 94  1  0
 94 95  1  0
 95 96  1  0
 95 97  1  0
 97 98  2  0
 97 99  1  0
 99100  1  0
100101  1  0
100102  1  0
102103  2  0
102104  1  0
104105  1  0
105106  1  0
105107  1  0
107108  2  0
107109  1  0
109110  1  0
110111  1  0
111112  1  0
111113  2  0
110114  1  0
114115  1  0
115116  1  0
 70  5  1  0
 14  9  1  0
116 11  1  0
  1117  1  0
  1118  1  0
  1119  1  0
  4120  1  0
  5121  1  6
  6122  1  0
  6123  1  0
  8124  1  0
  8125  1  0
 10126  1  0
 12127  1  0
 14128  1  0
 15129  1  0
 15130  1  0
 17131  1  0
 17132  1  0
 18133  1  6
 19134  1  0
 22135  1  6
 23136  1  0
 23137  1  0
 23138  1  0
 24139  1  0
 27140  1  6
 28141  1  0
 28142  1  0
 28143  1  0
 29144  1  0
 32145  1  6
 33146  1  0
 33147  1  0
 33148  1  0
 34149  1  0
 37150  1  1
 38151  1  0
 38152  1  0
 38153  1  0
 39154  1  0
 42155  1  6
 43156  1  0
 43157  1  0
 43158  1  0
 44159  1  0
 47160  1  1
 48161  1  0
 48162  1  0
 48163  1  0
 49164  1  0
 52165  1  1
 53166  1  0
 53167  1  0
 53168  1  0
 54169  1  0
 57170  1  1
 58171  1  0
 58172  1  0
 58173  1  0
 59174  1  0
 62175  1  6
 63176  1  0
 63177  1  0
 63178  1  0
 64179  1  0
 67180  1  1
 68181  1  0
 68182  1  0
 68183  1  0
 69184  1  0
 74185  1  0
 75186  1  1
 76187  1  0
 76188  1  0
 76189  1  0
 79190  1  0
 80191  1  6
 81192  1  0
 81193  1  0
 81194  1  0
 84195  1  0
 85196  1  1
 86197  1  0
 86198  1  0
 86199  1  0
 89200  1  0
 90201  1  6
 91202  1  0
 91203  1  0
 91204  1  0
 94205  1  0
 95206  1  6
 96207  1  0
 96208  1  0
 96209  1  0
 99210  1  0
100211  1  6
101212  1  0
101213  1  0
101214  1  0
104215  1  0
105216  1  1
106217  1  0
106218  1  0
106219  1  0
109220  1  0
110221  1  6
112222  1  0
112223  1  0
114224  1  0
114225  1  0
116226  1  0
116227  1  0
M  END
