
     RDKit          3D

217219  0  0  0  0  0  0  0  0999 V2000
    1.5586   -9.9500   -0.5959 C   0  0  0  0  0  0  0  0  0  0  0  0
    0.9495   -9.5327    0.7071 C   0  0  0  0  0  0  0  0  0  0  0  0
    0.8467  -10.3834    1.6294 O   0  0  0  0  0  0  0  0  0  0  0  0
    0.4386   -8.2071    0.9177 N   0  0  0  0  0  0  0  0  0  0  0  0
    1.1409   -7.0009    0.4783 C   0  0  1  0  0  0  0  0  0  0  0  0
    0.1433   -6.0321   -0.1735 C   0  0  0  0  0  0  0  0  0  0  0  0
    1.0323   -4.6373   -0.9652 S   0  0  0  0  0  0  0  0  0  0  0  0
   -0.2745   -4.2068   -2.1695 C   0  0  0  0  0  0  0  0  0  0  0  0
   -1.3289   -3.3374   -1.5415 C   0  0  0  0  0  0  0  0  0  0  0  0
   -1.1258   -1.9543   -1.4392 C   0  0  0  0  0  0  0  0  0  0  0  0
   -2.1478   -1.1078   -0.9754 C   0  0  0  0  0  0  0  0  0  0  0  0
   -3.3738   -1.6682   -0.5812 C   0  0  0  0  0  0  0  0  0  0  0  0
   -3.5784   -3.0581   -0.6484 C   0  0  0  0  0  0  0  0  0  0  0  0
   -2.5564   -3.8813   -1.1443 C   0  0  0  0  0  0  0  0  0  0  0  0
   -4.9280   -3.6420   -0.3336 C   0  0  0  0  0  0  0  0  0  0  0  0
   -4.7810   -4.9161    0.9750 S   0  0  0  0  0  0  0  0  0  0  0  0
   -5.5067   -6.3087    0.0296 C   0  0  0  0  0  0  0  0  0  0  0  0
   -7.0385   -6.1845   -0.1010 C   0  0  1  0  0  0  0  0  0  0  0  0
   -7.5776   -7.3646   -0.8719 C   0  0  0  0  0  0  0  0  0  0  0  0
   -8.2505   -7.1727   -2.1171 N   0  0  0  0  0  0  0  0  0  0  0  0
   -7.4396   -8.5358   -0.4185 O   0  0  0  0  0  0  0  0  0  0  0  0
   -7.6695   -6.1235    1.2188 N   0  0  0  0  0  0  0  0  0  0  0  0
   -8.9938   -5.6145    1.4666 C   0  0  0  0  0  0  0  0  0  0  0  0
   -9.3883   -5.5001    2.6586 O   0  0  0  0  0  0  0  0  0  0  0  0
   -9.9540   -5.2656    0.3506 C   0  0  1  0  0  0  0  0  0  0  0  0
  -11.0499   -6.3274    0.2370 C   0  0  0  0  0  0  0  0  0  0  0  0
  -10.5543   -3.9498    0.5926 N   0  0  0  0  0  0  0  0  0  0  0  0
  -10.3081   -2.8390   -0.2890 C   0  0  0  0  0  0  0  0  0  0  0  0
   -9.1990   -2.7414   -0.8755 O   0  0  0  0  0  0  0  0  0  0  0  0
  -11.3608   -1.7906   -0.5229 C   0  0  1  0  0  0  0  0  0  0  0  0
  -12.6869   -2.4387   -0.9226 C   0  0  0  0  0  0  0  0  0  0  0  0
  -11.5506   -0.9786    0.6833 N   0  0  0  0  0  0  0  0  0  0  0  0
  -11.6540    0.4628    0.7213 C   0  0  0  0  0  0  0  0  0  0  0  0
  -12.0386    1.0021    1.7986 O   0  0  0  0  0  0  0  0  0  0  0  0
  -11.3440    1.3479   -0.4737 C   0  0  1  0  0  0  0  0  0  0  0  0
  -12.4926    1.3369   -1.4829 C   0  0  0  0  0  0  0  0  0  0  0  0
  -11.1189    2.7354   -0.0399 N   0  0  0  0  0  0  0  0  0  0  0  0
  -10.0843    3.6021   -0.5362 C   0  0  0  0  0  0  0  0  0  0  0  0
  -10.2221    4.8469   -0.3776 O   0  0  0  0  0  0  0  0  0  0  0  0
   -8.8534    3.0736   -1.2383 C   0  0  1  0  0  0  0  0  0  0  0  0
   -8.0417    4.1496   -1.9700 C   0  0  0  0  0  0  0  0  0  0  0  0
   -8.0109    2.2783   -0.3357 N   0  0  0  0  0  0  0  0  0  0  0  0
   -7.2206    2.7532    0.7740 C   0  0  0  0  0  0  0  0  0  0  0  0
   -6.2852    2.0112    1.1966 O   0  0  0  0  0  0  0  0  0  0  0  0
   -7.5420    4.0175    1.5456 C   0  0  1  0  0  0  0  0  0  0  0  0
   -8.6131    3.7177    2.5990 C   0  0  0  0  0  0  0  0  0  0  0  0
   -6.3383    4.5157    2.2252 N   0  0  0  0  0  0  0  0  0  0  0  0
   -5.5975    5.7005    1.8813 C   0  0  0  0  0  0  0  0  0  0  0  0
   -4.7601    6.1421    2.7166 O   0  0  0  0  0  0  0  0  0  0  0  0
   -5.7325    6.3842    0.5370 C   0  0  1  0  0  0  0  0  0  0  0  0
   -5.1320    7.7993    0.5224 C   0  0  0  0  0  0  0  0  0  0  0  0
   -5.1446    5.5749   -0.5379 N   0  0  0  0  0  0  0  0  0  0  0  0
   -3.7627    5.1934   -0.5795 C   0  0  0  0  0  0  0  0  0  0  0  0
   -3.0180    5.7107   -1.4539 O   0  0  0  0  0  0  0  0  0  0  0  0
   -3.2416    4.0510    0.2654 C   0  0  1  0  0  0  0  0  0  0  0  0
   -3.0115    2.8390   -0.6516 C   0  0  0  0  0  0  0  0  0  0  0  0
   -2.6648    1.3171    0.3034 S   0  0  0  0  0  0  0  0  0  0  0  0
   -2.0041    0.3871   -1.1387 C   0  0  0  0  0  0  0  0  0  0  0  0
   -1.9923    4.3761    0.9770 N   0  0  0  0  0  0  0  0  0  0  0  0
   -1.3607    5.6649    0.9901 C   0  0  0  0  0  0  0  0  0  0  0  0
   -1.9325    6.6258    1.5723 O   0  0  0  0  0  0  0  0  0  0  0  0
   -0.0107    5.8948    0.3456 C   0  0  1  0  0  0  0  0  0  0  0  0
    0.5361    4.6214   -0.3182 C   0  0  0  0  0  0  0  0  0  0  0  0
   -0.1108    6.9834   -0.6386 N   0  0  0  0  0  0  0  0  0  0  0  0
    0.9676    7.3554   -1.5123 C   0  0  0  0  0  0  0  0  0  0  0  0
    0.8036    7.2351   -2.7531 O   0  0  0  0  0  0  0  0  0  0  0  0
    2.2726    7.9232   -1.0005 C   0  0  1  0  0  0  0  0  0  0  0  0
    2.5267    9.2935   -1.6361 C   0  0  0  0  0  0  0  0  0  0  0  0
    2.2806    8.0617    0.4578 N   0  0  0  0  0  0  0  0  0  0  0  0
    3.3739    7.6384    1.2941 C   0  0  0  0  0  0  0  0  0  0  0  0
    3.1256    7.2679    2.4728 O   0  0  0  0  0  0  0  0  0  0  0  0
    4.8084    7.7120    0.8282 C   0  0  1  0  0  0  0  0  0  0  0  0
    5.5974    8.6904    1.6946 C   0  0  0  0  0  0  0  0  0  0  0  0
    5.4273    6.3837    0.8894 N   0  0  0  0  0  0  0  0  0  0  0  0
    5.8376    5.6782   -0.2872 C   0  0  0  0  0  0  0  0  0  0  0  0
    5.1524    4.6975   -0.6870 O   0  0  0  0  0  0  0  0  0  0  0  0
    7.1056    6.0426   -1.0161 C   0  0  1  0  0  0  0  0  0  0  0  0
    6.9170    7.2538   -1.9231 C   0  0  0  0  0  0  0  0  0  0  0  0
    8.1876    6.2931   -0.0571 N   0  0  0  0  0  0  0  0  0  0  0  0
    9.1778    5.3324    0.3588 C   0  0  0  0  0  0  0  0  0  0  0  0
   10.1133    5.7238    1.1085 O   0  0  0  0  0  0  0  0  0  0  0  0
    9.1611    3.8945   -0.1084 C   0  0  1  0  0  0  0  0  0  0  0  0
    9.9754    3.7526   -1.4036 C   0  0  0  0  0  0  0  0  0  0  0  0
    9.6175    2.9872    0.9533 N   0  0  0  0  0  0  0  0  0  0  0  0
   10.9962    2.7910    1.3037 C   0  0  0  0  0  0  0  0  0  0  0  0
   11.4489    3.3423    2.3449 O   0  0  0  0  0  0  0  0  0  0  0  0
   11.8462    1.7976    0.5522 C   0  0  1  0  0  0  0  0  0  0  0  0
   13.2544    2.3341    0.3091 C   0  0  0  0  0  0  0  0  0  0  0  0
   11.9042    0.5439    1.2993 N   0  0  0  0  0  0  0  0  0  0  0  0
   10.9990   -0.5233    1.0042 C   0  0  0  0  0  0  0  0  0  0  0  0
    9.8206   -0.4702    1.4438 O   0  0  0  0  0  0  0  0  0  0  0  0
   11.4402   -1.7342    0.2233 C   0  0  1  0  0  0  0  0  0  0  0  0
   12.6159   -1.4061   -0.7131 C   0  0  0  0  0  0  0  0  0  0  0  0
   11.8334   -2.7995    1.1476 N   0  0  0  0  0  0  0  0  0  0  0  0
   11.6064   -4.2002    0.9071 C   0  0  0  0  0  0  0  0  0  0  0  0
   12.4756   -5.0276    1.2984 O   0  0  0  0  0  0  0  0  0  0  0  0
   10.3934   -4.7008    0.1424 C   0  0  1  0  0  0  0  0  0  0  0  0
   10.7593   -4.8863   -1.3367 C   0  0  0  0  0  0  0  0  0  0  0  0
    9.9055   -5.9729    0.7104 N   0  0  0  0  0  0  0  0  0  0  0  0
    8.6796   -6.6449    0.3541 C   0  0  0  0  0  0  0  0  0  0  0  0
    8.5507   -7.8605    0.6659 O   0  0  0  0  0  0  0  0  0  0  0  0
    7.5266   -5.9608   -0.3543 C   0  0  1  0  0  0  0  0  0  0  0  0
    7.3080   -6.6207   -1.7245 C   0  0  0  0  0  0  0  0  0  0  0  0
    6.3357   -6.0139    0.5108 N   0  0  0  0  0  0  0  0  0  0  0  0
    5.0471   -6.5433    0.1536 C   0  0  0  0  0  0  0  0  0  0  0  0
    4.5606   -6.3099   -0.9869 O   0  0  0  0  0  0  0  0  0  0  0  0
    4.1948   -7.2764    1.1591 C   0  0  1  0  0  0  0  0  0  0  0  0
    5.0234   -7.9919    2.2299 C   0  0  0  0  0  0  0  0  0  0  0  0
    3.2679   -6.3318    1.7896 N   0  0  0  0  0  0  0  0  0  0  0  0
    1.8364   -6.3743    1.6651 C   0  0  0  0  0  0  0  0  0  0  0  0
    1.1389   -5.8745    2.5935 O   0  0  0  0  0  0  0  0  0  0  0  0
    1.4051   -9.1812   -1.3817 H   0  0  0  0  0  0  0  0  0  0  0  0
    2.6447  -10.1269   -0.4579 H   0  0  0  0  0  0  0  0  0  0  0  0
    1.0760  -10.8895   -0.9405 H   0  0  0  0  0  0  0  0  0  0  0  0
   -0.3237   -8.0989    1.6274 H   0  0  0  0  0  0  0  0  0  0  0  0
    1.8731   -7.2551   -0.3055 H   0  0  0  0  0  0  0  0  0  0  0  0
   -0.4331   -6.5946   -0.9358 H   0  0  0  0  0  0  0  0  0  0  0  0
   -0.5743   -5.6258    0.5745 H   0  0  0  0  0  0  0  0  0  0  0  0
    0.1948   -3.6621   -3.0154 H   0  0  0  0  0  0  0  0  0  0  0  0
   -0.7244   -5.1200   -2.6103 H   0  0  0  0  0  0  0  0  0  0  0  0
   -0.1879   -1.5257   -1.7729 H   0  0  0  0  0  0  0  0  0  0  0  0
   -4.1867   -1.0220   -0.2717 H   0  0  0  0  0  0  0  0  0  0  0  0
   -2.7399   -4.9450   -1.2712 H   0  0  0  0  0  0  0  0  0  0  0  0
   -5.6249   -2.8681    0.0558 H   0  0  0  0  0  0  0  0  0  0  0  0
   -5.3649   -4.0388   -1.2744 H   0  0  0  0  0  0  0  0  0  0  0  0
   -5.0396   -6.3502   -0.9769 H   0  0  0  0  0  0  0  0  0  0  0  0
   -5.2510   -7.2549    0.5534 H   0  0  0  0  0  0  0  0  0  0  0  0
   -7.2421   -5.2450   -0.6489 H   0  0  0  0  0  0  0  0  0  0  0  0
   -8.6121   -7.9939   -2.6520 H   0  0  0  0  0  0  0  0  0  0  0  0
   -8.3794   -6.2123   -2.5111 H   0  0  0  0  0  0  0  0  0  0  0  0
   -7.1590   -6.5300    2.0386 H   0  0  0  0  0  0  0  0  0  0  0  0
   -9.4400   -5.2413   -0.6216 H   0  0  0  0  0  0  0  0  0  0  0  0
  -11.5904   -6.4407    1.1949 H   0  0  0  0  0  0  0  0  0  0  0  0
  -11.7725   -6.0277   -0.5557 H   0  0  0  0  0  0  0  0  0  0  0  0
  -10.6024   -7.3048   -0.0440 H   0  0  0  0  0  0  0  0  0  0  0  0
  -11.2612   -3.8487    1.3635 H   0  0  0  0  0  0  0  0  0  0  0  0
  -11.0246   -1.1674   -1.3696 H   0  0  0  0  0  0  0  0  0  0  0  0
  -13.0537   -3.1225   -0.1264 H   0  0  0  0  0  0  0  0  0  0  0  0
  -13.4585   -1.6601   -1.0775 H   0  0  0  0  0  0  0  0  0  0  0  0
  -12.5663   -3.0194   -1.8616 H   0  0  0  0  0  0  0  0  0  0  0  0
  -11.7592   -1.4837    1.5727 H   0  0  0  0  0  0  0  0  0  0  0  0
  -10.4343    0.9527   -0.9607 H   0  0  0  0  0  0  0  0  0  0  0  0
  -13.4661    1.5089   -0.9743 H   0  0  0  0  0  0  0  0  0  0  0  0
  -12.3448    2.1457   -2.2314 H   0  0  0  0  0  0  0  0  0  0  0  0
  -12.5393    0.3833   -2.0413 H   0  0  0  0  0  0  0  0  0  0  0  0
  -11.8854    3.1980    0.4949 H   0  0  0  0  0  0  0  0  0  0  0  0
   -9.2102    2.4027   -2.0527 H   0  0  0  0  0  0  0  0  0  0  0  0
   -8.5945    4.4998   -2.8684 H   0  0  0  0  0  0  0  0  0  0  0  0
   -7.0687    3.7307   -2.3107 H   0  0  0  0  0  0  0  0  0  0  0  0
   -7.8449    5.0306   -1.3316 H   0  0  0  0  0  0  0  0  0  0  0  0
   -7.8904    1.2691   -0.5874 H   0  0  0  0  0  0  0  0  0  0  0  0
   -7.9471    4.7833    0.8713 H   0  0  0  0  0  0  0  0  0  0  0  0
   -8.8672    4.6461    3.1544 H   0  0  0  0  0  0  0  0  0  0  0  0
   -9.5399    3.3318    2.1302 H   0  0  0  0  0  0  0  0  0  0  0  0
   -8.2424    2.9567    3.3217 H   0  0  0  0  0  0  0  0  0  0  0  0
   -5.9912    3.9773    3.0550 H   0  0  0  0  0  0  0  0  0  0  0  0
   -6.8107    6.5302    0.3251 H   0  0  0  0  0  0  0  0  0  0  0  0
   -5.3398    8.2896   -0.4535 H   0  0  0  0  0  0  0  0  0  0  0  0
   -5.5847    8.4200    1.3231 H   0  0  0  0  0  0  0  0  0  0  0  0
   -4.0357    7.7676    0.6635 H   0  0  0  0  0  0  0  0  0  0  0  0
   -5.5947    5.6816   -1.4726 H   0  0  0  0  0  0  0  0  0  0  0  0
   -4.0073    3.7649    1.0142 H   0  0  0  0  0  0  0  0  0  0  0  0
   -3.9220    2.6584   -1.2686 H   0  0  0  0  0  0  0  0  0  0  0  0
   -2.1591    3.0517   -1.3315 H   0  0  0  0  0  0  0  0  0  0  0  0
   -0.9312    0.6717   -1.2527 H   0  0  0  0  0  0  0  0  0  0  0  0
   -2.5352    0.6822   -2.0767 H   0  0  0  0  0  0  0  0  0  0  0  0
   -1.5493    3.6283    1.5566 H   0  0  0  0  0  0  0  0  0  0  0  0
    0.6870    6.1798    1.1598 H   0  0  0  0  0  0  0  0  0  0  0  0
    1.5604    4.7926   -0.7051 H   0  0  0  0  0  0  0  0  0  0  0  0
   -0.1153    4.3200   -1.1629 H   0  0  0  0  0  0  0  0  0  0  0  0
    0.5967    3.7916    0.4171 H   0  0  0  0  0  0  0  0  0  0  0  0
   -1.0579    7.3316   -0.9144 H   0  0  0  0  0  0  0  0  0  0  0  0
    3.0787    7.2232   -1.3219 H   0  0  0  0  0  0  0  0  0  0  0  0
    3.4721    9.7232   -1.2467 H   0  0  0  0  0  0  0  0  0  0  0  0
    1.6949    9.9925   -1.3981 H   0  0  0  0  0  0  0  0  0  0  0  0
    2.6207    9.2030   -2.7388 H   0  0  0  0  0  0  0  0  0  0  0  0
    1.4440    8.4769    0.9271 H   0  0  0  0  0  0  0  0  0  0  0  0
    4.8415    8.0969   -0.2065 H   0  0  0  0  0  0  0  0  0  0  0  0
    6.6190    8.8195    1.2812 H   0  0  0  0  0  0  0  0  0  0  0  0
    5.0976    9.6858    1.6985 H   0  0  0  0  0  0  0  0  0  0  0  0
    5.6805    8.3189    2.7406 H   0  0  0  0  0  0  0  0  0  0  0  0
    5.3892    5.8504    1.7904 H   0  0  0  0  0  0  0  0  0  0  0  0
    7.3776    5.1995   -1.6884 H   0  0  0  0  0  0  0  0  0  0  0  0
    6.0181    7.1306   -2.5634 H   0  0  0  0  0  0  0  0  0  0  0  0
    7.7996    7.3756   -2.5854 H   0  0  0  0  0  0  0  0  0  0  0  0
    6.8136    8.1879   -1.3324 H   0  0  0  0  0  0  0  0  0  0  0  0
    8.2164    7.2278    0.4120 H   0  0  0  0  0  0  0  0  0  0  0  0
    8.1162    3.5951   -0.3437 H   0  0  0  0  0  0  0  0  0  0  0  0
    9.8889    2.7202   -1.7963 H   0  0  0  0  0  0  0  0  0  0  0  0
    9.5878    4.4409   -2.1825 H   0  0  0  0  0  0  0  0  0  0  0  0
   11.0400    3.9969   -1.2309 H   0  0  0  0  0  0  0  0  0  0  0  0
    8.9292    2.8025    1.7173 H   0  0  0  0  0  0  0  0  0  0  0  0
   11.3845    1.6041   -0.4362 H   0  0  0  0  0  0  0  0  0  0  0  0
   13.8443    1.5849   -0.2646 H   0  0  0  0  0  0  0  0  0  0  0  0
   13.7744    2.5277    1.2694 H   0  0  0  0  0  0  0  0  0  0  0  0
   13.2185    3.2684   -0.2822 H   0  0  0  0  0  0  0  0  0  0  0  0
   12.4972    0.4661    2.1548 H   0  0  0  0  0  0  0  0  0  0  0  0
   10.5954   -2.0514   -0.4110 H   0  0  0  0  0  0  0  0  0  0  0  0
   12.3311   -0.6017   -1.4213 H   0  0  0  0  0  0  0  0  0  0  0  0
   12.8909   -2.3024   -1.2999 H   0  0  0  0  0  0  0  0  0  0  0  0
   13.5058   -1.0843   -0.1352 H   0  0  0  0  0  0  0  0  0  0  0  0
   12.5478   -2.5634    1.8716 H   0  0  0  0  0  0  0  0  0  0  0  0
    9.5964   -3.9425    0.2449 H   0  0  0  0  0  0  0  0  0  0  0  0
   11.5057   -5.7052   -1.4492 H   0  0  0  0  0  0  0  0  0  0  0  0
   11.1838   -3.9545   -1.7598 H   0  0  0  0  0  0  0  0  0  0  0  0
    9.8581   -5.1326   -1.9319 H   0  0  0  0  0  0  0  0  0  0  0  0
   10.5255   -6.5019    1.3659 H   0  0  0  0  0  0  0  0  0  0  0  0
    7.7579   -4.8912   -0.5307 H   0  0  0  0  0  0  0  0  0  0  0  0
    6.6537   -5.9883   -2.3508 H   0  0  0  0  0  0  0  0  0  0  0  0
    6.8614   -7.6322   -1.6105 H   0  0  0  0  0  0  0  0  0  0  0  0
    8.2685   -6.7397   -2.2650 H   0  0  0  0  0  0  0  0  0  0  0  0
    6.4540   -5.6728    1.4958 H   0  0  0  0  0  0  0  0  0  0  0  0
    3.6396   -8.0781    0.6217 H   0  0  0  0  0  0  0  0  0  0  0  0
    4.3552   -8.6348    2.8467 H   0  0  0  0  0  0  0  0  0  0  0  0
    5.5160   -7.2595    2.9039 H   0  0  0  0  0  0  0  0  0  0  0  0
    5.7942   -8.6380    1.7563 H   0  0  0  0  0  0  0  0  0  0  0  0
    3.6724   -5.6336    2.4569 H   0  0  0  0  0  0  0  0  0  0  0  0
  1  2  1  0
  2  3  2  0
  2  4  1  0
  4  5  1  0
  5  6  1  0
  6  7  1  0
  7  8  1  0
  8  9  1  0
  9 10  2  0
 10 11  1  0
 11 12  2  0
 12 13  1  0
 13 14  2  0
 13 15  1  0
 15 16  1  0
 16 17  1  0
 17 18  1  0
 18 19  1  0
 19 20  1  0
 19 21  2  0
 18 22  1  0
 22 23  1  0
 23 24  2  0
 23 25  1  0
 25 26  1  0
 25 27  1  0
 27 28  1  0
 28 29  2  0
 28 30  1  0
 30 31  1  0
 30 32  1  0
 32 33  1  0
 33 34  2  0
 33 35  1  0
 35 36  1  0
 35 37  1  0
 37 38  1  0
 38 39  2  0
 38 40  1  0
 40 41  1  0
 40 42  1  0
 42 43  1  0
 43 44  2  0
 43 45  1  0
 45 46  1  0
 45 47  1  0
 47 48  1  0
 48 49  2  0
 48 50  1  0
 50 51  1  0
 50 52  1  0
 52 53  1  0
 53 54  2  0
 53 55  1  0
 55 56  1  0
 56 57  1  0
 57 58  1  0
 55 59  1  0
 59 60  1  0
 60 61  2  0
 60 62  1  0
 62 63  1  0
 62 64  1  0
 64 65  1  0
 65 66  2  0
 65 67  1  0
 67 68  1  0
 67 69  1  0
 69 70  1  0
 70 71  2  0
 70 72  1  0
 72 73  1  0
 72 74  1  0
 74 75  1  0
 75 76  2  0
 75 77  1  0
 77 78  1  0
 77 79  1  0
 79 80  1  0
 80 81  2  0
 80 82  1  0
 82 83  1  0
 82 84  1  0
 84 85  1  0
 85 86  2  0
 85 87  1  0
 87 88  1  0
 87 89  1  0
 89 90  1  0
 90 91  2  0
 90 92  1  0
 92 93  1  0
 92 94  1  0
 94 95  1  0
 95 96  2  0
 95 97  1  0
 97 98  1  0
 97 99  1  0
 99100  1  0
100101  2  0
100102  1  0
102103  1  0
102104  1  0
104105  1  0
105106  2  0
105107  1  0
107108  1  0
107109  1  0
109110  1  0
110111  2  0
110  5  1  0
 14  9  1  0
 58 11  1  0
  1112  1  0
  1113  1  0
  1114  1  0
  4115  1  0
  5116  1  6
  6117  1  0
  6118  1  0
  8119  1  0
  8120  1  0
 10121  1  0
 12122  1  0
 14123  1  0
 15124  1  0
 15125  1  0
 17126  1  0
 17127  1  0
 18128  1  6
 20129  1  0
 20130  1  0
 22131  1  0
 25132  1  6
 26133  1  0
 26134  1  0
 26135  1  0
 27136  1  0
 30137  1  6
 31138  1  0
 31139  1  0
 31140  1  0
 32141  1  0
 35142  1  6
 36143  1  0
 36144  1  0
 36145  1  0
 37146  1  0
 40147  1  6
 41148  1  0
 41149  1  0
 41150  1  0
 42151  1  0
 45152  1  6
 46153  1  0
 46154  1  0
 46155  1  0
 47156  1  0
 50157  1  6
 51158  1  0
 51159  1  0
 51160  1  0
 52161  1  0
 55162  1  1
 56163  1  0
 56164  1  0
 58165  1  0
 58166  1  0
 59167  1  0
 62168  1  1
 63169  1  0
 63170  1  0
 63171  1  0
 64172  1  0
 67173  1  1
 68174  1  0
 68175  1  0
 68176  1  0
 69177  1  0
 72178  1  6
 73179  1  0
 73180  1  0
 73181  1  0
 74182  1  0
 77183  1  6
 78184  1  0
 78185  1  0
 78186  1  0
 79187  1  0
 82188  1  6
 83189  1  0
 83190  1  0
 83191  1  0
 84192  1  0
 87193  1  6
 88194  1  0
 88195  1  0
 88196  1  0
 89197  1  0
 92198  1  6
 93199  1  0
 93200  1  0
 93201  1  0
 94202  1  0
 97203  1  6
 98204  1  0
 98205  1  0
 98206  1  0
 99207  1  0
102208  1  6
103209  1  0
103210  1  0
103211  1  0
104212  1  0
107213  1  6
108214  1  0
108215  1  0
108216  1  0
109217  1  0
M  END
