
     RDKit          3D

227229  0  0  0  0  0  0  0  0999 V2000
    1.4329   -9.6456   -0.5097 C   0  0  0  0  0  0  0  0  0  0  0  0
    1.4263   -8.8721    0.7726 C   0  0  0  0  0  0  0  0  0  0  0  0
    0.8241   -9.3639    1.7681 O   0  0  0  0  0  0  0  0  0  0  0  0
    2.1347   -7.6339    0.9292 N   0  0  0  0  0  0  0  0  0  0  0  0
    2.1387   -6.5376   -0.0505 C   0  0  2  0  0  0  0  0  0  0  0  0
    0.7037   -6.2162   -0.5074 C   0  0  0  0  0  0  0  0  0  0  0  0
    0.6253   -4.6269   -1.4296 S   0  0  0  0  0  0  0  0  0  0  0  0
    0.5479   -3.5353    0.0348 C   0  0  0  0  0  0  0  0  0  0  0  0
   -0.7375   -2.7638    0.0168 C   0  0  0  0  0  0  0  0  0  0  0  0
   -1.8470   -3.1872    0.7784 C   0  0  0  0  0  0  0  0  0  0  0  0
   -3.0343   -2.4479    0.7760 C   0  0  0  0  0  0  0  0  0  0  0  0
   -3.0863   -1.2342    0.0731 C   0  0  0  0  0  0  0  0  0  0  0  0
   -1.9878   -0.7919   -0.6806 C   0  0  0  0  0  0  0  0  0  0  0  0
   -0.8305   -1.5802   -0.7271 C   0  0  0  0  0  0  0  0  0  0  0  0
   -2.0392    0.5231   -1.4094 C   0  0  0  0  0  0  0  0  0  0  0  0
   -0.7700    1.6865   -0.7825 S   0  0  0  0  0  0  0  0  0  0  0  0
   -1.4040    1.8387    0.9431 C   0  0  0  0  0  0  0  0  0  0  0  0
   -1.6008    3.2999    1.4061 C   0  0  1  0  0  0  0  0  0  0  0  0
   -0.3361    3.9680    1.7723 N   0  0  0  0  0  0  0  0  0  0  0  0
    0.8981    3.8495    1.0383 C   0  0  0  0  0  0  0  0  0  0  0  0
    1.5067    2.7453    1.0278 O   0  0  0  0  0  0  0  0  0  0  0  0
    1.4958    5.0158    0.2757 C   0  0  1  0  0  0  0  0  0  0  0  0
    1.1520    4.9036   -1.2114 C   0  0  0  0  0  0  0  0  0  0  0  0
    1.0250    6.2981    0.8041 N   0  0  0  0  0  0  0  0  0  0  0  0
    1.9138    7.3168    1.2706 C   0  0  0  0  0  0  0  0  0  0  0  0
    1.6438    7.9172    2.3518 O   0  0  0  0  0  0  0  0  0  0  0  0
    3.1334    7.7243    0.4796 C   0  0  1  0  0  0  0  0  0  0  0  0
    3.0333    9.2291    0.1927 C   0  0  0  0  0  0  0  0  0  0  0  0
    4.3435    7.3564    1.2380 N   0  0  0  0  0  0  0  0  0  0  0  0
    5.6127    8.0258    1.2374 C   0  0  0  0  0  0  0  0  0  0  0  0
    6.2222    8.1339    2.3420 O   0  0  0  0  0  0  0  0  0  0  0  0
    6.2313    8.6356   -0.0033 C   0  0  1  0  0  0  0  0  0  0  0  0
    7.7395    8.9004    0.1701 C   0  0  0  0  0  0  0  0  0  0  0  0
    5.9396    7.8268   -1.1984 N   0  0  0  0  0  0  0  0  0  0  0  0
    6.8624    6.9745   -1.8977 C   0  0  0  0  0  0  0  0  0  0  0  0
    6.9370    7.0657   -3.1508 O   0  0  0  0  0  0  0  0  0  0  0  0
    7.6791    5.9275   -1.1810 C   0  0  1  0  0  0  0  0  0  0  0  0
    7.4255    4.5538   -1.8089 C   0  0  0  0  0  0  0  0  0  0  0  0
    9.1058    6.2525   -1.2727 N   0  0  0  0  0  0  0  0  0  0  0  0
   10.0213    6.1601   -0.1695 C   0  0  0  0  0  0  0  0  0  0  0  0
   10.7595    7.1498    0.0968 O   0  0  0  0  0  0  0  0  0  0  0  0
   10.2021    4.8748    0.6162 C   0  0  1  0  0  0  0  0  0  0  0  0
    9.0240    4.5982    1.5491 C   0  0  0  0  0  0  0  0  0  0  0  0
   10.4621    3.7594   -0.3021 N   0  0  0  0  0  0  0  0  0  0  0  0
   10.8445    2.4669    0.1850 C   0  0  0  0  0  0  0  0  0  0  0  0
   10.0654    1.8366    0.9476 O   0  0  0  0  0  0  0  0  0  0  0  0
   12.1345    1.8087   -0.2376 C   0  0  1  0  0  0  0  0  0  0  0  0
   13.0588    2.7341   -1.0299 C   0  0  0  0  0  0  0  0  0  0  0  0
   12.8414    1.3442    0.9631 N   0  0  0  0  0  0  0  0  0  0  0  0
   13.1117   -0.0224    1.3199 C   0  0  0  0  0  0  0  0  0  0  0  0
   13.7612   -0.2399    2.3764 O   0  0  0  0  0  0  0  0  0  0  0  0
   12.7149   -1.1947    0.4338 C   0  0  1  0  0  0  0  0  0  0  0  0
   13.7508   -1.3533   -0.6841 C   0  0  0  0  0  0  0  0  0  0  0  0
   12.6171   -2.4512    1.2057 N   0  0  0  0  0  0  0  0  0  0  0  0
   12.1611   -3.6974    0.6595 C   0  0  0  0  0  0  0  0  0  0  0  0
   12.5604   -4.7665    1.1934 O   0  0  0  0  0  0  0  0  0  0  0  0
   11.1857   -3.7766   -0.5047 C   0  0  1  0  0  0  0  0  0  0  0  0
   11.5934   -4.8643   -1.5007 C   0  0  0  0  0  0  0  0  0  0  0  0
    9.7980   -3.9961   -0.0586 N   0  0  0  0  0  0  0  0  0  0  0  0
    9.4179   -5.0873    0.7982 C   0  0  0  0  0  0  0  0  0  0  0  0
    9.9560   -5.2190    1.9277 O   0  0  0  0  0  0  0  0  0  0  0  0
    8.3462   -6.0564    0.3580 C   0  0  1  0  0  0  0  0  0  0  0  0
    8.8938   -7.4890    0.4392 C   0  0  0  0  0  0  0  0  0  0  0  0
    7.1528   -5.9132    1.1996 N   0  0  0  0  0  0  0  0  0  0  0  0
    5.8369   -6.4116    0.8863 C   0  0  0  0  0  0  0  0  0  0  0  0
    4.9102   -6.2335    1.7257 O   0  0  0  0  0  0  0  0  0  0  0  0
    5.5119   -7.1547   -0.3914 C   0  0  1  0  0  0  0  0  0  0  0  0
    5.1558   -8.6180   -0.1093 C   0  0  0  0  0  0  0  0  0  0  0  0
    4.4669   -6.4388   -1.1452 N   0  0  0  0  0  0  0  0  0  0  0  0
    3.0835   -6.8185   -1.2038 C   0  0  0  0  0  0  0  0  0  0  0  0
    2.6275   -7.2526   -2.2977 O   0  0  0  0  0  0  0  0  0  0  0  0
   -2.3914    4.1166    0.4097 C   0  0  0  0  0  0  0  0  0  0  0  0
   -2.0023    5.2744    0.0985 O   0  0  0  0  0  0  0  0  0  0  0  0
   -3.6092    3.6150   -0.1422 N   0  0  0  0  0  0  0  0  0  0  0  0
   -4.0336    3.9491   -1.5079 C   0  0  2  0  0  0  0  0  0  0  0  0
   -4.4057    5.4334   -1.6608 C   0  0  0  0  0  0  0  0  0  0  0  0
   -5.1421    3.0269   -1.9745 C   0  0  0  0  0  0  0  0  0  0  0  0
   -4.8920    2.2443   -2.9324 O   0  0  0  0  0  0  0  0  0  0  0  0
   -6.4428    2.9477   -1.3642 N   0  0  0  0  0  0  0  0  0  0  0  0
   -6.9281    3.7330   -0.2197 C   0  0  2  0  0  0  0  0  0  0  0  0
   -7.5113    2.8043    0.8446 C   0  0  0  0  0  0  0  0  0  0  0  0
   -7.9362    4.7433   -0.6958 C   0  0  0  0  0  0  0  0  0  0  0  0
   -7.5375    5.8881   -1.0694 O   0  0  0  0  0  0  0  0  0  0  0  0
   -9.2923    4.3504   -0.9587 N   0  0  0  0  0  0  0  0  0  0  0  0
  -10.4602    5.0617   -0.4374 C   0  0  2  0  0  0  0  0  0  0  0  0
  -10.3917    6.5745   -0.7080 C   0  0  0  0  0  0  0  0  0  0  0  0
  -10.6302    4.7463    1.0355 C   0  0  0  0  0  0  0  0  0  0  0  0
  -10.2052    5.5570    1.9024 O   0  0  0  0  0  0  0  0  0  0  0  0
  -11.1933    3.4961    1.4719 N   0  0  0  0  0  0  0  0  0  0  0  0
  -12.0033    2.6091    0.6319 C   0  0  2  0  0  0  0  0  0  0  0  0
  -13.4326    3.1486    0.5212 C   0  0  0  0  0  0  0  0  0  0  0  0
  -12.0101    1.2125    1.1987 C   0  0  0  0  0  0  0  0  0  0  0  0
  -12.6315    0.9647    2.2702 O   0  0  0  0  0  0  0  0  0  0  0  0
  -11.2699    0.1706    0.5487 N   0  0  0  0  0  0  0  0  0  0  0  0
  -11.9163   -0.8801   -0.2599 C   0  0  2  0  0  0  0  0  0  0  0  0
  -12.2371   -0.3560   -1.6551 C   0  0  0  0  0  0  0  0  0  0  0  0
  -13.1611   -1.4193    0.4190 C   0  0  0  0  0  0  0  0  0  0  0  0
  -14.1862   -0.6877    0.4950 O   0  0  0  0  0  0  0  0  0  0  0  0
  -13.2089   -2.7299    1.0087 N   0  0  0  0  0  0  0  0  0  0  0  0
  -12.4638   -3.8880    0.4945 C   0  0  2  0  0  0  0  0  0  0  0  0
  -13.2776   -5.1653    0.7359 C   0  0  0  0  0  0  0  0  0  0  0  0
  -11.1197   -3.9833    1.1802 C   0  0  0  0  0  0  0  0  0  0  0  0
  -11.0422   -3.8034    2.4190 O   0  0  0  0  0  0  0  0  0  0  0  0
   -9.9291   -4.2954    0.4425 N   0  0  0  0  0  0  0  0  0  0  0  0
   -9.8686   -5.4423   -0.4837 C   0  0  2  0  0  0  0  0  0  0  0  0
   -9.6395   -6.7444    0.2971 C   0  0  0  0  0  0  0  0  0  0  0  0
   -8.8451   -5.2016   -1.5711 C   0  0  0  0  0  0  0  0  0  0  0  0
   -9.2112   -5.3425   -2.7723 O   0  0  0  0  0  0  0  0  0  0  0  0
   -7.5089   -4.7424   -1.3068 N   0  0  0  0  0  0  0  0  0  0  0  0
   -6.5837   -5.4300   -0.3925 C   0  0  1  0  0  0  0  0  0  0  0  0
   -6.2206   -6.7772   -0.9606 C   0  0  0  0  0  0  0  0  0  0  0  0
   -6.3919   -7.9577   -0.1788 N   0  0  0  0  0  0  0  0  0  0  0  0
   -5.7486   -6.8577   -2.1255 O   0  0  0  0  0  0  0  0  0  0  0  0
   -5.3153   -4.5938   -0.1674 C   0  0  0  0  0  0  0  0  0  0  0  0
   -5.7421   -3.0226    0.6734 S   0  0  0  0  0  0  0  0  0  0  0  0
   -4.1960   -2.8616    1.6441 C   0  0  0  0  0  0  0  0  0  0  0  0
    2.3397   -9.4279   -1.0943 H   0  0  0  0  0  0  0  0  0  0  0  0
    1.4297  -10.7351   -0.2895 H   0  0  0  0  0  0  0  0  0  0  0  0
    0.5286   -9.4068   -1.1027 H   0  0  0  0  0  0  0  0  0  0  0  0
    2.4291   -7.3929    1.9003 H   0  0  0  0  0  0  0  0  0  0  0  0
    2.5292   -5.6337    0.4564 H   0  0  0  0  0  0  0  0  0  0  0  0
    0.0182   -6.1797    0.3661 H   0  0  0  0  0  0  0  0  0  0  0  0
    0.3224   -7.0096   -1.1783 H   0  0  0  0  0  0  0  0  0  0  0  0
    1.4034   -2.8288   -0.0205 H   0  0  0  0  0  0  0  0  0  0  0  0
    0.6648   -4.0778    1.0022 H   0  0  0  0  0  0  0  0  0  0  0  0
   -1.7705   -4.0955    1.3715 H   0  0  0  0  0  0  0  0  0  0  0  0
   -3.9886   -0.6342    0.1115 H   0  0  0  0  0  0  0  0  0  0  0  0
    0.0165   -1.2458   -1.3157 H   0  0  0  0  0  0  0  0  0  0  0  0
   -3.0447    0.9900   -1.3180 H   0  0  0  0  0  0  0  0  0  0  0  0
   -1.8416    0.3436   -2.4885 H   0  0  0  0  0  0  0  0  0  0  0  0
   -2.3773    1.3225    1.0447 H   0  0  0  0  0  0  0  0  0  0  0  0
   -0.7029    1.3162    1.6280 H   0  0  0  0  0  0  0  0  0  0  0  0
   -2.2191    3.2540    2.3277 H   0  0  0  0  0  0  0  0  0  0  0  0
   -0.4344    4.7954    2.3980 H   0  0  0  0  0  0  0  0  0  0  0  0
    2.6040    4.9528    0.3712 H   0  0  0  0  0  0  0  0  0  0  0  0
    0.0585    4.8050   -1.3670 H   0  0  0  0  0  0  0  0  0  0  0  0
    1.6539    4.0199   -1.6508 H   0  0  0  0  0  0  0  0  0  0  0  0
    1.5056    5.8059   -1.7550 H   0  0  0  0  0  0  0  0  0  0  0  0
    0.0041    6.4788    0.9032 H   0  0  0  0  0  0  0  0  0  0  0  0
    3.1450    7.1823   -0.4903 H   0  0  0  0  0  0  0  0  0  0  0  0
    3.6508    9.5134   -0.6792 H   0  0  0  0  0  0  0  0  0  0  0  0
    1.9870    9.5033   -0.0799 H   0  0  0  0  0  0  0  0  0  0  0  0
    3.3360    9.8276    1.0796 H   0  0  0  0  0  0  0  0  0  0  0  0
    4.2528    6.5776    1.9343 H   0  0  0  0  0  0  0  0  0  0  0  0
    5.7863    9.6401   -0.1447 H   0  0  0  0  0  0  0  0  0  0  0  0
    7.8984    9.7692    0.8442 H   0  0  0  0  0  0  0  0  0  0  0  0
    8.2407    8.0294    0.6334 H   0  0  0  0  0  0  0  0  0  0  0  0
    8.2179    9.1340   -0.8058 H   0  0  0  0  0  0  0  0  0  0  0  0
    5.0863    8.0916   -1.7433 H   0  0  0  0  0  0  0  0  0  0  0  0
    7.3564    5.9012   -0.1205 H   0  0  0  0  0  0  0  0  0  0  0  0
    6.3453    4.3067   -1.7573 H   0  0  0  0  0  0  0  0  0  0  0  0
    7.7458    4.5413   -2.8718 H   0  0  0  0  0  0  0  0  0  0  0  0
    7.9849    3.7626   -1.2732 H   0  0  0  0  0  0  0  0  0  0  0  0
    9.4494    6.7487   -2.1349 H   0  0  0  0  0  0  0  0  0  0  0  0
   11.1108    5.0024    1.2519 H   0  0  0  0  0  0  0  0  0  0  0  0
    8.6523    5.5405    2.0127 H   0  0  0  0  0  0  0  0  0  0  0  0
    8.1909    4.0943    1.0194 H   0  0  0  0  0  0  0  0  0  0  0  0
    9.3441    3.9320    2.3747 H   0  0  0  0  0  0  0  0  0  0  0  0
   10.6711    3.9768   -1.3001 H   0  0  0  0  0  0  0  0  0  0  0  0
   11.8758    0.9693   -0.9029 H   0  0  0  0  0  0  0  0  0  0  0  0
   13.2844    3.6537   -0.4484 H   0  0  0  0  0  0  0  0  0  0  0  0
   14.0224    2.2114   -1.2368 H   0  0  0  0  0  0  0  0  0  0  0  0
   12.6106    3.0111   -2.0096 H   0  0  0  0  0  0  0  0  0  0  0  0
   13.1645    2.0798    1.6319 H   0  0  0  0  0  0  0  0  0  0  0  0
   11.7165   -0.9703    0.0080 H   0  0  0  0  0  0  0  0  0  0  0  0
   14.7468   -1.5931   -0.2515 H   0  0  0  0  0  0  0  0  0  0  0  0
   13.8441   -0.4161   -1.2704 H   0  0  0  0  0  0  0  0  0  0  0  0
   13.4634   -2.1705   -1.3781 H   0  0  0  0  0  0  0  0  0  0  0  0
   13.0447   -2.5044    2.1583 H   0  0  0  0  0  0  0  0  0  0  0  0
   11.1990   -2.8232   -1.0758 H   0  0  0  0  0  0  0  0  0  0  0  0
   11.6142   -5.8663   -1.0145 H   0  0  0  0  0  0  0  0  0  0  0  0
   10.8708   -4.9032   -2.3400 H   0  0  0  0  0  0  0  0  0  0  0  0
   12.6031   -4.6442   -1.9122 H   0  0  0  0  0  0  0  0  0  0  0  0
    9.0647   -3.6551   -0.7060 H   0  0  0  0  0  0  0  0  0  0  0  0
    8.0960   -5.8189   -0.6983 H   0  0  0  0  0  0  0  0  0  0  0  0
    9.8337   -7.5651   -0.1455 H   0  0  0  0  0  0  0  0  0  0  0  0
    9.1088   -7.7701    1.4903 H   0  0  0  0  0  0  0  0  0  0  0  0
    8.1785   -8.2156    0.0109 H   0  0  0  0  0  0  0  0  0  0  0  0
    7.2255   -5.3300    2.0710 H   0  0  0  0  0  0  0  0  0  0  0  0
    6.4063   -7.1901   -1.0473 H   0  0  0  0  0  0  0  0  0  0  0  0
    6.0499   -9.1707    0.2416 H   0  0  0  0  0  0  0  0  0  0  0  0
    4.7881   -9.1103   -1.0327 H   0  0  0  0  0  0  0  0  0  0  0  0
    4.3826   -8.7071    0.6765 H   0  0  0  0  0  0  0  0  0  0  0  0
    4.8076   -5.8752   -1.9563 H   0  0  0  0  0  0  0  0  0  0  0  0
   -4.0908    2.8403    0.3592 H   0  0  0  0  0  0  0  0  0  0  0  0
   -3.1580    3.7719   -2.1795 H   0  0  0  0  0  0  0  0  0  0  0  0
   -5.0610    5.5877   -2.5483 H   0  0  0  0  0  0  0  0  0  0  0  0
   -3.4895    6.0459   -1.8172 H   0  0  0  0  0  0  0  0  0  0  0  0
   -4.9128    5.8294   -0.7596 H   0  0  0  0  0  0  0  0  0  0  0  0
   -7.1468    2.3503   -1.8407 H   0  0  0  0  0  0  0  0  0  0  0  0
   -6.0922    4.2750    0.2708 H   0  0  0  0  0  0  0  0  0  0  0  0
   -7.9243    3.3955    1.6921 H   0  0  0  0  0  0  0  0  0  0  0  0
   -6.7100    2.1450    1.2421 H   0  0  0  0  0  0  0  0  0  0  0  0
   -8.3128    2.1625    0.4229 H   0  0  0  0  0  0  0  0  0  0  0  0
   -9.4479    3.3701   -1.2868 H   0  0  0  0  0  0  0  0  0  0  0  0
  -11.3558    4.7172   -0.9961 H   0  0  0  0  0  0  0  0  0  0  0  0
  -11.3642    7.0433   -0.4566 H   0  0  0  0  0  0  0  0  0  0  0  0
   -9.6005    7.0620   -0.0991 H   0  0  0  0  0  0  0  0  0  0  0  0
  -10.1829    6.7573   -1.7866 H   0  0  0  0  0  0  0  0  0  0  0  0
  -11.0551    3.2407    2.4772 H   0  0  0  0  0  0  0  0  0  0  0  0
  -11.5553    2.5448   -0.3813 H   0  0  0  0  0  0  0  0  0  0  0  0
  -13.8517    3.3374    1.5319 H   0  0  0  0  0  0  0  0  0  0  0  0
  -14.0828    2.4264   -0.0134 H   0  0  0  0  0  0  0  0  0  0  0  0
  -13.4414    4.0993   -0.0441 H   0  0  0  0  0  0  0  0  0  0  0  0
  -10.2782    0.3940    0.3104 H   0  0  0  0  0  0  0  0  0  0  0  0
  -11.1782   -1.6978   -0.3778 H   0  0  0  0  0  0  0  0  0  0  0  0
  -12.6370   -1.1787   -2.2871 H   0  0  0  0  0  0  0  0  0  0  0  0
  -11.3172    0.0414   -2.1374 H   0  0  0  0  0  0  0  0  0  0  0  0
  -12.9894    0.4639   -1.6125 H   0  0  0  0  0  0  0  0  0  0  0  0
  -13.9553   -2.8911    1.7245 H   0  0  0  0  0  0  0  0  0  0  0  0
  -12.3324   -3.7788   -0.6056 H   0  0  0  0  0  0  0  0  0  0  0  0
  -12.7603   -6.0464    0.3067 H   0  0  0  0  0  0  0  0  0  0  0  0
  -13.4302   -5.3334    1.8234 H   0  0  0  0  0  0  0  0  0  0  0  0
  -14.2661   -5.0770    0.2430 H   0  0  0  0  0  0  0  0  0  0  0  0
   -9.0251   -3.9721    0.8575 H   0  0  0  0  0  0  0  0  0  0  0  0
  -10.8529   -5.5471   -0.9976 H   0  0  0  0  0  0  0  0  0  0  0  0
   -8.9035   -6.6108    1.1154 H   0  0  0  0  0  0  0  0  0  0  0  0
   -9.3109   -7.5626   -0.3848 H   0  0  0  0  0  0  0  0  0  0  0  0
  -10.5918   -7.0654    0.7636 H   0  0  0  0  0  0  0  0  0  0  0  0
   -7.0817   -4.1355   -2.0452 H   0  0  0  0  0  0  0  0  0  0  0  0
   -7.0638   -5.5501    0.5998 H   0  0  0  0  0  0  0  0  0  0  0  0
   -6.2329   -8.9009   -0.6128 H   0  0  0  0  0  0  0  0  0  0  0  0
   -6.6998   -7.9124    0.8165 H   0  0  0  0  0  0  0  0  0  0  0  0
   -4.8097   -4.3641   -1.1286 H   0  0  0  0  0  0  0  0  0  0  0  0
   -4.6166   -5.1852    0.4625 H   0  0  0  0  0  0  0  0  0  0  0  0
   -4.3445   -2.0887    2.4207 H   0  0  0  0  0  0  0  0  0  0  0  0
   -3.9914   -3.8154    2.1854 H   0  0  0  0  0  0  0  0  0  0  0  0
  1  2  1  0
  2  3  2  0
  2  4  1  0
  4  5  1  0
  5  6  1  0
  6  7  1  0
  7  8  1  0
  8  9  1  0
  9 10  2  0
 10 11  1  0
 11 12  2  0
 12 13  1  0
 13 14  2  0
 13 15  1  0
 15 16  1  0
 16 17  1  0
 17 18  1  0
 18 19  1  0
 19 20  1  0
 20 21  2  0
 20 22  1  0
 22 23  1  0
 22 24  1  0
 24 25  1  0
 25 26  2  0
 25 27  1  0
 27 28  1  0
 27 29  1  0
 29 30  1  0
 30 31  2  0
 30 32  1  0
 32 33  1  0
 32 34  1  0
 34 35  1  0
 35 36  2  0
 35 37  1  0
 37 38  1  0
 37 39  1  0
 39 40  1  0
 40 41  2  0
 40 42  1  0
 42 43  1  0
 42 44  1  0
 44 45  1  0
 45 46  2  0
 45 47  1  0
 47 48  1  0
 47 49  1  0
 49 50  1  0
 50 51  2  0
 50 52  1  0
 52 53  1  0
 52 54  1  0
 54 55  1  0
 55 56  2  0
 55 57  1  0
 57 58  1  0
 57 59  1  0
 59 60  1  0
 60 61  2  0
 60 62  1  0
 62 63  1  0
 62 64  1  0
 64 65  1  0
 65 66  2  0
 65 67  1  0
 67 68  1  0
 67 69  1  0
 69 70  1  0
 70 71  2  0
 18 72  1  0
 72 73  2  0
 72 74  1  0
 74 75  1  0
 75 76  1  0
 75 77  1  0
 77 78  2  0
 77 79  1  0
 79 80  1  0
 80 81  1  0
 80 82  1  0
 82 83  2  0
 82 84  1  0
 84 85  1  0
 85 86  1  0
 85 87  1  0
 87 88  2  0
 87 89  1  0
 89 90  1  0
 90 91  1  0
 90 92  1  0
 92 93  2  0
 92 94  1  0
 94 95  1  0
 95 96  1  0
 95 97  1  0
 97 98  2  0
 97 99  1  0
 99100  1  0
100101  1  0
100102  1  0
102103  2  0
102104  1  0
104105  1  0
105106  1  0
105107  1  0
107108  2  0
107109  1  0
109110  1  0
110111  1  0
111112  1  0
111113  2  0
110114  1  0
114115  1  0
115116  1  0
 70  5  1  0
 14  9  1  0
116 11  1  0
  1117  1  0
  1118  1  0
  1119  1  0
  4120  1  0
  5121  1  1
  6122  1  0
  6123  1  0
  8124  1  0
  8125  1  0
 10126  1  0
 12127  1  0
 14128  1  0
 15129  1  0
 15130  1  0
 17131  1  0
 17132  1  0
 18133  1  1
 19134  1  0
 22135  1  6
 23136  1  0
 23137  1  0
 23138  1  0
 24139  1  0
 27140  1  6
 28141  1  0
 28142  1  0
 28143  1  0
 29144  1  0
 32145  1  6
 33146  1  0
 33147  1  0
 33148  1  0
 34149  1  0
 37150  1  1
 38151  1  0
 38152  1  0
 38153  1  0
 39154  1  0
 42155  1  1
 43156  1  0
 43157  1  0
 43158  1  0
 44159  1  0
 47160  1  6
 48161  1  0
 48162  1  0
 48163  1  0
 49164  1  0
 52165  1  6
 53166  1  0
 53167  1  0
 53168  1  0
 54169  1  0
 57170  1  6
 58171  1  0
 58172  1  0
 58173  1  0
 59174  1  0
 62175  1  6
 63176  1  0
 63177  1  0
 63178  1  0
 64179  1  0
 67180  1  6
 68181  1  0
 68182  1  0
 68183  1  0
 69184  1  0
 74185  1  0
 75186  1  6
 76187  1  0
 76188  1  0
 76189  1  0
 79190  1  0
 80191  1  1
 81192  1  0
 81193  1  0
 81194  1  0
 84195  1  0
 85196  1  6
 86197  1  0
 86198  1  0
 86199  1  0
 89200  1  0
 90201  1  6
 91202  1  0
 91203  1  0
 91204  1  0
 94205  1  0
 95206  1  6
 96207  1  0
 96208  1  0
 96209  1  0
 99210  1  0
100211  1  6
101212  1  0
101213  1  0
101214  1  0
104215  1  0
105216  1  6
106217  1  0
106218  1  0
106219  1  0
109220  1  0
110221  1  1
112222  1  0
112223  1  0
114224  1  0
114225  1  0
116226  1  0
116227  1  0
M  END
