
     RDKit          3D

227229  0  0  0  0  0  0  0  0999 V2000
    0.1235    9.9160    0.1323 C   0  0  0  0  0  0  0  0  0  0  0  0
    0.9520    9.0790    1.0543 C   0  0  0  0  0  0  0  0  0  0  0  0
    1.5751    9.6413    1.9937 O   0  0  0  0  0  0  0  0  0  0  0  0
    1.0095    7.6525    0.8953 N   0  0  0  0  0  0  0  0  0  0  0  0
    2.2655    6.8833    0.9029 C   0  0  2  0  0  0  0  0  0  0  0  0
    1.9653    5.3655    0.9924 C   0  0  0  0  0  0  0  0  0  0  0  0
    1.1626    4.8476    2.5666 S   0  0  0  0  0  0  0  0  0  0  0  0
   -0.5680    4.7007    1.9637 C   0  0  0  0  0  0  0  0  0  0  0  0
   -0.8367    3.6065    0.9533 C   0  0  0  0  0  0  0  0  0  0  0  0
    0.0886    2.5938    0.6513 C   0  0  0  0  0  0  0  0  0  0  0  0
   -0.1949    1.6305   -0.3307 C   0  0  0  0  0  0  0  0  0  0  0  0
   -1.4200    1.6919   -1.0156 C   0  0  0  0  0  0  0  0  0  0  0  0
   -2.3858    2.6387   -0.6673 C   0  0  0  0  0  0  0  0  0  0  0  0
   -2.0797    3.6059    0.3008 C   0  0  0  0  0  0  0  0  0  0  0  0
   -3.6926    2.6920   -1.4167 C   0  0  0  0  0  0  0  0  0  0  0  0
   -5.1101    2.8311   -0.2729 S   0  0  0  0  0  0  0  0  0  0  0  0
   -6.2755    3.5175   -1.5015 C   0  0  0  0  0  0  0  0  0  0  0  0
   -7.4857    4.1891   -0.8281 C   0  0  1  0  0  0  0  0  0  0  0  0
   -7.0314    5.2738    0.1153 C   0  0  0  0  0  0  0  0  0  0  0  0
   -6.3805    6.4434   -0.3807 N   0  0  0  0  0  0  0  0  0  0  0  0
   -7.2079    5.1357    1.3578 O   0  0  0  0  0  0  0  0  0  0  0  0
   -8.3576    4.7639   -1.8612 N   0  0  0  0  0  0  0  0  0  0  0  0
   -9.5588    5.5114   -1.6005 C   0  0  0  0  0  0  0  0  0  0  0  0
   -9.8925    6.4088   -2.4251 O   0  0  0  0  0  0  0  0  0  0  0  0
  -10.4426    5.2477   -0.4066 C   0  0  1  0  0  0  0  0  0  0  0  0
  -10.3740    6.4236    0.5712 C   0  0  0  0  0  0  0  0  0  0  0  0
  -11.8293    5.0540   -0.8590 N   0  0  0  0  0  0  0  0  0  0  0  0
  -12.7704    4.1221   -0.2993 C   0  0  0  0  0  0  0  0  0  0  0  0
  -13.7424    3.7571   -1.0131 O   0  0  0  0  0  0  0  0  0  0  0  0
  -12.6977    3.6660    1.1442 C   0  0  1  0  0  0  0  0  0  0  0  0
  -14.0005    3.0090    1.6254 C   0  0  0  0  0  0  0  0  0  0  0  0
  -11.5451    2.7946    1.4075 N   0  0  0  0  0  0  0  0  0  0  0  0
  -11.4774    1.3913    1.1056 C   0  0  0  0  0  0  0  0  0  0  0  0
  -10.9852    0.6151    1.9688 O   0  0  0  0  0  0  0  0  0  0  0  0
  -11.8686    0.8322   -0.2408 C   0  0  1  0  0  0  0  0  0  0  0  0
  -10.6261    0.5457   -1.0991 C   0  0  0  0  0  0  0  0  0  0  0  0
  -12.7706   -0.3216   -0.0889 N   0  0  0  0  0  0  0  0  0  0  0  0
  -12.4334   -1.7021   -0.3015 C   0  0  0  0  0  0  0  0  0  0  0  0
  -13.2098   -2.4099   -1.0002 O   0  0  0  0  0  0  0  0  0  0  0  0
  -11.2731   -2.3616    0.3983 C   0  0  1  0  0  0  0  0  0  0  0  0
  -11.7621   -3.3108    1.4928 C   0  0  0  0  0  0  0  0  0  0  0  0
  -10.3877   -3.0273   -0.5658 N   0  0  0  0  0  0  0  0  0  0  0  0
  -10.7923   -4.1188   -1.4039 C   0  0  0  0  0  0  0  0  0  0  0  0
  -10.9554   -3.9081   -2.6376 O   0  0  0  0  0  0  0  0  0  0  0  0
  -10.8740   -5.5289   -0.8714 C   0  0  1  0  0  0  0  0  0  0  0  0
  -12.1744   -6.1928   -1.3477 C   0  0  0  0  0  0  0  0  0  0  0  0
   -9.7137   -6.2955   -1.3275 N   0  0  0  0  0  0  0  0  0  0  0  0
   -8.3609   -6.0823   -0.8827 C   0  0  0  0  0  0  0  0  0  0  0  0
   -7.4221   -6.6162   -1.5332 O   0  0  0  0  0  0  0  0  0  0  0  0
   -8.0128   -5.2719    0.3471 C   0  0  1  0  0  0  0  0  0  0  0  0
   -7.4142   -6.2008    1.4148 C   0  0  0  0  0  0  0  0  0  0  0  0
   -7.0930   -4.1855   -0.0224 N   0  0  0  0  0  0  0  0  0  0  0  0
   -6.0047   -3.7464    0.7986 C   0  0  0  0  0  0  0  0  0  0  0  0
   -6.2481   -3.1747    1.8961 O   0  0  0  0  0  0  0  0  0  0  0  0
   -4.5798   -4.0681    0.4273 C   0  0  1  0  0  0  0  0  0  0  0  0
   -4.4538   -4.4832   -1.0406 C   0  0  0  0  0  0  0  0  0  0  0  0
   -3.6984   -2.9325    0.6918 N   0  0  0  0  0  0  0  0  0  0  0  0
   -2.3097   -3.1398    0.9702 C   0  0  0  0  0  0  0  0  0  0  0  0
   -1.9571   -3.5418    2.1108 O   0  0  0  0  0  0  0  0  0  0  0  0
   -1.2741   -2.8587   -0.0849 C   0  0  1  0  0  0  0  0  0  0  0  0
   -0.6566   -1.4671    0.1249 C   0  0  0  0  0  0  0  0  0  0  0  0
    0.2494   -0.9586   -1.3833 S   0  0  0  0  0  0  0  0  0  0  0  0
    0.8799    0.6394   -0.7204 C   0  0  0  0  0  0  0  0  0  0  0  0
   -0.2386   -3.8915   -0.0593 N   0  0  0  0  0  0  0  0  0  0  0  0
   -0.4931   -5.2048   -0.5731 C   0  0  0  0  0  0  0  0  0  0  0  0
   -1.0002   -5.3330   -1.7147 O   0  0  0  0  0  0  0  0  0  0  0  0
   -0.1904   -6.4147    0.2605 C   0  0  1  0  0  0  0  0  0  0  0  0
   -1.4916   -7.0415    0.7663 C   0  0  0  0  0  0  0  0  0  0  0  0
    0.5703   -7.3975   -0.5165 N   0  0  0  0  0  0  0  0  0  0  0  0
    1.9934   -7.5756   -0.4240 C   0  0  0  0  0  0  0  0  0  0  0  0
    2.4886   -8.6813   -0.7726 O   0  0  0  0  0  0  0  0  0  0  0  0
    2.9096   -6.4826    0.0871 C   0  0  1  0  0  0  0  0  0  0  0  0
    3.2699   -6.6969    1.5588 C   0  0  0  0  0  0  0  0  0  0  0  0
    4.1016   -6.3444   -0.7710 N   0  0  0  0  0  0  0  0  0  0  0  0
    5.0691   -7.3799   -0.9941 C   0  0  0  0  0  0  0  0  0  0  0  0
    5.2000   -7.8529   -2.1577 O   0  0  0  0  0  0  0  0  0  0  0  0
    6.0123   -7.8273    0.0931 C   0  0  1  0  0  0  0  0  0  0  0  0
    5.8708   -9.3368    0.3255 C   0  0  0  0  0  0  0  0  0  0  0  0
    7.3986   -7.4887   -0.2512 N   0  0  0  0  0  0  0  0  0  0  0  0
    7.8382   -6.1181   -0.2235 C   0  0  0  0  0  0  0  0  0  0  0  0
    7.0734   -5.2080   -0.6256 O   0  0  0  0  0  0  0  0  0  0  0  0
    9.1446   -5.7358    0.4366 C   0  0  1  0  0  0  0  0  0  0  0  0
    9.0523   -5.9925    1.9402 C   0  0  0  0  0  0  0  0  0  0  0  0
   10.2654   -6.4904   -0.1462 N   0  0  0  0  0  0  0  0  0  0  0  0
   11.4233   -5.9289   -0.7924 C   0  0  0  0  0  0  0  0  0  0  0  0
   12.1084   -6.6905   -1.5271 O   0  0  0  0  0  0  0  0  0  0  0  0
   11.9484   -4.5342   -0.4820 C   0  0  1  0  0  0  0  0  0  0  0  0
   12.6606   -4.5759    0.8825 C   0  0  0  0  0  0  0  0  0  0  0  0
   12.8705   -4.0720   -1.5339 N   0  0  0  0  0  0  0  0  0  0  0  0
   13.7109   -2.9057   -1.4604 C   0  0  0  0  0  0  0  0  0  0  0  0
   14.8113   -2.9176   -2.0775 O   0  0  0  0  0  0  0  0  0  0  0  0
   13.3140   -1.6465   -0.7201 C   0  0  1  0  0  0  0  0  0  0  0  0
   14.3247   -1.3967    0.4169 C   0  0  0  0  0  0  0  0  0  0  0  0
   13.2983   -0.5188   -1.6686 N   0  0  0  0  0  0  0  0  0  0  0  0
   13.0067    0.8613   -1.3582 C   0  0  0  0  0  0  0  0  0  0  0  0
   13.2873    1.7411   -2.2204 O   0  0  0  0  0  0  0  0  0  0  0  0
   12.3723    1.3149   -0.0661 C   0  0  1  0  0  0  0  0  0  0  0  0
   13.4457    2.0171    0.7899 C   0  0  0  0  0  0  0  0  0  0  0  0
   11.2418    2.2081   -0.3762 N   0  0  0  0  0  0  0  0  0  0  0  0
   10.8829    3.3620    0.4014 C   0  0  0  0  0  0  0  0  0  0  0  0
   10.8336    3.2842    1.6626 O   0  0  0  0  0  0  0  0  0  0  0  0
   10.4603    4.6478   -0.2680 C   0  0  1  0  0  0  0  0  0  0  0  0
   11.1677    4.8584   -1.6132 C   0  0  0  0  0  0  0  0  0  0  0  0
    9.0114    4.6613   -0.4514 N   0  0  0  0  0  0  0  0  0  0  0  0
    8.1544    5.2579    0.5308 C   0  0  0  0  0  0  0  0  0  0  0  0
    7.7285    4.5480    1.4871 O   0  0  0  0  0  0  0  0  0  0  0  0
    7.6538    6.6683    0.3708 C   0  0  1  0  0  0  0  0  0  0  0  0
    8.7778    7.6405    0.0083 C   0  0  0  0  0  0  0  0  0  0  0  0
    6.6179    6.7051   -0.6661 N   0  0  0  0  0  0  0  0  0  0  0  0
    5.4085    7.4914   -0.6073 C   0  0  0  0  0  0  0  0  0  0  0  0
    4.5991    7.4156   -1.5661 O   0  0  0  0  0  0  0  0  0  0  0  0
    5.1154    8.4255    0.5529 C   0  0  1  0  0  0  0  0  0  0  0  0
    4.2338    9.6152    0.1584 C   0  0  0  0  0  0  0  0  0  0  0  0
    4.5917    7.7066    1.7291 N   0  0  0  0  0  0  0  0  0  0  0  0
    3.2265    7.3225    1.9920 C   0  0  0  0  0  0  0  0  0  0  0  0
    2.8311    7.2955    3.1887 O   0  0  0  0  0  0  0  0  0  0  0  0
   -0.4205    9.2891   -0.6020 H   0  0  0  0  0  0  0  0  0  0  0  0
    0.7818   10.6134   -0.4251 H   0  0  0  0  0  0  0  0  0  0  0  0
   -0.6171   10.5064    0.7125 H   0  0  0  0  0  0  0  0  0  0  0  0
    0.2393    7.2388    0.3253 H   0  0  0  0  0  0  0  0  0  0  0  0
    2.7428    7.0329   -0.0744 H   0  0  0  0  0  0  0  0  0  0  0  0
    2.9203    4.8090    0.9076 H   0  0  0  0  0  0  0  0  0  0  0  0
    1.3515    5.0616    0.1184 H   0  0  0  0  0  0  0  0  0  0  0  0
   -1.2176    4.5189    2.8417 H   0  0  0  0  0  0  0  0  0  0  0  0
   -0.8765    5.6728    1.5415 H   0  0  0  0  0  0  0  0  0  0  0  0
    1.0412    2.5485    1.1593 H   0  0  0  0  0  0  0  0  0  0  0  0
   -1.6255    0.9973   -1.8154 H   0  0  0  0  0  0  0  0  0  0  0  0
   -2.7932    4.4008    0.5135 H   0  0  0  0  0  0  0  0  0  0  0  0
   -3.8409    1.7694   -2.0114 H   0  0  0  0  0  0  0  0  0  0  0  0
   -3.6475    3.5486   -2.1177 H   0  0  0  0  0  0  0  0  0  0  0  0
   -6.6239    2.6861   -2.1627 H   0  0  0  0  0  0  0  0  0  0  0  0
   -5.7547    4.2740   -2.1315 H   0  0  0  0  0  0  0  0  0  0  0  0
   -8.0406    3.4024   -0.2667 H   0  0  0  0  0  0  0  0  0  0  0  0
   -6.2608    6.5983   -1.4087 H   0  0  0  0  0  0  0  0  0  0  0  0
   -6.1018    7.2075    0.2758 H   0  0  0  0  0  0  0  0  0  0  0  0
   -8.0417    4.7312   -2.8592 H   0  0  0  0  0  0  0  0  0  0  0  0
  -10.0878    4.3373    0.1098 H   0  0  0  0  0  0  0  0  0  0  0  0
  -10.8746    7.3179    0.1415 H   0  0  0  0  0  0  0  0  0  0  0  0
   -9.3197    6.6886    0.7909 H   0  0  0  0  0  0  0  0  0  0  0  0
  -10.8692    6.1642    1.5304 H   0  0  0  0  0  0  0  0  0  0  0  0
  -12.1601    5.6038   -1.6842 H   0  0  0  0  0  0  0  0  0  0  0  0
  -12.5792    4.5836    1.7587 H   0  0  0  0  0  0  0  0  0  0  0  0
  -14.2575    2.1291    0.9958 H   0  0  0  0  0  0  0  0  0  0  0  0
  -14.8396    3.7362    1.5817 H   0  0  0  0  0  0  0  0  0  0  0  0
  -13.8906    2.6677    2.6788 H   0  0  0  0  0  0  0  0  0  0  0  0
  -10.8553    3.1471    2.1106 H   0  0  0  0  0  0  0  0  0  0  0  0
  -12.4294    1.6000   -0.8002 H   0  0  0  0  0  0  0  0  0  0  0  0
  -10.9169    0.0270   -2.0371 H   0  0  0  0  0  0  0  0  0  0  0  0
   -9.8827   -0.0691   -0.5604 H   0  0  0  0  0  0  0  0  0  0  0  0
  -10.1320    1.5039   -1.3717 H   0  0  0  0  0  0  0  0  0  0  0  0
  -13.7950   -0.1013   -0.0753 H   0  0  0  0  0  0  0  0  0  0  0  0
  -10.6759   -1.5918    0.9188 H   0  0  0  0  0  0  0  0  0  0  0  0
  -12.2933   -2.7416    2.2830 H   0  0  0  0  0  0  0  0  0  0  0  0
  -10.9004   -3.8249    1.9680 H   0  0  0  0  0  0  0  0  0  0  0  0
  -12.4681   -4.0656    1.0841 H   0  0  0  0  0  0  0  0  0  0  0  0
   -9.5776   -2.4697   -0.9124 H   0  0  0  0  0  0  0  0  0  0  0  0
  -10.9019   -5.5400    0.2339 H   0  0  0  0  0  0  0  0  0  0  0  0
  -13.0508   -5.5841   -1.0377 H   0  0  0  0  0  0  0  0  0  0  0  0
  -12.2728   -7.2015   -0.8904 H   0  0  0  0  0  0  0  0  0  0  0  0
  -12.1868   -6.2969   -2.4522 H   0  0  0  0  0  0  0  0  0  0  0  0
   -9.8425   -6.9768   -2.1136 H   0  0  0  0  0  0  0  0  0  0  0  0
   -8.9116   -4.8074    0.7864 H   0  0  0  0  0  0  0  0  0  0  0  0
   -6.4390   -6.6125    1.0738 H   0  0  0  0  0  0  0  0  0  0  0  0
   -7.2562   -5.6465    2.3640 H   0  0  0  0  0  0  0  0  0  0  0  0
   -8.1074   -7.0411    1.6221 H   0  0  0  0  0  0  0  0  0  0  0  0
   -7.3474   -3.5808   -0.8386 H   0  0  0  0  0  0  0  0  0  0  0  0
   -4.2657   -4.9294    1.0604 H   0  0  0  0  0  0  0  0  0  0  0  0
   -3.4029   -4.7339   -1.2773 H   0  0  0  0  0  0  0  0  0  0  0  0
   -5.0639   -5.3846   -1.2479 H   0  0  0  0  0  0  0  0  0  0  0  0
   -4.7783   -3.6517   -1.7049 H   0  0  0  0  0  0  0  0  0  0  0  0
   -4.0835   -1.9596    0.7933 H   0  0  0  0  0  0  0  0  0  0  0  0
   -1.7756   -2.8651   -1.0773 H   0  0  0  0  0  0  0  0  0  0  0  0
   -1.4604   -0.7300    0.3386 H   0  0  0  0  0  0  0  0  0  0  0  0
    0.0377   -1.4708    0.9890 H   0  0  0  0  0  0  0  0  0  0  0  0
    1.4978    1.1044   -1.5209 H   0  0  0  0  0  0  0  0  0  0  0  0
    1.5555    0.4256    0.1422 H   0  0  0  0  0  0  0  0  0  0  0  0
    0.6298   -3.7437    0.5111 H   0  0  0  0  0  0  0  0  0  0  0  0
    0.3859   -6.1038    1.1535 H   0  0  0  0  0  0  0  0  0  0  0  0
   -1.2597   -7.8954    1.4375 H   0  0  0  0  0  0  0  0  0  0  0  0
   -2.1077   -7.4083   -0.0844 H   0  0  0  0  0  0  0  0  0  0  0  0
   -2.0787   -6.2934    1.3352 H   0  0  0  0  0  0  0  0  0  0  0  0
    0.0530   -8.0242   -1.1705 H   0  0  0  0  0  0  0  0  0  0  0  0
    2.3635   -5.5153    0.0318 H   0  0  0  0  0  0  0  0  0  0  0  0
    2.3690   -6.5809    2.1978 H   0  0  0  0  0  0  0  0  0  0  0  0
    4.0196   -5.9435    1.8870 H   0  0  0  0  0  0  0  0  0  0  0  0
    3.6624   -7.7201    1.7340 H   0  0  0  0  0  0  0  0  0  0  0  0
    4.0428   -5.6081   -1.5172 H   0  0  0  0  0  0  0  0  0  0  0  0
    5.7768   -7.3178    1.0459 H   0  0  0  0  0  0  0  0  0  0  0  0
    6.0903   -9.9028   -0.6056 H   0  0  0  0  0  0  0  0  0  0  0  0
    4.8377   -9.5811    0.6565 H   0  0  0  0  0  0  0  0  0  0  0  0
    6.5723   -9.6683    1.1198 H   0  0  0  0  0  0  0  0  0  0  0  0
    8.1174   -8.2429   -0.2284 H   0  0  0  0  0  0  0  0  0  0  0  0
    9.2881   -4.6455    0.2896 H   0  0  0  0  0  0  0  0  0  0  0  0
    9.9524   -5.6066    2.4544 H   0  0  0  0  0  0  0  0  0  0  0  0
    8.9554   -7.0786    2.1517 H   0  0  0  0  0  0  0  0  0  0  0  0
    8.1658   -5.4661    2.3612 H   0  0  0  0  0  0  0  0  0  0  0  0
   10.2133   -7.5334   -0.1240 H   0  0  0  0  0  0  0  0  0  0  0  0
   11.1126   -3.8128   -0.4286 H   0  0  0  0  0  0  0  0  0  0  0  0
   12.1061   -5.2053    1.6091 H   0  0  0  0  0  0  0  0  0  0  0  0
   13.6894   -4.9854    0.7701 H   0  0  0  0  0  0  0  0  0  0  0  0
   12.7170   -3.5611    1.3219 H   0  0  0  0  0  0  0  0  0  0  0  0
   13.0216   -4.6679   -2.3807 H   0  0  0  0  0  0  0  0  0  0  0  0
   12.3038   -1.7700   -0.2896 H   0  0  0  0  0  0  0  0  0  0  0  0
   15.2426   -0.9067    0.0311 H   0  0  0  0  0  0  0  0  0  0  0  0
   13.8700   -0.7639    1.2062 H   0  0  0  0  0  0  0  0  0  0  0  0
   14.6244   -2.3453    0.9110 H   0  0  0  0  0  0  0  0  0  0  0  0
   13.5804   -0.6972   -2.6569 H   0  0  0  0  0  0  0  0  0  0  0  0
   11.9836    0.4383    0.4932 H   0  0  0  0  0  0  0  0  0  0  0  0
   13.6658    3.0287    0.3838 H   0  0  0  0  0  0  0  0  0  0  0  0
   13.0981    2.1103    1.8423 H   0  0  0  0  0  0  0  0  0  0  0  0
   14.3962    1.4462    0.7996 H   0  0  0  0  0  0  0  0  0  0  0  0
   10.6535    1.9889   -1.2110 H   0  0  0  0  0  0  0  0  0  0  0  0
   10.7585    5.4877    0.3950 H   0  0  0  0  0  0  0  0  0  0  0  0
   10.8616    4.0902   -2.3541 H   0  0  0  0  0  0  0  0  0  0  0  0
   12.2680    4.8139   -1.4781 H   0  0  0  0  0  0  0  0  0  0  0  0
   10.9046    5.8600   -2.0241 H   0  0  0  0  0  0  0  0  0  0  0  0
    8.5844    3.9676   -1.1100 H   0  0  0  0  0  0  0  0  0  0  0  0
    7.2397    6.9825    1.3491 H   0  0  0  0  0  0  0  0  0  0  0  0
    8.3794    8.6747   -0.0577 H   0  0  0  0  0  0  0  0  0  0  0  0
    9.5683    7.6222    0.7887 H   0  0  0  0  0  0  0  0  0  0  0  0
    9.2232    7.3821   -0.9762 H   0  0  0  0  0  0  0  0  0  0  0  0
    6.7886    6.1626   -1.5453 H   0  0  0  0  0  0  0  0  0  0  0  0
    6.0810    8.8872    0.8504 H   0  0  0  0  0  0  0  0  0  0  0  0
    3.2900    9.2859   -0.3175 H   0  0  0  0  0  0  0  0  0  0  0  0
    4.7737   10.2577   -0.5699 H   0  0  0  0  0  0  0  0  0  0  0  0
    4.0024   10.2289    1.0550 H   0  0  0  0  0  0  0  0  0  0  0  0
    5.2429    7.6328    2.5458 H   0  0  0  0  0  0  0  0  0  0  0  0
  1  2  1  0
  2  3  2  0
  2  4  1  0
  4  5  1  0
  5  6  1  0
  6  7  1  0
  7  8  1  0
  8  9  1  0
  9 10  2  0
 10 11  1  0
 11 12  2  0
 12 13  1  0
 13 14  2  0
 13 15  1  0
 15 16  1  0
 16 17  1  0
 17 18  1  0
 18 19  1  0
 19 20  1  0
 19 21  2  0
 18 22  1  0
 22 23  1  0
 23 24  2  0
 23 25  1  0
 25 26  1  0
 25 27  1  0
 27 28  1  0
 28 29  2  0
 28 30  1  0
 30 31  1  0
 30 32  1  0
 32 33  1  0
 33 34  2  0
 33 35  1  0
 35 36  1  0
 35 37  1  0
 37 38  1  0
 38 39  2  0
 38 40  1  0
 40 41  1  0
 40 42  1  0
 42 43  1  0
 43 44  2  0
 43 45  1  0
 45 46  1  0
 45 47  1  0
 47 48  1  0
 48 49  2  0
 48 50  1  0
 50 51  1  0
 50 52  1  0
 52 53  1  0
 53 54  2  0
 53 55  1  0
 55 56  1  0
 55 57  1  0
 57 58  1  0
 58 59  2  0
 58 60  1  0
 60 61  1  0
 61 62  1  0
 62 63  1  0
 60 64  1  0
 64 65  1  0
 65 66  2  0
 65 67  1  0
 67 68  1  0
 67 69  1  0
 69 70  1  0
 70 71  2  0
 70 72  1  0
 72 73  1  0
 72 74  1  0
 74 75  1  0
 75 76  2  0
 75 77  1  0
 77 78  1  0
 77 79  1  0
 79 80  1  0
 80 81  2  0
 80 82  1  0
 82 83  1  0
 82 84  1  0
 84 85  1  0
 85 86  2  0
 85 87  1  0
 87 88  1  0
 87 89  1  0
 89 90  1  0
 90 91  2  0
 90 92  1  0
 92 93  1  0
 92 94  1  0
 94 95  1  0
 95 96  2  0
 95 97  1  0
 97 98  1  0
 97 99  1  0
 99100  1  0
100101  2  0
100102  1  0
102103  1  0
102104  1  0
104105  1  0
105106  2  0
105107  1  0
107108  1  0
107109  1  0
109110  1  0
110111  2  0
110112  1  0
112113  1  0
112114  1  0
114115  1  0
115116  2  0
115  5  1  0
 14  9  1  0
 63 11  1  0
  1117  1  0
  1118  1  0
  1119  1  0
  4120  1  0
  5121  1  6
  6122  1  0
  6123  1  0
  8124  1  0
  8125  1  0
 10126  1  0
 12127  1  0
 14128  1  0
 15129  1  0
 15130  1  0
 17131  1  0
 17132  1  0
 18133  1  1
 20134  1  0
 20135  1  0
 22136  1  0
 25137  1  1
 26138  1  0
 26139  1  0
 26140  1  0
 27141  1  0
 30142  1  1
 31143  1  0
 31144  1  0
 31145  1  0
 32146  1  0
 35147  1  6
 36148  1  0
 36149  1  0
 36150  1  0
 37151  1  0
 40152  1  1
 41153  1  0
 41154  1  0
 41155  1  0
 42156  1  0
 45157  1  1
 46158  1  0
 46159  1  0
 46160  1  0
 47161  1  0
 50162  1  1
 51163  1  0
 51164  1  0
 51165  1  0
 52166  1  0
 55167  1  1
 56168  1  0
 56169  1  0
 56170  1  0
 57171  1  0
 60172  1  6
 61173  1  0
 61174  1  0
 63175  1  0
 63176  1  0
 64177  1  0
 67178  1  1
 68179  1  0
 68180  1  0
 68181  1  0
 69182  1  0
 72183  1  1
 73184  1  0
 73185  1  0
 73186  1  0
 74187  1  0
 77188  1  1
 78189  1  0
 78190  1  0
 78191  1  0
 79192  1  0
 82193  1  1
 83194  1  0
 83195  1  0
 83196  1  0
 84197  1  0
 87198  1  1
 88199  1  0
 88200  1  0
 88201  1  0
 89202  1  0
 92203  1  1
 93204  1  0
 93205  1  0
 93206  1  0
 94207  1  0
 97208  1  1
 98209  1  0
 98210  1  0
 98211  1  0
 99212  1  0
102213  1  1
103214  1  0
103215  1  0
103216  1  0
104217  1  0
107218  1  1
108219  1  0
108220  1  0
108221  1  0
109222  1  0
112223  1  1
113224  1  0
113225  1  0
113226  1  0
114227  1  0
M  END
