
     RDKit          3D

237239  0  0  0  0  0  0  0  0999 V2000
    1.9914   -8.4617   -2.8940 C   0  0  0  0  0  0  0  0  0  0  0  0
    2.6421   -8.1272   -1.5855 C   0  0  0  0  0  0  0  0  0  0  0  0
    2.3366   -8.7895   -0.5604 O   0  0  0  0  0  0  0  0  0  0  0  0
    3.6058   -7.0636   -1.5097 N   0  0  0  0  0  0  0  0  0  0  0  0
    4.3261   -6.6813   -0.2856 C   0  0  1  0  0  0  0  0  0  0  0  0
    3.3497   -6.0764    0.7451 C   0  0  0  0  0  0  0  0  0  0  0  0
    2.3911   -4.6884    0.0263 S   0  0  0  0  0  0  0  0  0  0  0  0
    1.0907   -4.7440    1.3118 C   0  0  0  0  0  0  0  0  0  0  0  0
    0.2283   -3.5169    1.2520 C   0  0  0  0  0  0  0  0  0  0  0  0
   -1.1526   -3.6270    1.0474 C   0  0  0  0  0  0  0  0  0  0  0  0
   -1.9755   -2.4872    1.0940 C   0  0  0  0  0  0  0  0  0  0  0  0
   -1.3922   -1.2289    1.2795 C   0  0  0  0  0  0  0  0  0  0  0  0
   -0.0089   -1.0990    1.4982 C   0  0  0  0  0  0  0  0  0  0  0  0
    0.7899   -2.2500    1.5024 C   0  0  0  0  0  0  0  0  0  0  0  0
    0.5941    0.2386    1.8277 C   0  0  0  0  0  0  0  0  0  0  0  0
    0.3173    1.4350    0.4698 S   0  0  0  0  0  0  0  0  0  0  0  0
   -0.9168    2.4859    1.3318 C   0  0  0  0  0  0  0  0  0  0  0  0
   -0.2841    3.4932    2.3188 C   0  0  1  0  0  0  0  0  0  0  0  0
    0.5577    4.4575    1.5825 N   0  0  0  0  0  0  0  0  0  0  0  0
    0.4087    5.8888    1.5360 C   0  0  0  0  0  0  0  0  0  0  0  0
   -0.1315    6.5094    2.4914 O   0  0  0  0  0  0  0  0  0  0  0  0
    0.8697    6.6332    0.3049 C   0  0  1  0  0  0  0  0  0  0  0  0
   -0.2231    6.5637   -0.7637 C   0  0  0  0  0  0  0  0  0  0  0  0
    1.1895    8.0370    0.5990 N   0  0  0  0  0  0  0  0  0  0  0  0
    2.0281    8.8670   -0.2228 C   0  0  0  0  0  0  0  0  0  0  0  0
    2.1131   10.0951    0.0544 O   0  0  0  0  0  0  0  0  0  0  0  0
    2.8566    8.2991   -1.3610 C   0  0  1  0  0  0  0  0  0  0  0  0
    3.0604    9.3120   -2.4951 C   0  0  0  0  0  0  0  0  0  0  0  0
    4.1397    7.7906   -0.8627 N   0  0  0  0  0  0  0  0  0  0  0  0
    5.1251    8.5898   -0.1854 C   0  0  0  0  0  0  0  0  0  0  0  0
    4.9758    9.8438   -0.0970 O   0  0  0  0  0  0  0  0  0  0  0  0
    6.3806    7.9399    0.3473 C   0  0  1  0  0  0  0  0  0  0  0  0
    7.1478    8.8625    1.3028 C   0  0  0  0  0  0  0  0  0  0  0  0
    6.0356    6.7052    1.0561 N   0  0  0  0  0  0  0  0  0  0  0  0
    6.7112    5.4511    0.8767 C   0  0  0  0  0  0  0  0  0  0  0  0
    6.0840    4.3830    1.1112 O   0  0  0  0  0  0  0  0  0  0  0  0
    8.1685    5.3667    0.4718 C   0  0  1  0  0  0  0  0  0  0  0  0
    8.9688    4.7145    1.6040 C   0  0  0  0  0  0  0  0  0  0  0  0
    8.2777    4.6093   -0.7801 N   0  0  0  0  0  0  0  0  0  0  0  0
    9.5336    4.1316   -1.2784 C   0  0  0  0  0  0  0  0  0  0  0  0
   10.2431    4.8960   -1.9887 O   0  0  0  0  0  0  0  0  0  0  0  0
   10.0282    2.7509   -0.9232 C   0  0  1  0  0  0  0  0  0  0  0  0
    8.8841    1.7326   -0.9062 C   0  0  0  0  0  0  0  0  0  0  0  0
   11.0459    2.3122   -1.8791 N   0  0  0  0  0  0  0  0  0  0  0  0
   12.3965    1.9081   -1.5704 C   0  0  0  0  0  0  0  0  0  0  0  0
   13.1027    1.4364   -2.5045 O   0  0  0  0  0  0  0  0  0  0  0  0
   13.0488    2.0827   -0.2124 C   0  0  1  0  0  0  0  0  0  0  0  0
   13.2803    3.5700    0.0899 C   0  0  0  0  0  0  0  0  0  0  0  0
   12.2860    1.4300    0.8641 N   0  0  0  0  0  0  0  0  0  0  0  0
   12.1394    0.0098    1.0599 C   0  0  0  0  0  0  0  0  0  0  0  0
   11.6062   -0.3877    2.1329 O   0  0  0  0  0  0  0  0  0  0  0  0
   12.6715   -1.0178    0.0789 C   0  0  1  0  0  0  0  0  0  0  0  0
   14.1424   -1.3517    0.3577 C   0  0  0  0  0  0  0  0  0  0  0  0
   11.8410   -2.2366    0.0621 N   0  0  0  0  0  0  0  0  0  0  0  0
   11.9459   -3.2890    1.0448 C   0  0  0  0  0  0  0  0  0  0  0  0
   12.2919   -3.0327    2.2253 O   0  0  0  0  0  0  0  0  0  0  0  0
   11.6447   -4.7147    0.6467 C   0  0  1  0  0  0  0  0  0  0  0  0
   12.7607   -5.6588    1.1171 C   0  0  0  0  0  0  0  0  0  0  0  0
   10.3508   -5.1430    1.2003 N   0  0  0  0  0  0  0  0  0  0  0  0
    9.7290   -6.3592    0.7637 C   0  0  0  0  0  0  0  0  0  0  0  0
    9.8283   -7.3860    1.4904 O   0  0  0  0  0  0  0  0  0  0  0  0
    8.8396   -6.4254   -0.4615 C   0  0  1  0  0  0  0  0  0  0  0  0
    9.0095   -5.2407   -1.4163 C   0  0  0  0  0  0  0  0  0  0  0  0
    9.1062   -7.6775   -1.1878 N   0  0  0  0  0  0  0  0  0  0  0  0
    8.1123   -8.6367   -1.5498 C   0  0  0  0  0  0  0  0  0  0  0  0
    8.4614   -9.8412   -1.7048 O   0  0  0  0  0  0  0  0  0  0  0  0
    6.6553   -8.2729   -1.7243 C   0  0  1  0  0  0  0  0  0  0  0  0
    6.0992   -8.9243   -2.9944 C   0  0  0  0  0  0  0  0  0  0  0  0
    5.8919   -8.7160   -0.5552 N   0  0  0  0  0  0  0  0  0  0  0  0
    5.0954   -7.8659    0.2783 C   0  0  0  0  0  0  0  0  0  0  0  0
    4.9991   -8.1468    1.5049 O   0  0  0  0  0  0  0  0  0  0  0  0
   -1.3496    4.1282    3.1891 C   0  0  0  0  0  0  0  0  0  0  0  0
   -1.0391    4.5402    4.3406 O   0  0  0  0  0  0  0  0  0  0  0  0
   -2.7272    4.2050    2.7796 N   0  0  0  0  0  0  0  0  0  0  0  0
   -3.1603    5.1525    1.7491 C   0  0  2  0  0  0  0  0  0  0  0  0
   -3.5840    6.4697    2.4092 C   0  0  0  0  0  0  0  0  0  0  0  0
   -4.2413    4.5397    0.8830 C   0  0  0  0  0  0  0  0  0  0  0  0
   -4.0200    3.4233    0.3361 O   0  0  0  0  0  0  0  0  0  0  0  0
   -5.4663    5.2348    0.5747 N   0  0  0  0  0  0  0  0  0  0  0  0
   -6.1402    5.0798   -0.7223 C   0  0  2  0  0  0  0  0  0  0  0  0
   -5.2396    5.6277   -1.8436 C   0  0  0  0  0  0  0  0  0  0  0  0
   -7.4764    5.7981   -0.6919 C   0  0  0  0  0  0  0  0  0  0  0  0
   -7.5792    6.9499   -1.1973 O   0  0  0  0  0  0  0  0  0  0  0  0
   -8.6233    5.2347   -0.0322 N   0  0  0  0  0  0  0  0  0  0  0  0
   -8.8742    3.7964    0.1071 C   0  0  2  0  0  0  0  0  0  0  0  0
   -9.1788    3.1753   -1.2625 C   0  0  0  0  0  0  0  0  0  0  0  0
   -9.9892    3.5299    1.0940 C   0  0  0  0  0  0  0  0  0  0  0  0
   -9.8374    2.6136    1.9512 O   0  0  0  0  0  0  0  0  0  0  0  0
  -11.1766    4.3296    1.1474 N   0  0  0  0  0  0  0  0  0  0  0  0
  -12.2009    4.3272    0.1040 C   0  0  2  0  0  0  0  0  0  0  0  0
  -12.4103    5.7618   -0.3959 C   0  0  0  0  0  0  0  0  0  0  0  0
  -13.4772    3.7250    0.6579 C   0  0  0  0  0  0  0  0  0  0  0  0
  -14.4577    4.4729    0.9347 O   0  0  0  0  0  0  0  0  0  0  0  0
  -13.5898    2.3191    0.9383 N   0  0  0  0  0  0  0  0  0  0  0  0
  -12.8173    1.2844    0.2428 C   0  0  2  0  0  0  0  0  0  0  0  0
  -13.5222    0.9067   -1.0629 C   0  0  0  0  0  0  0  0  0  0  0  0
  -12.6192    0.0957    1.1419 C   0  0  0  0  0  0  0  0  0  0  0  0
  -11.5490   -0.0193    1.7958 O   0  0  0  0  0  0  0  0  0  0  0  0
  -13.6580   -0.8713    1.3301 N   0  0  0  0  0  0  0  0  0  0  0  0
  -13.6154   -2.1532    0.6212 C   0  0  2  0  0  0  0  0  0  0  0  0
  -15.0126   -2.7705    0.5726 C   0  0  0  0  0  0  0  0  0  0  0  0
  -12.6282   -3.0763    1.2851 C   0  0  0  0  0  0  0  0  0  0  0  0
  -12.8535   -3.5218    2.4425 O   0  0  0  0  0  0  0  0  0  0  0  0
  -11.3644   -3.3494    0.6617 N   0  0  0  0  0  0  0  0  0  0  0  0
  -11.1264   -4.4846   -0.2396 C   0  0  2  0  0  0  0  0  0  0  0  0
  -12.3907   -4.9079   -0.9999 C   0  0  0  0  0  0  0  0  0  0  0  0
  -10.5796   -5.6538    0.5453 C   0  0  0  0  0  0  0  0  0  0  0  0
  -11.2320   -6.0641    1.5429 O   0  0  0  0  0  0  0  0  0  0  0  0
   -9.3273   -6.2965    0.2245 N   0  0  0  0  0  0  0  0  0  0  0  0
   -8.5558   -6.1114   -1.0144 C   0  0  2  0  0  0  0  0  0  0  0  0
   -9.3474   -6.6147   -2.2372 C   0  0  0  0  0  0  0  0  0  0  0  0
   -7.2501   -6.8650   -0.9351 C   0  0  0  0  0  0  0  0  0  0  0  0
   -7.2734   -8.1266   -0.7967 O   0  0  0  0  0  0  0  0  0  0  0  0
   -5.9787   -6.2116   -1.0848 N   0  0  0  0  0  0  0  0  0  0  0  0
   -5.6106   -5.0047   -0.3274 C   0  0  1  0  0  0  0  0  0  0  0  0
   -5.4472   -5.3826    1.1228 C   0  0  0  0  0  0  0  0  0  0  0  0
   -4.5158   -6.3999    1.5031 N   0  0  0  0  0  0  0  0  0  0  0  0
   -6.1237   -4.7957    2.0127 O   0  0  0  0  0  0  0  0  0  0  0  0
   -4.3092   -4.4056   -0.9190 C   0  0  0  0  0  0  0  0  0  0  0  0
   -4.1478   -2.6011   -0.6376 S   0  0  0  0  0  0  0  0  0  0  0  0
   -3.4725   -2.6341    1.0655 C   0  0  0  0  0  0  0  0  0  0  0  0
    1.4506   -7.5736   -3.2857 H   0  0  0  0  0  0  0  0  0  0  0  0
    1.2710   -9.3011   -2.7761 H   0  0  0  0  0  0  0  0  0  0  0  0
    2.7605   -8.7580   -3.6335 H   0  0  0  0  0  0  0  0  0  0  0  0
    3.8215   -6.5256   -2.3775 H   0  0  0  0  0  0  0  0  0  0  0  0
    5.0660   -5.8948   -0.5382 H   0  0  0  0  0  0  0  0  0  0  0  0
    2.6501   -6.8628    1.1076 H   0  0  0  0  0  0  0  0  0  0  0  0
    3.9208   -5.6916    1.6191 H   0  0  0  0  0  0  0  0  0  0  0  0
    0.4879   -5.6637    1.1531 H   0  0  0  0  0  0  0  0  0  0  0  0
    1.5529   -4.8040    2.3148 H   0  0  0  0  0  0  0  0  0  0  0  0
   -1.6024   -4.5962    0.8912 H   0  0  0  0  0  0  0  0  0  0  0  0
   -2.0245   -0.3532    1.3006 H   0  0  0  0  0  0  0  0  0  0  0  0
    1.8484   -2.1762    1.7150 H   0  0  0  0  0  0  0  0  0  0  0  0
    1.6917    0.1455    1.9380 H   0  0  0  0  0  0  0  0  0  0  0  0
    0.1941    0.5877    2.7942 H   0  0  0  0  0  0  0  0  0  0  0  0
   -1.4531    3.0547    0.5442 H   0  0  0  0  0  0  0  0  0  0  0  0
   -1.6521    1.8422    1.8581 H   0  0  0  0  0  0  0  0  0  0  0  0
    0.3863    2.9276    3.0038 H   0  0  0  0  0  0  0  0  0  0  0  0
    1.2399    4.0436    0.9143 H   0  0  0  0  0  0  0  0  0  0  0  0
    1.7858    6.1254   -0.0634 H   0  0  0  0  0  0  0  0  0  0  0  0
   -0.4035    5.5062   -1.0504 H   0  0  0  0  0  0  0  0  0  0  0  0
   -1.1676    6.9984   -0.3740 H   0  0  0  0  0  0  0  0  0  0  0  0
    0.0726    7.1321   -1.6686 H   0  0  0  0  0  0  0  0  0  0  0  0
    0.6500    8.5273    1.3501 H   0  0  0  0  0  0  0  0  0  0  0  0
    2.3189    7.4500   -1.8237 H   0  0  0  0  0  0  0  0  0  0  0  0
    2.0742    9.5969   -2.9236 H   0  0  0  0  0  0  0  0  0  0  0  0
    3.6759    8.8603   -3.2997 H   0  0  0  0  0  0  0  0  0  0  0  0
    3.5731   10.2295   -2.1388 H   0  0  0  0  0  0  0  0  0  0  0  0
    4.3393    6.7726   -1.0036 H   0  0  0  0  0  0  0  0  0  0  0  0
    7.0293    7.7181   -0.5259 H   0  0  0  0  0  0  0  0  0  0  0  0
    6.5052    9.1398    2.1686 H   0  0  0  0  0  0  0  0  0  0  0  0
    8.0543    8.3500    1.6866 H   0  0  0  0  0  0  0  0  0  0  0  0
    7.4710    9.7892    0.7766 H   0  0  0  0  0  0  0  0  0  0  0  0
    5.1941    6.7142    1.6806 H   0  0  0  0  0  0  0  0  0  0  0  0
    8.5973    6.3796    0.3135 H   0  0  0  0  0  0  0  0  0  0  0  0
   10.0549    4.7804    1.3896 H   0  0  0  0  0  0  0  0  0  0  0  0
    8.6831    3.6502    1.7266 H   0  0  0  0  0  0  0  0  0  0  0  0
    8.7826    5.2481    2.5626 H   0  0  0  0  0  0  0  0  0  0  0  0
    7.5559    4.8007   -1.5118 H   0  0  0  0  0  0  0  0  0  0  0  0
   10.4358    2.8059    0.0975 H   0  0  0  0  0  0  0  0  0  0  0  0
    9.2885    0.7196   -0.6928 H   0  0  0  0  0  0  0  0  0  0  0  0
    8.3658    1.7088   -1.8842 H   0  0  0  0  0  0  0  0  0  0  0  0
    8.1502    1.9861   -0.1095 H   0  0  0  0  0  0  0  0  0  0  0  0
   10.7455    2.2184   -2.8789 H   0  0  0  0  0  0  0  0  0  0  0  0
   14.0542    1.6224   -0.2435 H   0  0  0  0  0  0  0  0  0  0  0  0
   12.3274    4.1275    0.1980 H   0  0  0  0  0  0  0  0  0  0  0  0
   13.8704    4.0385   -0.7230 H   0  0  0  0  0  0  0  0  0  0  0  0
   13.8586    3.6726    1.0313 H   0  0  0  0  0  0  0  0  0  0  0  0
   11.9212    2.0357    1.6352 H   0  0  0  0  0  0  0  0  0  0  0  0
   12.6240   -0.5932   -0.9425 H   0  0  0  0  0  0  0  0  0  0  0  0
   14.4627   -2.2135   -0.2680 H   0  0  0  0  0  0  0  0  0  0  0  0
   14.3076   -1.6035    1.4286 H   0  0  0  0  0  0  0  0  0  0  0  0
   14.8024   -0.4955    0.1012 H   0  0  0  0  0  0  0  0  0  0  0  0
   11.3763   -2.4713   -0.8391 H   0  0  0  0  0  0  0  0  0  0  0  0
   11.6054   -4.7738   -0.4632 H   0  0  0  0  0  0  0  0  0  0  0  0
   12.7722   -5.7209    2.2252 H   0  0  0  0  0  0  0  0  0  0  0  0
   12.5923   -6.6762    0.7022 H   0  0  0  0  0  0  0  0  0  0  0  0
   13.7444   -5.2942    0.7524 H   0  0  0  0  0  0  0  0  0  0  0  0
   10.1547   -4.8653    2.1915 H   0  0  0  0  0  0  0  0  0  0  0  0
    7.7920   -6.4036   -0.0852 H   0  0  0  0  0  0  0  0  0  0  0  0
    8.9230   -4.2752   -0.8719 H   0  0  0  0  0  0  0  0  0  0  0  0
    9.9841   -5.2926   -1.9452 H   0  0  0  0  0  0  0  0  0  0  0  0
    8.2054   -5.2707   -2.1816 H   0  0  0  0  0  0  0  0  0  0  0  0
   10.1025   -7.9135   -1.4013 H   0  0  0  0  0  0  0  0  0  0  0  0
    6.5621   -7.1751   -1.8576 H   0  0  0  0  0  0  0  0  0  0  0  0
    6.0421  -10.0278   -2.8794 H   0  0  0  0  0  0  0  0  0  0  0  0
    6.7446   -8.6827   -3.8662 H   0  0  0  0  0  0  0  0  0  0  0  0
    5.0835   -8.5387   -3.2096 H   0  0  0  0  0  0  0  0  0  0  0  0
    6.0502   -9.6999   -0.2110 H   0  0  0  0  0  0  0  0  0  0  0  0
   -3.4467    3.8917    3.4746 H   0  0  0  0  0  0  0  0  0  0  0  0
   -2.3032    5.3711    1.0760 H   0  0  0  0  0  0  0  0  0  0  0  0
   -4.4554    6.3112    3.0737 H   0  0  0  0  0  0  0  0  0  0  0  0
   -2.7500    6.8654    3.0178 H   0  0  0  0  0  0  0  0  0  0  0  0
   -3.8378    7.2203    1.6341 H   0  0  0  0  0  0  0  0  0  0  0  0
   -5.8593    5.9137    1.2610 H   0  0  0  0  0  0  0  0  0  0  0  0
   -6.2954    4.0048   -0.9258 H   0  0  0  0  0  0  0  0  0  0  0  0
   -5.7647    5.5713   -2.8210 H   0  0  0  0  0  0  0  0  0  0  0  0
   -4.9627    6.6839   -1.6361 H   0  0  0  0  0  0  0  0  0  0  0  0
   -4.3058    5.0319   -1.9152 H   0  0  0  0  0  0  0  0  0  0  0  0
   -9.3407    5.9188    0.3094 H   0  0  0  0  0  0  0  0  0  0  0  0
   -7.9621    3.3119    0.5130 H   0  0  0  0  0  0  0  0  0  0  0  0
   -9.5687    2.1417   -1.1486 H   0  0  0  0  0  0  0  0  0  0  0  0
   -8.2538    3.1209   -1.8712 H   0  0  0  0  0  0  0  0  0  0  0  0
   -9.9113    3.7901   -1.8249 H   0  0  0  0  0  0  0  0  0  0  0  0
  -11.4150    4.7781    2.0666 H   0  0  0  0  0  0  0  0  0  0  0  0
  -11.8816    3.7335   -0.7731 H   0  0  0  0  0  0  0  0  0  0  0  0
  -11.4671    6.1410   -0.8442 H   0  0  0  0  0  0  0  0  0  0  0  0
  -13.1938    5.7838   -1.1776 H   0  0  0  0  0  0  0  0  0  0  0  0
  -12.7028    6.4335    0.4368 H   0  0  0  0  0  0  0  0  0  0  0  0
  -14.4323    2.0087    1.4810 H   0  0  0  0  0  0  0  0  0  0  0  0
  -11.8084    1.6643   -0.0130 H   0  0  0  0  0  0  0  0  0  0  0  0
  -14.5381    0.4989   -0.8543 H   0  0  0  0  0  0  0  0  0  0  0  0
  -13.6360    1.8073   -1.7044 H   0  0  0  0  0  0  0  0  0  0  0  0
  -12.9276    0.1523   -1.6215 H   0  0  0  0  0  0  0  0  0  0  0  0
  -14.2048   -0.8135    2.2175 H   0  0  0  0  0  0  0  0  0  0  0  0
  -13.2806   -1.9737   -0.4245 H   0  0  0  0  0  0  0  0  0  0  0  0
  -15.6917   -2.1088   -0.0072 H   0  0  0  0  0  0  0  0  0  0  0  0
  -14.9848   -3.7607    0.0724 H   0  0  0  0  0  0  0  0  0  0  0  0
  -15.4179   -2.8976    1.6004 H   0  0  0  0  0  0  0  0  0  0  0  0
  -10.5243   -2.9031    1.0908 H   0  0  0  0  0  0  0  0  0  0  0  0
  -10.3932   -4.1472   -0.9991 H   0  0  0  0  0  0  0  0  0  0  0  0
  -12.1713   -5.7496   -1.6872 H   0  0  0  0  0  0  0  0  0  0  0  0
  -13.1822   -5.2431   -0.2981 H   0  0  0  0  0  0  0  0  0  0  0  0
  -12.7762   -4.0626   -1.6118 H   0  0  0  0  0  0  0  0  0  0  0  0
   -8.9626   -6.9655    0.9395 H   0  0  0  0  0  0  0  0  0  0  0  0
   -8.3358   -5.0328   -1.1592 H   0  0  0  0  0  0  0  0  0  0  0  0
   -8.6690   -6.8257   -3.0937 H   0  0  0  0  0  0  0  0  0  0  0  0
  -10.0611   -5.8425   -2.5841 H   0  0  0  0  0  0  0  0  0  0  0  0
   -9.9008   -7.5492   -1.9963 H   0  0  0  0  0  0  0  0  0  0  0  0
   -5.2005   -6.7997   -1.4561 H   0  0  0  0  0  0  0  0  0  0  0  0
   -6.4130   -4.2469   -0.4303 H   0  0  0  0  0  0  0  0  0  0  0  0
   -4.4231   -6.7227    2.4980 H   0  0  0  0  0  0  0  0  0  0  0  0
   -3.9293   -6.8903    0.7983 H   0  0  0  0  0  0  0  0  0  0  0  0
   -4.3500   -4.5298   -2.0290 H   0  0  0  0  0  0  0  0  0  0  0  0
   -3.4044   -4.9440   -0.5755 H   0  0  0  0  0  0  0  0  0  0  0  0
   -3.9323   -1.7805    1.6113 H   0  0  0  0  0  0  0  0  0  0  0  0
   -3.7569   -3.5441    1.6179 H   0  0  0  0  0  0  0  0  0  0  0  0
  1  2  1  0
  2  3  2  0
  2  4  1  0
  4  5  1  0
  5  6  1  0
  6  7  1  0
  7  8  1  0
  8  9  1  0
  9 10  2  0
 10 11  1  0
 11 12  2  0
 12 13  1  0
 13 14  2  0
 13 15  1  0
 15 16  1  0
 16 17  1  0
 17 18  1  0
 18 19  1  0
 19 20  1  0
 20 21  2  0
 20 22  1  0
 22 23  1  0
 22 24  1  0
 24 25  1  0
 25 26  2  0
 25 27  1  0
 27 28  1  0
 27 29  1  0
 29 30  1  0
 30 31  2  0
 30 32  1  0
 32 33  1  0
 32 34  1  0
 34 35  1  0
 35 36  2  0
 35 37  1  0
 37 38  1  0
 37 39  1  0
 39 40  1  0
 40 41  2  0
 40 42  1  0
 42 43  1  0
 42 44  1  0
 44 45  1  0
 45 46  2  0
 45 47  1  0
 47 48  1  0
 47 49  1  0
 49 50  1  0
 50 51  2  0
 50 52  1  0
 52 53  1  0
 52 54  1  0
 54 55  1  0
 55 56  2  0
 55 57  1  0
 57 58  1  0
 57 59  1  0
 59 60  1  0
 60 61  2  0
 60 62  1  0
 62 63  1  0
 62 64  1  0
 64 65  1  0
 65 66  2  0
 65 67  1  0
 67 68  1  0
 67 69  1  0
 69 70  1  0
 70 71  2  0
 18 72  1  0
 72 73  2  0
 72 74  1  0
 74 75  1  0
 75 76  1  0
 75 77  1  0
 77 78  2  0
 77 79  1  0
 79 80  1  0
 80 81  1  0
 80 82  1  0
 82 83  2  0
 82 84  1  0
 84 85  1  0
 85 86  1  0
 85 87  1  0
 87 88  2  0
 87 89  1  0
 89 90  1  0
 90 91  1  0
 90 92  1  0
 92 93  2  0
 92 94  1  0
 94 95  1  0
 95 96  1  0
 95 97  1  0
 97 98  2  0
 97 99  1  0
 99100  1  0
100101  1  0
100102  1  0
102103  2  0
102104  1  0
104105  1  0
105106  1  0
105107  1  0
107108  2  0
107109  1  0
109110  1  0
110111  1  0
110112  1  0
112113  2  0
112114  1  0
114115  1  0
115116  1  0
116117  1  0
116118  2  0
115119  1  0
119120  1  0
120121  1  0
 70  5  1  0
 14  9  1  0
121 11  1  0
  1122  1  0
  1123  1  0
  1124  1  0
  4125  1  0
  5126  1  6
  6127  1  0
  6128  1  0
  8129  1  0
  8130  1  0
 10131  1  0
 12132  1  0
 14133  1  0
 15134  1  0
 15135  1  0
 17136  1  0
 17137  1  0
 18138  1  1
 19139  1  0
 22140  1  6
 23141  1  0
 23142  1  0
 23143  1  0
 24144  1  0
 27145  1  6
 28146  1  0
 28147  1  0
 28148  1  0
 29149  1  0
 32150  1  6
 33151  1  0
 33152  1  0
 33153  1  0
 34154  1  0
 37155  1  6
 38156  1  0
 38157  1  0
 38158  1  0
 39159  1  0
 42160  1  1
 43161  1  0
 43162  1  0
 43163  1  0
 44164  1  0
 47165  1  6
 48166  1  0
 48167  1  0
 48168  1  0
 49169  1  0
 52170  1  6
 53171  1  0
 53172  1  0
 53173  1  0
 54174  1  0
 57175  1  6
 58176  1  0
 58177  1  0
 58178  1  0
 59179  1  0
 62180  1  1
 63181  1  0
 63182  1  0
 63183  1  0
 64184  1  0
 67185  1  6
 68186  1  0
 68187  1  0
 68188  1  0
 69189  1  0
 74190  1  0
 75191  1  6
 76192  1  0
 76193  1  0
 76194  1  0
 79195  1  0
 80196  1  6
 81197  1  0
 81198  1  0
 81199  1  0
 84200  1  0
 85201  1  1
 86202  1  0
 86203  1  0
 86204  1  0
 89205  1  0
 90206  1  6
 91207  1  0
 91208  1  0
 91209  1  0
 94210  1  0
 95211  1  6
 96212  1  0
 96213  1  0
 96214  1  0
 99215  1  0
100216  1  6
101217  1  0
101218  1  0
101219  1  0
104220  1  0
105221  1  6
106222  1  0
106223  1  0
106224  1  0
109225  1  0
110226  1  6
111227  1  0
111228  1  0
111229  1  0
114230  1  0
115231  1  1
117232  1  0
117233  1  0
119234  1  0
119235  1  0
121236  1  0
121237  1  0
M  END
