
     RDKit          3D

157159  0  0  0  0  0  0  0  0999 V2000
   10.5825    2.5566    2.2878 C   0  0  0  0  0  0  0  0  0  0  0  0
   10.6437    2.9171    0.8355 C   0  0  0  0  0  0  0  0  0  0  0  0
   11.5363    3.7160    0.4487 O   0  0  0  0  0  0  0  0  0  0  0  0
    9.7127    2.3973   -0.1259 N   0  0  0  0  0  0  0  0  0  0  0  0
    8.5324    1.5868    0.2121 C   0  0  1  0  0  0  0  0  0  0  0  0
    7.2628    2.4660    0.3506 C   0  0  0  0  0  0  0  0  0  0  0  0
    7.2764    4.0478   -0.5970 S   0  0  0  0  0  0  0  0  0  0  0  0
    6.3822    3.4962   -2.0970 C   0  0  0  0  0  0  0  0  0  0  0  0
    4.9472    3.1665   -1.7958 C   0  0  0  0  0  0  0  0  0  0  0  0
    4.0255    4.1935   -1.5454 C   0  0  0  0  0  0  0  0  0  0  0  0
    2.6832    3.8910   -1.2599 C   0  0  0  0  0  0  0  0  0  0  0  0
    2.2790    2.5485   -1.1828 C   0  0  0  0  0  0  0  0  0  0  0  0
    3.1914    1.5138   -1.4425 C   0  0  0  0  0  0  0  0  0  0  0  0
    4.5162    1.8321   -1.7792 C   0  0  0  0  0  0  0  0  0  0  0  0
    2.7721    0.0796   -1.3017 C   0  0  0  0  0  0  0  0  0  0  0  0
    2.6969   -0.3909    0.4604 S   0  0  0  0  0  0  0  0  0  0  0  0
    4.4556   -0.8799    0.6787 C   0  0  0  0  0  0  0  0  0  0  0  0
    4.6476   -2.3944    0.4782 C   0  0  2  0  0  0  0  0  0  0  0  0
    5.8403   -2.8641    1.1960 N   0  0  0  0  0  0  0  0  0  0  0  0
    7.1723   -2.7144    0.6905 C   0  0  0  0  0  0  0  0  0  0  0  0
    7.7328   -3.7033    0.1385 O   0  0  0  0  0  0  0  0  0  0  0  0
    7.9351   -1.4295    0.8772 C   0  0  1  0  0  0  0  0  0  0  0  0
    9.1605   -1.6843    1.7643 C   0  0  0  0  0  0  0  0  0  0  0  0
    8.3677   -0.9153   -0.4258 N   0  0  0  0  0  0  0  0  0  0  0  0
    8.3667    0.4740   -0.8026 C   0  0  0  0  0  0  0  0  0  0  0  0
    8.2984    0.7638   -2.0279 O   0  0  0  0  0  0  0  0  0  0  0  0
    4.7084   -2.7629   -0.9874 C   0  0  0  0  0  0  0  0  0  0  0  0
    5.5475   -2.1862   -1.7280 O   0  0  0  0  0  0  0  0  0  0  0  0
    3.8177   -3.7200   -1.5712 N   0  0  0  0  0  0  0  0  0  0  0  0
    3.4221   -4.9828   -0.9274 C   0  0  2  0  0  0  0  0  0  0  0  0
    4.6690   -5.8438   -0.6910 C   0  0  0  0  0  0  0  0  0  0  0  0
    2.4166   -5.7505   -1.7684 C   0  0  0  0  0  0  0  0  0  0  0  0
    2.0098   -5.2834   -2.8669 O   0  0  0  0  0  0  0  0  0  0  0  0
    1.9604   -7.0508   -1.3763 N   0  0  0  0  0  0  0  0  0  0  0  0
    1.1045   -7.2755   -0.2061 C   0  0  2  0  0  0  0  0  0  0  0  0
    1.9559   -7.6048    1.0276 C   0  0  0  0  0  0  0  0  0  0  0  0
    0.1478   -8.4182   -0.4927 C   0  0  0  0  0  0  0  0  0  0  0  0
    0.6254   -9.5853   -0.5821 O   0  0  0  0  0  0  0  0  0  0  0  0
   -1.2638   -8.2421   -0.7220 N   0  0  0  0  0  0  0  0  0  0  0  0
   -2.0274   -6.9870   -0.7430 C   0  0  2  0  0  0  0  0  0  0  0  0
   -1.5612   -6.0568   -1.8655 C   0  0  0  0  0  0  0  0  0  0  0  0
   -2.0415   -6.3125    0.6075 C   0  0  0  0  0  0  0  0  0  0  0  0
   -1.5068   -6.8598    1.6018 O   0  0  0  0  0  0  0  0  0  0  0  0
   -2.7749   -5.0952    0.7872 N   0  0  0  0  0  0  0  0  0  0  0  0
   -4.1435   -5.0266    1.3175 C   0  0  2  0  0  0  0  0  0  0  0  0
   -4.6929   -6.3878    1.7670 C   0  0  0  0  0  0  0  0  0  0  0  0
   -5.0564   -4.4205    0.2888 C   0  0  0  0  0  0  0  0  0  0  0  0
   -5.3042   -5.0293   -0.7846 O   0  0  0  0  0  0  0  0  0  0  0  0
   -5.6559   -3.1463    0.5359 N   0  0  0  0  0  0  0  0  0  0  0  0
   -7.1066   -2.9163    0.5951 C   0  0  2  0  0  0  0  0  0  0  0  0
   -7.8238   -4.0726    1.2975 C   0  0  0  0  0  0  0  0  0  0  0  0
   -7.6814   -2.6546   -0.7838 C   0  0  0  0  0  0  0  0  0  0  0  0
   -7.0830   -3.1212   -1.7939 O   0  0  0  0  0  0  0  0  0  0  0  0
   -8.9066   -1.9270   -0.9915 N   0  0  0  0  0  0  0  0  0  0  0  0
   -9.6535   -1.1978    0.0364 C   0  0  2  0  0  0  0  0  0  0  0  0
  -11.1571   -1.3817   -0.2037 C   0  0  0  0  0  0  0  0  0  0  0  0
   -9.2423    0.2577    0.0065 C   0  0  0  0  0  0  0  0  0  0  0  0
  -10.0247    1.1441   -0.4500 O   0  0  0  0  0  0  0  0  0  0  0  0
   -7.9536    0.6402    0.4951 N   0  0  0  0  0  0  0  0  0  0  0  0
   -7.0583    1.4981   -0.2790 C   0  0  2  0  0  0  0  0  0  0  0  0
   -5.6396    0.9125   -0.2811 C   0  0  0  0  0  0  0  0  0  0  0  0
   -7.0385    2.8920    0.2824 C   0  0  0  0  0  0  0  0  0  0  0  0
   -7.2804    3.0912    1.5088 O   0  0  0  0  0  0  0  0  0  0  0  0
   -6.6592    3.9858   -0.5628 N   0  0  0  0  0  0  0  0  0  0  0  0
   -6.0972    5.2391   -0.0283 C   0  0  2  0  0  0  0  0  0  0  0  0
   -7.1900    6.3172    0.0059 C   0  0  0  0  0  0  0  0  0  0  0  0
   -4.9346    5.7139   -0.8817 C   0  0  0  0  0  0  0  0  0  0  0  0
   -4.9799    5.5243   -2.1333 O   0  0  0  0  0  0  0  0  0  0  0  0
   -3.8335    6.4632   -0.3450 N   0  0  0  0  0  0  0  0  0  0  0  0
   -3.3068    6.3376    1.0188 C   0  0  2  0  0  0  0  0  0  0  0  0
   -3.6722    7.5848    1.8204 C   0  0  0  0  0  0  0  0  0  0  0  0
   -1.8058    6.1499    1.0172 C   0  0  0  0  0  0  0  0  0  0  0  0
   -1.2841    5.3581    1.8516 O   0  0  0  0  0  0  0  0  0  0  0  0
   -0.9592    6.9183    0.1561 N   0  0  0  0  0  0  0  0  0  0  0  0
    0.0641    7.8098    0.7082 C   0  0  2  0  0  0  0  0  0  0  0  0
   -0.3509    9.2396    0.4730 C   0  0  0  0  0  0  0  0  0  0  0  0
   -0.5540   10.1333    1.5697 N   0  0  0  0  0  0  0  0  0  0  0  0
   -0.5220    9.6552   -0.7040 O   0  0  0  0  0  0  0  0  0  0  0  0
    1.4258    7.5296    0.0531 C   0  0  0  0  0  0  0  0  0  0  0  0
    2.0619    5.8706    0.5264 S   0  0  0  0  0  0  0  0  0  0  0  0
    1.7000    5.0149   -1.0591 C   0  0  0  0  0  0  0  0  0  0  0  0
   11.3970    3.0628    2.8478 H   0  0  0  0  0  0  0  0  0  0  0  0
    9.6066    2.8729    2.7164 H   0  0  0  0  0  0  0  0  0  0  0  0
   10.7102    1.4590    2.4091 H   0  0  0  0  0  0  0  0  0  0  0  0
    9.7982    2.7436   -1.1100 H   0  0  0  0  0  0  0  0  0  0  0  0
    8.6960    1.1118    1.1961 H   0  0  0  0  0  0  0  0  0  0  0  0
    6.3429    1.8726    0.1680 H   0  0  0  0  0  0  0  0  0  0  0  0
    7.1954    2.7725    1.4207 H   0  0  0  0  0  0  0  0  0  0  0  0
    6.4164    4.3088   -2.8523 H   0  0  0  0  0  0  0  0  0  0  0  0
    6.9011    2.6333   -2.5406 H   0  0  0  0  0  0  0  0  0  0  0  0
    4.3436    5.2251   -1.5913 H   0  0  0  0  0  0  0  0  0  0  0  0
    1.2529    2.3061   -0.9394 H   0  0  0  0  0  0  0  0  0  0  0  0
    5.2256    1.0417   -1.9895 H   0  0  0  0  0  0  0  0  0  0  0  0
    3.4466   -0.5897   -1.8752 H   0  0  0  0  0  0  0  0  0  0  0  0
    1.7550   -0.0479   -1.7311 H   0  0  0  0  0  0  0  0  0  0  0  0
    5.1305   -0.2976    0.0151 H   0  0  0  0  0  0  0  0  0  0  0  0
    4.7248   -0.6158    1.7208 H   0  0  0  0  0  0  0  0  0  0  0  0
    3.7693   -2.8856    0.9414 H   0  0  0  0  0  0  0  0  0  0  0  0
    5.6924   -3.5678    1.9513 H   0  0  0  0  0  0  0  0  0  0  0  0
    7.2793   -0.6836    1.3920 H   0  0  0  0  0  0  0  0  0  0  0  0
    9.7932   -0.7793    1.8381 H   0  0  0  0  0  0  0  0  0  0  0  0
    9.7881   -2.5031    1.3488 H   0  0  0  0  0  0  0  0  0  0  0  0
    8.8391   -1.9688    2.7925 H   0  0  0  0  0  0  0  0  0  0  0  0
    8.6236   -1.6036   -1.1678 H   0  0  0  0  0  0  0  0  0  0  0  0
    3.6766   -3.6164   -2.6153 H   0  0  0  0  0  0  0  0  0  0  0  0
    2.9353   -4.7614    0.0459 H   0  0  0  0  0  0  0  0  0  0  0  0
    4.4033   -6.8368   -0.2780 H   0  0  0  0  0  0  0  0  0  0  0  0
    5.3536   -5.3459    0.0287 H   0  0  0  0  0  0  0  0  0  0  0  0
    5.2126   -5.9943   -1.6480 H   0  0  0  0  0  0  0  0  0  0  0  0
    1.9721   -7.7783   -2.1282 H   0  0  0  0  0  0  0  0  0  0  0  0
    0.5505   -6.3481    0.0310 H   0  0  0  0  0  0  0  0  0  0  0  0
    2.5862   -6.7389    1.3106 H   0  0  0  0  0  0  0  0  0  0  0  0
    1.3048   -7.8408    1.8973 H   0  0  0  0  0  0  0  0  0  0  0  0
    2.6179   -8.4723    0.8263 H   0  0  0  0  0  0  0  0  0  0  0  0
   -1.8162   -9.1105   -0.8947 H   0  0  0  0  0  0  0  0  0  0  0  0
   -3.0881   -7.2378   -0.9711 H   0  0  0  0  0  0  0  0  0  0  0  0
   -2.3374   -5.2850   -2.0605 H   0  0  0  0  0  0  0  0  0  0  0  0
   -1.4102   -6.6282   -2.8040 H   0  0  0  0  0  0  0  0  0  0  0  0
   -0.6225   -5.5236   -1.6160 H   0  0  0  0  0  0  0  0  0  0  0  0
   -2.3129   -4.1978    0.4954 H   0  0  0  0  0  0  0  0  0  0  0  0
   -4.1275   -4.3649    2.2126 H   0  0  0  0  0  0  0  0  0  0  0  0
   -4.7225   -7.1095    0.9173 H   0  0  0  0  0  0  0  0  0  0  0  0
   -4.0593   -6.8105    2.5769 H   0  0  0  0  0  0  0  0  0  0  0  0
   -5.7207   -6.2720    2.1714 H   0  0  0  0  0  0  0  0  0  0  0  0
   -5.0094   -2.3169    0.6735 H   0  0  0  0  0  0  0  0  0  0  0  0
   -7.2500   -2.0095    1.2123 H   0  0  0  0  0  0  0  0  0  0  0  0
   -7.7369   -5.0098    0.7122 H   0  0  0  0  0  0  0  0  0  0  0  0
   -8.9047   -3.8425    1.4313 H   0  0  0  0  0  0  0  0  0  0  0  0
   -7.3787   -4.2295    2.3066 H   0  0  0  0  0  0  0  0  0  0  0  0
   -9.1952   -1.7750   -1.9883 H   0  0  0  0  0  0  0  0  0  0  0  0
   -9.4461   -1.5967    1.0452 H   0  0  0  0  0  0  0  0  0  0  0  0
  -11.7391   -0.8814    0.6005 H   0  0  0  0  0  0  0  0  0  0  0  0
  -11.4556   -0.9666   -1.1916 H   0  0  0  0  0  0  0  0  0  0  0  0
  -11.4061   -2.4659   -0.1927 H   0  0  0  0  0  0  0  0  0  0  0  0
   -7.6115    0.1964    1.3766 H   0  0  0  0  0  0  0  0  0  0  0  0
   -7.4089    1.5477   -1.3296 H   0  0  0  0  0  0  0  0  0  0  0  0
   -5.6454   -0.1085   -0.7275 H   0  0  0  0  0  0  0  0  0  0  0  0
   -5.2481    0.8380    0.7564 H   0  0  0  0  0  0  0  0  0  0  0  0
   -4.9585    1.5531   -0.8749 H   0  0  0  0  0  0  0  0  0  0  0  0
   -6.6427    3.8087   -1.5881 H   0  0  0  0  0  0  0  0  0  0  0  0
   -5.7673    5.0796    1.0150 H   0  0  0  0  0  0  0  0  0  0  0  0
   -7.6159    6.4624   -1.0047 H   0  0  0  0  0  0  0  0  0  0  0  0
   -6.7702    7.2777    0.3678 H   0  0  0  0  0  0  0  0  0  0  0  0
   -7.9980    6.0045    0.6974 H   0  0  0  0  0  0  0  0  0  0  0  0
   -3.4256    7.1960   -0.9673 H   0  0  0  0  0  0  0  0  0  0  0  0
   -3.7423    5.4530    1.5306 H   0  0  0  0  0  0  0  0  0  0  0  0
   -3.2799    7.5044    2.8585 H   0  0  0  0  0  0  0  0  0  0  0  0
   -4.7784    7.7054    1.8679 H   0  0  0  0  0  0  0  0  0  0  0  0
   -3.2401    8.4915    1.3372 H   0  0  0  0  0  0  0  0  0  0  0  0
   -1.1953    6.9942   -0.8562 H   0  0  0  0  0  0  0  0  0  0  0  0
    0.1679    7.6333    1.8022 H   0  0  0  0  0  0  0  0  0  0  0  0
   -0.4037    9.8257    2.5583 H   0  0  0  0  0  0  0  0  0  0  0  0
   -0.8449   11.1190    1.3974 H   0  0  0  0  0  0  0  0  0  0  0  0
    2.1630    8.2730    0.4288 H   0  0  0  0  0  0  0  0  0  0  0  0
    1.3623    7.6585   -1.0495 H   0  0  0  0  0  0  0  0  0  0  0  0
    1.7981    5.6918   -1.9333 H   0  0  0  0  0  0  0  0  0  0  0  0
    0.6566    4.6420   -1.0385 H   0  0  0  0  0  0  0  0  0  0  0  0
  1  2  1  0
  2  3  2  0
  2  4  1  0
  4  5  1  0
  5  6  1  0
  6  7  1  0
  7  8  1  0
  8  9  1  0
  9 10  1  0
 10 11  2  0
 11 12  1  0
 12 13  2  0
 13 14  1  0
 13 15  1  0
 15 16  1  0
 16 17  1  0
 17 18  1  0
 18 19  1  0
 19 20  1  0
 20 21  2  0
 20 22  1  0
 22 23  1  0
 22 24  1  0
 24 25  1  0
 25 26  2  0
 18 27  1  0
 27 28  2  0
 27 29  1  0
 29 30  1  0
 30 31  1  0
 30 32  1  0
 32 33  2  0
 32 34  1  0
 34 35  1  0
 35 36  1  0
 35 37  1  0
 37 38  2  0
 37 39  1  0
 39 40  1  0
 40 41  1  0
 40 42  1  0
 42 43  2  0
 42 44  1  0
 44 45  1  0
 45 46  1  0
 45 47  1  0
 47 48  2  0
 47 49  1  0
 49 50  1  0
 50 51  1  0
 50 52  1  0
 52 53  2  0
 52 54  1  0
 54 55  1  0
 55 56  1  0
 55 57  1  0
 57 58  2  0
 57 59  1  0
 59 60  1  0
 60 61  1  0
 60 62  1  0
 62 63  2  0
 62 64  1  0
 64 65  1  0
 65 66  1  0
 65 67  1  0
 67 68  2  0
 67 69  1  0
 69 70  1  0
 70 71  1  0
 70 72  1  0
 72 73  2  0
 72 74  1  0
 74 75  1  0
 75 76  1  0
 76 77  1  0
 76 78  2  0
 75 79  1  0
 79 80  1  0
 80 81  1  0
 25  5  1  0
 14  9  2  0
 81 11  1  0
  1 82  1  0
  1 83  1  0
  1 84  1  0
  4 85  1  0
  5 86  1  1
  6 87  1  0
  6 88  1  0
  8 89  1  0
  8 90  1  0
 10 91  1  0
 12 92  1  0
 14 93  1  0
 15 94  1  0
 15 95  1  0
 17 96  1  0
 17 97  1  0
 18 98  1  1
 19 99  1  0
 22100  1  1
 23101  1  0
 23102  1  0
 23103  1  0
 24104  1  0
 29105  1  0
 30106  1  1
 31107  1  0
 31108  1  0
 31109  1  0
 34110  1  0
 35111  1  1
 36112  1  0
 36113  1  0
 36114  1  0
 39115  1  0
 40116  1  6
 41117  1  0
 41118  1  0
 41119  1  0
 44120  1  0
 45121  1  1
 46122  1  0
 46123  1  0
 46124  1  0
 49125  1  0
 50126  1  1
 51127  1  0
 51128  1  0
 51129  1  0
 54130  1  0
 55131  1  1
 56132  1  0
 56133  1  0
 56134  1  0
 59135  1  0
 60136  1  6
 61137  1  0
 61138  1  0
 61139  1  0
 64140  1  0
 65141  1  1
 66142  1  0
 66143  1  0
 66144  1  0
 69145  1  0
 70146  1  1
 71147  1  0
 71148  1  0
 71149  1  0
 74150  1  0
 75151  1  1
 77152  1  0
 77153  1  0
 79154  1  0
 79155  1  0
 81156  1  0
 81157  1  0
M  END
