
     RDKit          3D

107109  0  0  0  0  0  0  0  0999 V2000
    8.6861    0.2354    1.3360 C   0  0  0  0  0  0  0  0  0  0  0  0
    7.2457    0.6068    1.2447 C   0  0  0  0  0  0  0  0  0  0  0  0
    6.3907   -0.0377    1.9018 O   0  0  0  0  0  0  0  0  0  0  0  0
    6.7469    1.5287    0.2550 N   0  0  0  0  0  0  0  0  0  0  0  0
    5.4267    1.4139   -0.3495 C   0  0  2  0  0  0  0  0  0  0  0  0
    4.3202    1.7561    0.6614 C   0  0  0  0  0  0  0  0  0  0  0  0
    3.2972    3.2467    0.2453 S   0  0  0  0  0  0  0  0  0  0  0  0
    1.7156    2.7124   -0.6660 C   0  0  0  0  0  0  0  0  0  0  0  0
    0.5093    2.8243    0.2466 C   0  0  0  0  0  0  0  0  0  0  0  0
   -0.1815    1.7319    0.4750 C   0  0  0  0  0  0  0  0  0  0  0  0
   -0.6246    1.4190    1.7362 C   0  0  0  0  0  0  0  0  0  0  0  0
   -1.1186    2.5748    2.4983 C   0  0  0  0  0  0  0  0  0  0  0  0
   -0.9056    3.8494    1.9082 C   0  0  0  0  0  0  0  0  0  0  0  0
    0.1374    3.9101    0.9674 C   0  0  0  0  0  0  0  0  0  0  0  0
   -1.5670    5.1055    2.2414 C   0  0  0  0  0  0  0  0  0  0  0  0
   -2.0214    6.3315    0.9271 S   0  0  0  0  0  0  0  0  0  0  0  0
   -3.5393    5.4245    0.2401 C   0  0  0  0  0  0  0  0  0  0  0  0
   -4.1927    4.2678    1.0754 C   0  0  1  0  0  0  0  0  0  0  0  0
   -4.9735    4.8891    2.2276 C   0  0  0  0  0  0  0  0  0  0  0  0
   -4.6858    4.6557    3.5792 N   0  0  0  0  0  0  0  0  0  0  0  0
   -5.9290    5.7074    1.9052 O   0  0  0  0  0  0  0  0  0  0  0  0
   -4.9591    3.3404    0.1857 N   0  0  0  0  0  0  0  0  0  0  0  0
   -5.1131    3.4929   -1.2032 C   0  0  0  0  0  0  0  0  0  0  0  0
   -5.8486    4.4804   -1.5524 O   0  0  0  0  0  0  0  0  0  0  0  0
   -4.5699    2.4863   -2.3653 C   0  0  1  0  0  0  0  0  0  0  0  0
   -4.2358    3.3358   -3.5699 C   0  0  0  0  0  0  0  0  0  0  0  0
   -3.6234    1.3862   -1.9402 N   0  0  0  0  0  0  0  0  0  0  0  0
   -3.1798    0.0792   -2.5612 C   0  0  0  0  0  0  0  0  0  0  0  0
   -3.6617   -0.3754   -3.7474 O   0  0  0  0  0  0  0  0  0  0  0  0
   -2.1871   -0.7502   -1.7132 C   0  0  1  0  0  0  0  0  0  0  0  0
   -2.7723   -0.9045   -0.3674 C   0  0  0  0  0  0  0  0  0  0  0  0
   -1.9378   -2.0598   -2.3407 N   0  0  0  0  0  0  0  0  0  0  0  0
   -3.0515   -3.0414   -2.2115 C   0  0  0  0  0  0  0  0  0  0  0  0
   -4.0834   -3.0146   -2.9233 O   0  0  0  0  0  0  0  0  0  0  0  0
   -3.0342   -4.1263   -1.1677 C   0  0  1  0  0  0  0  0  0  0  0  0
   -4.2912   -5.0264   -1.2237 C   0  0  0  0  0  0  0  0  0  0  0  0
   -1.8287   -4.8800   -1.4929 N   0  0  0  0  0  0  0  0  0  0  0  0
   -0.7395   -5.2856   -0.6158 C   0  0  0  0  0  0  0  0  0  0  0  0
    0.0416   -6.2883   -0.9215 O   0  0  0  0  0  0  0  0  0  0  0  0
   -0.5593   -4.6528    0.7691 C   0  0  1  0  0  0  0  0  0  0  0  0
   -1.1604   -5.5107    1.8714 C   0  0  0  0  0  0  0  0  0  0  0  0
    0.7292   -4.1136    1.0882 N   0  0  0  0  0  0  0  0  0  0  0  0
    1.8267   -3.9637    0.1616 C   0  0  0  0  0  0  0  0  0  0  0  0
    2.7389   -4.8394    0.1443 O   0  0  0  0  0  0  0  0  0  0  0  0
    1.7906   -2.8431   -0.8285 C   0  0  1  0  0  0  0  0  0  0  0  0
    1.1119   -1.4619   -0.4611 C   0  0  0  0  0  0  0  0  0  0  0  0
    1.4821   -0.5151    1.2151 S   0  0  0  0  0  0  0  0  0  0  0  0
   -0.2490   -0.0791    1.9122 C   0  0  0  0  0  0  0  0  0  0  0  0
    3.0589   -2.7061   -1.6012 N   0  0  0  0  0  0  0  0  0  0  0  0
    4.3640   -3.0353   -1.0311 C   0  0  0  0  0  0  0  0  0  0  0  0
    5.1802   -3.8952   -1.6026 O   0  0  0  0  0  0  0  0  0  0  0  0
    4.8303   -2.1386    0.1001 C   0  0  1  0  0  0  0  0  0  0  0  0
    5.5041   -3.0360    1.1192 C   0  0  0  0  0  0  0  0  0  0  0  0
    5.7555   -1.0892   -0.3801 N   0  0  0  0  0  0  0  0  0  0  0  0
    5.2932    0.0990   -1.0812 C   0  0  0  0  0  0  0  0  0  0  0  0
    4.8463    0.0555   -2.2678 O   0  0  0  0  0  0  0  0  0  0  0  0
    9.1089    0.1850    0.3026 H   0  0  0  0  0  0  0  0  0  0  0  0
    9.2164    1.0324    1.8777 H   0  0  0  0  0  0  0  0  0  0  0  0
    8.8677   -0.7418    1.8123 H   0  0  0  0  0  0  0  0  0  0  0  0
    7.3819    2.3444    0.0557 H   0  0  0  0  0  0  0  0  0  0  0  0
    5.4402    2.2237   -1.1372 H   0  0  0  0  0  0  0  0  0  0  0  0
    3.6783    0.8759    0.8149 H   0  0  0  0  0  0  0  0  0  0  0  0
    4.8357    2.1514    1.5500 H   0  0  0  0  0  0  0  0  0  0  0  0
    1.5050    3.3929   -1.4626 H   0  0  0  0  0  0  0  0  0  0  0  0
    1.7748    1.6962   -0.9716 H   0  0  0  0  0  0  0  0  0  0  0  0
   -0.8945    1.5567   -0.2734 H   0  0  0  0  0  0  0  0  0  0  0  0
   -1.9145    2.3673    3.3532 H   0  0  0  0  0  0  0  0  0  0  0  0
    0.4467    4.8082    0.4859 H   0  0  0  0  0  0  0  0  0  0  0  0
   -0.7744    5.5921    2.8806 H   0  0  0  0  0  0  0  0  0  0  0  0
   -2.4114    4.9148    2.8497 H   0  0  0  0  0  0  0  0  0  0  0  0
   -3.3851    5.0784   -0.8267 H   0  0  0  0  0  0  0  0  0  0  0  0
   -4.2798    6.2465    0.1257 H   0  0  0  0  0  0  0  0  0  0  0  0
   -3.4222    3.7031    1.4705 H   0  0  0  0  0  0  0  0  0  0  0  0
   -3.8939    3.9953    3.9533 H   0  0  0  0  0  0  0  0  0  0  0  0
   -4.8237    5.3651    4.3121 H   0  0  0  0  0  0  0  0  0  0  0  0
   -5.8824    2.9827    0.6285 H   0  0  0  0  0  0  0  0  0  0  0  0
   -5.0709    1.7949   -2.9957 H   0  0  0  0  0  0  0  0  0  0  0  0
   -3.8109    4.4410   -3.3410 H   0  0  0  0  0  0  0  0  0  0  0  0
   -5.3632    3.6417   -3.9765 H   0  0  0  0  0  0  0  0  0  0  0  0
   -3.1968    3.0571   -3.8836 H   0  0  0  0  0  0  0  0  0  0  0  0
   -3.2196    1.5337   -0.9558 H   0  0  0  0  0  0  0  0  0  0  0  0
   -1.1001   -0.2884   -1.6031 H   0  0  0  0  0  0  0  0  0  0  0  0
   -3.8835   -1.2533   -0.2941 H   0  0  0  0  0  0  0  0  0  0  0  0
   -2.6626    0.0381    0.3631 H   0  0  0  0  0  0  0  0  0  0  0  0
   -2.1704   -1.5924    0.1919 H   0  0  0  0  0  0  0  0  0  0  0  0
   -1.4590   -2.0340   -3.3128 H   0  0  0  0  0  0  0  0  0  0  0  0
   -3.0353   -3.7648   -0.1403 H   0  0  0  0  0  0  0  0  0  0  0  0
   -4.1338   -6.0191   -0.5489 H   0  0  0  0  0  0  0  0  0  0  0  0
   -4.6049   -5.2349   -2.3444 H   0  0  0  0  0  0  0  0  0  0  0  0
   -5.1017   -4.4339   -0.6912 H   0  0  0  0  0  0  0  0  0  0  0  0
   -1.9331   -5.3464   -2.4531 H   0  0  0  0  0  0  0  0  0  0  0  0
   -1.1892   -3.7662    0.7303 H   0  0  0  0  0  0  0  0  0  0  0  0
   -2.1150   -5.9618    1.5382 H   0  0  0  0  0  0  0  0  0  0  0  0
   -0.4106   -6.2540    1.9652 H   0  0  0  0  0  0  0  0  0  0  0  0
   -1.3055   -4.8920    2.7466 H   0  0  0  0  0  0  0  0  0  0  0  0
    0.9072   -3.8478    2.1360 H   0  0  0  0  0  0  0  0  0  0  0  0
    1.0359   -3.3131   -1.5919 H   0  0  0  0  0  0  0  0  0  0  0  0
    0.0069   -1.8443   -0.3924 H   0  0  0  0  0  0  0  0  0  0  0  0
    1.8404   -0.6755   -0.8663 H   0  0  0  0  0  0  0  0  0  0  0  0
   -1.0531   -0.6513    1.4844 H   0  0  0  0  0  0  0  0  0  0  0  0
   -0.3485   -0.7957    2.8388 H   0  0  0  0  0  0  0  0  0  0  0  0
    2.9112   -2.7424   -2.6650 H   0  0  0  0  0  0  0  0  0  0  0  0
    3.9920   -1.6557    0.6407 H   0  0  0  0  0  0  0  0  0  0  0  0
    4.8660   -3.8833    1.4150 H   0  0  0  0  0  0  0  0  0  0  0  0
    5.6648   -2.4636    2.0302 H   0  0  0  0  0  0  0  0  0  0  0  0
    6.4758   -3.4088    0.7415 H   0  0  0  0  0  0  0  0  0  0  0  0
    6.6903   -1.4313   -0.6194 H   0  0  0  0  0  0  0  0  0  0  0  0
  1  2  1  0
  2  3  2  0
  2  4  1  0
  4  5  1  0
  5  6  1  0
  6  7  1  0
  7  8  1  0
  8  9  1  0
  9 10  1  0
 10 11  2  0
 11 12  1  0
 12 13  2  0
 13 14  1  0
 13 15  1  0
 15 16  1  0
 16 17  1  0
 17 18  1  0
 18 19  1  0
 19 20  1  0
 19 21  2  0
 18 22  1  0
 22 23  1  0
 23 24  2  0
 23 25  1  0
 25 26  1  0
 25 27  1  0
 27 28  1  0
 28 29  2  0
 28 30  1  0
 30 31  1  0
 30 32  1  0
 32 33  1  0
 33 34  2  0
 33 35  1  0
 35 36  1  0
 35 37  1  0
 37 38  1  0
 38 39  2  0
 38 40  1  0
 40 41  1  0
 40 42  1  0
 42 43  1  0
 43 44  2  0
 43 45  1  0
 45 46  1  0
 46 47  1  0
 47 48  1  0
 45 49  1  0
 49 50  1  0
 50 51  2  0
 50 52  1  0
 52 53  1  0
 52 54  1  0
 54 55  1  0
 55 56  2  0
 55  5  1  0
 14  9  2  0
 48 11  1  0
  1 57  1  0
  1 58  1  0
  1 59  1  0
  4 60  1  0
  5 61  1  6
  6 62  1  0
  6 63  1  0
  8 64  1  0
  8 65  1  0
 10 66  1  0
 12 67  1  0
 14 68  1  0
 15 69  1  0
 15 70  1  0
 17 71  1  0
 17 72  1  0
 18 73  1  1
 20 74  1  0
 20 75  1  0
 22 76  1  0
 25 77  1  6
 26 78  1  0
 26 79  1  0
 26 80  1  0
 27 81  1  0
 30 82  1  1
 31 83  1  0
 31 84  1  0
 31 85  1  0
 32 86  1  0
 35 87  1  1
 36 88  1  0
 36 89  1  0
 36 90  1  0
 37 91  1  0
 40 92  1  6
 41 93  1  0
 41 94  1  0
 41 95  1  0
 42 96  1  0
 45 97  1  6
 46 98  1  0
 46 99  1  0
 48100  1  0
 48101  1  0
 49102  1  0
 52103  1  1
 53104  1  0
 53105  1  0
 53106  1  0
 54107  1  0
M  END
