
     RDKit          3D

187189  0  0  0  0  0  0  0  0999 V2000
   -0.7201    9.5998    2.1195 C   0  0  0  0  0  0  0  0  0  0  0  0
    0.3526    8.6775    2.6100 C   0  0  0  0  0  0  0  0  0  0  0  0
    1.3527    9.1914    3.2201 O   0  0  0  0  0  0  0  0  0  0  0  0
    0.2741    7.2512    2.4755 N   0  0  0  0  0  0  0  0  0  0  0  0
   -0.4908    6.4724    1.4435 C   0  0  1  0  0  0  0  0  0  0  0  0
   -1.8679    6.2543    2.0279 C   0  0  0  0  0  0  0  0  0  0  0  0
   -3.1033    5.5426    0.9383 S   0  0  0  0  0  0  0  0  0  0  0  0
   -2.1322    4.1824    0.1346 C   0  0  0  0  0  0  0  0  0  0  0  0
   -3.0745    3.3713   -0.7576 C   0  0  0  0  0  0  0  0  0  0  0  0
   -4.0696    4.0871   -1.4738 C   0  0  0  0  0  0  0  0  0  0  0  0
   -5.3925    3.5793   -1.5388 C   0  0  0  0  0  0  0  0  0  0  0  0
   -5.6220    2.2713   -1.1347 C   0  0  0  0  0  0  0  0  0  0  0  0
   -4.6495    1.6083   -0.3585 C   0  0  0  0  0  0  0  0  0  0  0  0
   -3.3073    2.0463   -0.4465 C   0  0  0  0  0  0  0  0  0  0  0  0
   -5.0665    1.2693    1.0667 C   0  0  0  0  0  0  0  0  0  0  0  0
   -4.5334   -0.3323    1.7897 S   0  0  0  0  0  0  0  0  0  0  0  0
   -4.7070   -1.2683    0.2277 C   0  0  0  0  0  0  0  0  0  0  0  0
   -4.6937   -2.7644    0.4861 C   0  0  2  0  0  0  0  0  0  0  0  0
   -3.4519   -3.2701    1.1860 N   0  0  0  0  0  0  0  0  0  0  0  0
   -3.0696   -4.6690    1.2098 C   0  0  0  0  0  0  0  0  0  0  0  0
   -3.7997   -5.5001    1.8656 O   0  0  0  0  0  0  0  0  0  0  0  0
   -1.7120   -5.1765    0.6742 C   0  0  1  0  0  0  0  0  0  0  0  0
   -0.7564   -5.4030    1.8666 C   0  0  0  0  0  0  0  0  0  0  0  0
   -1.8923   -6.3999   -0.1106 N   0  0  0  0  0  0  0  0  0  0  0  0
   -0.9267   -7.0259   -0.9795 C   0  0  0  0  0  0  0  0  0  0  0  0
   -1.3748   -7.5639   -2.0444 O   0  0  0  0  0  0  0  0  0  0  0  0
    0.5270   -7.2765   -0.6200 C   0  0  1  0  0  0  0  0  0  0  0  0
    0.5977   -8.5621    0.2286 C   0  0  0  0  0  0  0  0  0  0  0  0
    1.3242   -7.4368   -1.8531 N   0  0  0  0  0  0  0  0  0  0  0  0
    2.6434   -8.0188   -1.9769 C   0  0  0  0  0  0  0  0  0  0  0  0
    2.9565   -8.4700   -3.1237 O   0  0  0  0  0  0  0  0  0  0  0  0
    3.6602   -8.0590   -0.8691 C   0  0  1  0  0  0  0  0  0  0  0  0
    3.9979   -9.5072   -0.4888 C   0  0  0  0  0  0  0  0  0  0  0  0
    4.8627   -7.3666   -1.3293 N   0  0  0  0  0  0  0  0  0  0  0  0
    5.2116   -6.0845   -0.8610 C   0  0  0  0  0  0  0  0  0  0  0  0
    4.8588   -5.0734   -1.5266 O   0  0  0  0  0  0  0  0  0  0  0  0
    6.2282   -5.9319    0.2211 C   0  0  1  0  0  0  0  0  0  0  0  0
    6.1040   -6.9794    1.3221 C   0  0  0  0  0  0  0  0  0  0  0  0
    7.5470   -6.0664   -0.4070 N   0  0  0  0  0  0  0  0  0  0  0  0
    8.4372   -4.9775   -0.6969 C   0  0  0  0  0  0  0  0  0  0  0  0
    9.0211   -4.9816   -1.8318 O   0  0  0  0  0  0  0  0  0  0  0  0
    8.7394   -3.8639    0.2843 C   0  0  1  0  0  0  0  0  0  0  0  0
    8.8956   -4.4314    1.7095 C   0  0  0  0  0  0  0  0  0  0  0  0
   10.0228   -3.2406   -0.0921 N   0  0  0  0  0  0  0  0  0  0  0  0
   10.4000   -1.9015    0.2561 C   0  0  0  0  0  0  0  0  0  0  0  0
   11.4288   -1.7622    0.9968 O   0  0  0  0  0  0  0  0  0  0  0  0
    9.8511   -0.6865   -0.4329 C   0  0  1  0  0  0  0  0  0  0  0  0
    8.5508   -0.9626   -1.2193 C   0  0  0  0  0  0  0  0  0  0  0  0
    9.6340    0.3948    0.5260 N   0  0  0  0  0  0  0  0  0  0  0  0
    9.5139    1.7565    0.1153 C   0  0  0  0  0  0  0  0  0  0  0  0
   10.4374    2.5638    0.4076 O   0  0  0  0  0  0  0  0  0  0  0  0
    8.2002    2.2778   -0.3271 C   0  0  1  0  0  0  0  0  0  0  0  0
    7.5216    2.8387    0.9152 C   0  0  0  0  0  0  0  0  0  0  0  0
    8.3526    3.2178   -1.4713 N   0  0  0  0  0  0  0  0  0  0  0  0
    8.3232    4.6664   -1.5673 C   0  0  0  0  0  0  0  0  0  0  0  0
    8.0943    5.1861   -2.7118 O   0  0  0  0  0  0  0  0  0  0  0  0
    8.8120    5.5653   -0.4441 C   0  0  1  0  0  0  0  0  0  0  0  0
   10.2787    5.8498   -0.7200 C   0  0  0  0  0  0  0  0  0  0  0  0
    8.0781    6.8624   -0.3370 N   0  0  0  0  0  0  0  0  0  0  0  0
    6.7488    7.1637   -0.8268 C   0  0  0  0  0  0  0  0  0  0  0  0
    6.6009    8.2981   -1.3963 O   0  0  0  0  0  0  0  0  0  0  0  0
    5.5481    6.2157   -0.7490 C   0  0  1  0  0  0  0  0  0  0  0  0
    5.2580    5.8283    0.7617 C   0  0  0  0  0  0  0  0  0  0  0  0
    4.3438    6.8421   -1.2945 N   0  0  0  0  0  0  0  0  0  0  0  0
    3.0360    6.3655   -0.9977 C   0  0  0  0  0  0  0  0  0  0  0  0
    2.7314    5.1934   -1.2980 O   0  0  0  0  0  0  0  0  0  0  0  0
    2.1819    7.1681   -0.0232 C   0  0  1  0  0  0  0  0  0  0  0  0
    2.8397    8.5353    0.2659 C   0  0  0  0  0  0  0  0  0  0  0  0
    0.8571    7.4424   -0.5749 N   0  0  0  0  0  0  0  0  0  0  0  0
   -0.4098    7.1068    0.0636 C   0  0  0  0  0  0  0  0  0  0  0  0
   -1.4657    7.3324   -0.6162 O   0  0  0  0  0  0  0  0  0  0  0  0
   -4.9668   -3.5690   -0.7795 C   0  0  0  0  0  0  0  0  0  0  0  0
   -4.6283   -3.1361   -1.9060 O   0  0  0  0  0  0  0  0  0  0  0  0
   -5.5136   -4.8691   -0.6993 N   0  0  0  0  0  0  0  0  0  0  0  0
   -6.7709   -5.1879    0.0416 C   0  0  2  0  0  0  0  0  0  0  0  0
   -6.8484   -6.6778    0.3148 C   0  0  0  0  0  0  0  0  0  0  0  0
   -7.9761   -4.7787   -0.7688 C   0  0  0  0  0  0  0  0  0  0  0  0
   -8.1228   -5.2779   -1.9247 O   0  0  0  0  0  0  0  0  0  0  0  0
   -9.0543   -3.9971   -0.2309 N   0  0  0  0  0  0  0  0  0  0  0  0
   -8.9185   -2.8284    0.6862 C   0  0  2  0  0  0  0  0  0  0  0  0
   -8.6196   -3.2772    2.1303 C   0  0  0  0  0  0  0  0  0  0  0  0
  -10.2209   -2.0391    0.6950 C   0  0  0  0  0  0  0  0  0  0  0  0
  -11.2744   -2.5930    1.1335 O   0  0  0  0  0  0  0  0  0  0  0  0
  -10.2127   -0.6434    0.3834 N   0  0  0  0  0  0  0  0  0  0  0  0
  -10.3441   -0.0841   -0.9989 C   0  0  2  0  0  0  0  0  0  0  0  0
  -10.4746   -1.1862   -2.0688 C   0  0  0  0  0  0  0  0  0  0  0  0
   -9.1537    0.7602   -1.3274 C   0  0  0  0  0  0  0  0  0  0  0  0
   -8.0483    0.1637   -1.5028 O   0  0  0  0  0  0  0  0  0  0  0  0
   -9.2761    2.1311   -1.7157 N   0  0  0  0  0  0  0  0  0  0  0  0
   -9.5154    3.3115   -0.8306 C   0  0  1  0  0  0  0  0  0  0  0  0
  -10.9007    3.3262   -0.2492 C   0  0  0  0  0  0  0  0  0  0  0  0
  -11.7887    4.3553   -0.6130 N   0  0  0  0  0  0  0  0  0  0  0  0
  -11.2216    2.5375    0.6984 O   0  0  0  0  0  0  0  0  0  0  0  0
   -8.4460    3.4394    0.2969 C   0  0  0  0  0  0  0  0  0  0  0  0
   -7.2897    4.8677    0.1135 S   0  0  0  0  0  0  0  0  0  0  0  0
   -6.5652    4.5576   -1.5507 C   0  0  0  0  0  0  0  0  0  0  0  0
   -1.5761    9.5723    2.8173 H   0  0  0  0  0  0  0  0  0  0  0  0
   -1.0691    9.3632    1.0883 H   0  0  0  0  0  0  0  0  0  0  0  0
   -0.3249   10.6376    2.0958 H   0  0  0  0  0  0  0  0  0  0  0  0
    0.7047    6.6856    3.2453 H   0  0  0  0  0  0  0  0  0  0  0  0
    0.0042    5.4617    1.3930 H   0  0  0  0  0  0  0  0  0  0  0  0
   -1.7925    5.6152    2.9340 H   0  0  0  0  0  0  0  0  0  0  0  0
   -2.2802    7.2207    2.3568 H   0  0  0  0  0  0  0  0  0  0  0  0
   -1.7151    3.5449    0.9597 H   0  0  0  0  0  0  0  0  0  0  0  0
   -1.3169    4.5462   -0.5145 H   0  0  0  0  0  0  0  0  0  0  0  0
   -3.9312    5.1509   -1.6262 H   0  0  0  0  0  0  0  0  0  0  0  0
   -6.6234    1.9357   -1.0271 H   0  0  0  0  0  0  0  0  0  0  0  0
   -2.6086    1.5228    0.1881 H   0  0  0  0  0  0  0  0  0  0  0  0
   -4.7002    2.1101    1.7282 H   0  0  0  0  0  0  0  0  0  0  0  0
   -6.1609    1.3772    1.2279 H   0  0  0  0  0  0  0  0  0  0  0  0
   -5.6255   -0.8981   -0.3305 H   0  0  0  0  0  0  0  0  0  0  0  0
   -3.8661   -0.9895   -0.4477 H   0  0  0  0  0  0  0  0  0  0  0  0
   -5.4993   -2.9684    1.2136 H   0  0  0  0  0  0  0  0  0  0  0  0
   -2.6294   -2.7247    0.7673 H   0  0  0  0  0  0  0  0  0  0  0  0
   -1.2828   -4.3876   -0.0069 H   0  0  0  0  0  0  0  0  0  0  0  0
   -1.1470   -4.9696    2.8223 H   0  0  0  0  0  0  0  0  0  0  0  0
   -0.6137   -6.4846    2.0351 H   0  0  0  0  0  0  0  0  0  0  0  0
    0.2349   -4.9357    1.6594 H   0  0  0  0  0  0  0  0  0  0  0  0
   -2.8595   -6.8094   -0.1641 H   0  0  0  0  0  0  0  0  0  0  0  0
    0.9540   -6.4083   -0.0307 H   0  0  0  0  0  0  0  0  0  0  0  0
   -0.3668   -8.7341    0.7742 H   0  0  0  0  0  0  0  0  0  0  0  0
    0.7936   -9.4253   -0.4229 H   0  0  0  0  0  0  0  0  0  0  0  0
    1.3976   -8.4728    0.9819 H   0  0  0  0  0  0  0  0  0  0  0  0
    0.9115   -7.1219   -2.7756 H   0  0  0  0  0  0  0  0  0  0  0  0
    3.2703   -7.5558    0.0502 H   0  0  0  0  0  0  0  0  0  0  0  0
    3.3411   -9.8949    0.3218 H   0  0  0  0  0  0  0  0  0  0  0  0
    5.0513   -9.6273   -0.1432 H   0  0  0  0  0  0  0  0  0  0  0  0
    3.8850  -10.2140   -1.3461 H   0  0  0  0  0  0  0  0  0  0  0  0
    5.2500   -7.6490   -2.2538 H   0  0  0  0  0  0  0  0  0  0  0  0
    6.1184   -4.9190    0.6865 H   0  0  0  0  0  0  0  0  0  0  0  0
    6.2146   -7.9946    0.8939 H   0  0  0  0  0  0  0  0  0  0  0  0
    6.9384   -6.8559    2.0711 H   0  0  0  0  0  0  0  0  0  0  0  0
    5.1360   -6.8977    1.8497 H   0  0  0  0  0  0  0  0  0  0  0  0
    7.7248   -6.9489   -0.9272 H   0  0  0  0  0  0  0  0  0  0  0  0
    7.9096   -3.1204    0.2825 H   0  0  0  0  0  0  0  0  0  0  0  0
    9.4196   -5.4147    1.6803 H   0  0  0  0  0  0  0  0  0  0  0  0
    9.4807   -3.7306    2.3255 H   0  0  0  0  0  0  0  0  0  0  0  0
    7.8987   -4.5476    2.1873 H   0  0  0  0  0  0  0  0  0  0  0  0
   10.8093   -3.8916   -0.2385 H   0  0  0  0  0  0  0  0  0  0  0  0
   10.6207   -0.3683   -1.1591 H   0  0  0  0  0  0  0  0  0  0  0  0
    8.6330   -1.9301   -1.7753 H   0  0  0  0  0  0  0  0  0  0  0  0
    7.6747   -0.9876   -0.5497 H   0  0  0  0  0  0  0  0  0  0  0  0
    8.4245   -0.1802   -1.9983 H   0  0  0  0  0  0  0  0  0  0  0  0
    9.8115    0.2629    1.5467 H   0  0  0  0  0  0  0  0  0  0  0  0
    7.4999    1.4579   -0.6486 H   0  0  0  0  0  0  0  0  0  0  0  0
    8.1614    3.1684    1.7895 H   0  0  0  0  0  0  0  0  0  0  0  0
    6.6782    2.2080    1.3094 H   0  0  0  0  0  0  0  0  0  0  0  0
    7.0889    3.7107    0.4316 H   0  0  0  0  0  0  0  0  0  0  0  0
    8.5625    2.7374   -2.3963 H   0  0  0  0  0  0  0  0  0  0  0  0
    8.7610    5.0639    0.5522 H   0  0  0  0  0  0  0  0  0  0  0  0
   10.7334    6.3721    0.1287 H   0  0  0  0  0  0  0  0  0  0  0  0
   10.8357    4.8927   -0.8888 H   0  0  0  0  0  0  0  0  0  0  0  0
   10.3543    6.4822   -1.6479 H   0  0  0  0  0  0  0  0  0  0  0  0
    8.5092    7.5678    0.2869 H   0  0  0  0  0  0  0  0  0  0  0  0
    5.7759    5.2834   -1.3909 H   0  0  0  0  0  0  0  0  0  0  0  0
    5.3734    4.7355    0.6786 H   0  0  0  0  0  0  0  0  0  0  0  0
    4.2167    5.7535    1.0633 H   0  0  0  0  0  0  0  0  0  0  0  0
    5.9446    6.0470    1.6683 H   0  0  0  0  0  0  0  0  0  0  0  0
    4.4116    7.5367   -2.0792 H   0  0  0  0  0  0  0  0  0  0  0  0
    2.1172    6.6022    0.9408 H   0  0  0  0  0  0  0  0  0  0  0  0
    3.2164    9.0081   -0.6628 H   0  0  0  0  0  0  0  0  0  0  0  0
    3.6755    8.4069    0.9834 H   0  0  0  0  0  0  0  0  0  0  0  0
    2.0917    9.2479    0.6558 H   0  0  0  0  0  0  0  0  0  0  0  0
    0.7988    7.7943   -1.5564 H   0  0  0  0  0  0  0  0  0  0  0  0
   -5.0880   -5.6062   -1.3074 H   0  0  0  0  0  0  0  0  0  0  0  0
   -6.7486   -4.6830    1.0406 H   0  0  0  0  0  0  0  0  0  0  0  0
   -6.0649   -6.9731    1.0339 H   0  0  0  0  0  0  0  0  0  0  0  0
   -7.8286   -6.9214    0.7543 H   0  0  0  0  0  0  0  0  0  0  0  0
   -6.7460   -7.2513   -0.6142 H   0  0  0  0  0  0  0  0  0  0  0  0
   -9.9989   -4.1996   -0.6388 H   0  0  0  0  0  0  0  0  0  0  0  0
   -8.1008   -2.1817    0.2896 H   0  0  0  0  0  0  0  0  0  0  0  0
   -9.2976   -2.7802    2.8643 H   0  0  0  0  0  0  0  0  0  0  0  0
   -7.5913   -2.9752    2.4077 H   0  0  0  0  0  0  0  0  0  0  0  0
   -8.7627   -4.3719    2.2381 H   0  0  0  0  0  0  0  0  0  0  0  0
  -10.6108   -0.0240    1.1430 H   0  0  0  0  0  0  0  0  0  0  0  0
  -11.2682    0.5483   -1.0465 H   0  0  0  0  0  0  0  0  0  0  0  0
  -11.3026   -1.8731   -1.8306 H   0  0  0  0  0  0  0  0  0  0  0  0
   -9.5343   -1.7677   -2.1604 H   0  0  0  0  0  0  0  0  0  0  0  0
  -10.6817   -0.6971   -3.0428 H   0  0  0  0  0  0  0  0  0  0  0  0
   -8.9289    2.3446   -2.6890 H   0  0  0  0  0  0  0  0  0  0  0  0
   -9.4334    4.2144   -1.4868 H   0  0  0  0  0  0  0  0  0  0  0  0
  -11.7031    4.8289   -1.5404 H   0  0  0  0  0  0  0  0  0  0  0  0
  -12.1723    4.9443    0.1781 H   0  0  0  0  0  0  0  0  0  0  0  0
   -7.9387    2.5049    0.4616 H   0  0  0  0  0  0  0  0  0  0  0  0
   -8.9348    3.6293    1.2656 H   0  0  0  0  0  0  0  0  0  0  0  0
   -7.3046    4.3367   -2.3625 H   0  0  0  0  0  0  0  0  0  0  0  0
   -6.1859    5.5615   -1.8373 H   0  0  0  0  0  0  0  0  0  0  0  0
  1  2  1  0
  2  3  2  0
  2  4  1  0
  4  5  1  0
  5  6  1  0
  6  7  1  0
  7  8  1  0
  8  9  1  0
  9 10  2  0
 10 11  1  0
 11 12  2  0
 12 13  1  0
 13 14  2  0
 13 15  1  0
 15 16  1  0
 16 17  1  0
 17 18  1  0
 18 19  1  0
 19 20  1  0
 20 21  2  0
 20 22  1  0
 22 23  1  0
 22 24  1  0
 24 25  1  0
 25 26  2  0
 25 27  1  0
 27 28  1  0
 27 29  1  0
 29 30  1  0
 30 31  2  0
 30 32  1  0
 32 33  1  0
 32 34  1  0
 34 35  1  0
 35 36  2  0
 35 37  1  0
 37 38  1  0
 37 39  1  0
 39 40  1  0
 40 41  2  0
 40 42  1  0
 42 43  1  0
 42 44  1  0
 44 45  1  0
 45 46  2  0
 45 47  1  0
 47 48  1  0
 47 49  1  0
 49 50  1  0
 50 51  2  0
 50 52  1  0
 52 53  1  0
 52 54  1  0
 54 55  1  0
 55 56  2  0
 55 57  1  0
 57 58  1  0
 57 59  1  0
 59 60  1  0
 60 61  2  0
 60 62  1  0
 62 63  1  0
 62 64  1  0
 64 65  1  0
 65 66  2  0
 65 67  1  0
 67 68  1  0
 67 69  1  0
 69 70  1  0
 70 71  2  0
 18 72  1  0
 72 73  2  0
 72 74  1  0
 74 75  1  0
 75 76  1  0
 75 77  1  0
 77 78  2  0
 77 79  1  0
 79 80  1  0
 80 81  1  0
 80 82  1  0
 82 83  2  0
 82 84  1  0
 84 85  1  0
 85 86  1  0
 85 87  1  0
 87 88  2  0
 87 89  1  0
 89 90  1  0
 90 91  1  0
 91 92  1  0
 91 93  2  0
 90 94  1  0
 94 95  1  0
 95 96  1  0
 70  5  1  0
 14  9  1  0
 96 11  1  0
  1 97  1  0
  1 98  1  0
  1 99  1  0
  4100  1  0
  5101  1  6
  6102  1  0
  6103  1  0
  8104  1  0
  8105  1  0
 10106  1  0
 12107  1  0
 14108  1  0
 15109  1  0
 15110  1  0
 17111  1  0
 17112  1  0
 18113  1  1
 19114  1  0
 22115  1  6
 23116  1  0
 23117  1  0
 23118  1  0
 24119  1  0
 27120  1  1
 28121  1  0
 28122  1  0
 28123  1  0
 29124  1  0
 32125  1  1
 33126  1  0
 33127  1  0
 33128  1  0
 34129  1  0
 37130  1  1
 38131  1  0
 38132  1  0
 38133  1  0
 39134  1  0
 42135  1  1
 43136  1  0
 43137  1  0
 43138  1  0
 44139  1  0
 47140  1  6
 48141  1  0
 48142  1  0
 48143  1  0
 49144  1  0
 52145  1  6
 53146  1  0
 53147  1  0
 53148  1  0
 54149  1  0
 57150  1  1
 58151  1  0
 58152  1  0
 58153  1  0
 59154  1  0
 62155  1  6
 63156  1  0
 63157  1  0
 63158  1  0
 64159  1  0
 67160  1  1
 68161  1  0
 68162  1  0
 68163  1  0
 69164  1  0
 74165  1  0
 75166  1  1
 76167  1  0
 76168  1  0
 76169  1  0
 79170  1  0
 80171  1  6
 81172  1  0
 81173  1  0
 81174  1  0
 84175  1  0
 85176  1  1
 86177  1  0
 86178  1  0
 86179  1  0
 89180  1  0
 90181  1  6
 92182  1  0
 92183  1  0
 94184  1  0
 94185  1  0
 96186  1  0
 96187  1  0
M  END
