
     RDKit          3D

167169  0  0  0  0  0  0  0  0999 V2000
   11.6352    1.4509   -1.5878 C   0  0  0  0  0  0  0  0  0  0  0  0
   11.3038    2.3146   -0.4090 C   0  0  0  0  0  0  0  0  0  0  0  0
   12.1093    3.2241   -0.0769 O   0  0  0  0  0  0  0  0  0  0  0  0
   10.1110    2.1176    0.3712 N   0  0  0  0  0  0  0  0  0  0  0  0
    9.0631    1.1369    0.0374 C   0  0  2  0  0  0  0  0  0  0  0  0
    8.0433    1.7318   -0.9532 C   0  0  0  0  0  0  0  0  0  0  0  0
    7.3686    3.3436   -0.4009 S   0  0  0  0  0  0  0  0  0  0  0  0
    6.2161    3.5584   -1.8023 C   0  0  0  0  0  0  0  0  0  0  0  0
    4.8253    3.1570   -1.3966 C   0  0  0  0  0  0  0  0  0  0  0  0
    3.9708    4.0948   -0.7965 C   0  0  0  0  0  0  0  0  0  0  0  0
    2.6636    3.7327   -0.4170 C   0  0  0  0  0  0  0  0  0  0  0  0
    2.2334    2.4160   -0.6421 C   0  0  0  0  0  0  0  0  0  0  0  0
    3.0711    1.4709   -1.2506 C   0  0  0  0  0  0  0  0  0  0  0  0
    4.3642    1.8533   -1.6315 C   0  0  0  0  0  0  0  0  0  0  0  0
    2.5896    0.0596   -1.4634 C   0  0  0  0  0  0  0  0  0  0  0  0
    3.2404   -1.0234   -0.1491 S   0  0  0  0  0  0  0  0  0  0  0  0
    4.6565   -1.7371   -1.0728 C   0  0  0  0  0  0  0  0  0  0  0  0
    5.8900   -1.8441   -0.1633 C   0  0  2  0  0  0  0  0  0  0  0  0
    7.0790   -2.1753   -0.9566 N   0  0  0  0  0  0  0  0  0  0  0  0
    8.4367   -2.0198   -0.5084 C   0  0  0  0  0  0  0  0  0  0  0  0
    9.3483   -2.0232   -1.3834 O   0  0  0  0  0  0  0  0  0  0  0  0
    8.8081   -1.9096    0.9587 C   0  0  1  0  0  0  0  0  0  0  0  0
   10.3192   -1.9346    1.2135 C   0  0  0  0  0  0  0  0  0  0  0  0
    8.1927   -0.7494    1.6146 N   0  0  0  0  0  0  0  0  0  0  0  0
    8.3724    0.6473    1.2948 C   0  0  0  0  0  0  0  0  0  0  0  0
    7.8879    1.5015    2.0877 O   0  0  0  0  0  0  0  0  0  0  0  0
    5.6371   -2.8775    0.9060 C   0  0  0  0  0  0  0  0  0  0  0  0
    5.1368   -2.5200    2.0043 O   0  0  0  0  0  0  0  0  0  0  0  0
    5.8393   -4.2732    0.6323 N   0  0  0  0  0  0  0  0  0  0  0  0
    5.0621   -5.3224    1.2976 C   0  0  2  0  0  0  0  0  0  0  0  0
    5.9787   -6.1479    2.2065 C   0  0  0  0  0  0  0  0  0  0  0  0
    4.4108   -6.1894    0.2421 C   0  0  0  0  0  0  0  0  0  0  0  0
    5.1359   -6.9876   -0.4134 O   0  0  0  0  0  0  0  0  0  0  0  0
    3.0207   -6.0822   -0.1175 N   0  0  0  0  0  0  0  0  0  0  0  0
    2.0289   -5.2487    0.5748 C   0  0  2  0  0  0  0  0  0  0  0  0
    1.5137   -5.9849    1.8166 C   0  0  0  0  0  0  0  0  0  0  0  0
    0.9305   -4.8593   -0.3902 C   0  0  0  0  0  0  0  0  0  0  0  0
    1.2230   -4.1222   -1.3689 O   0  0  0  0  0  0  0  0  0  0  0  0
   -0.4378   -5.2408   -0.2040 N   0  0  0  0  0  0  0  0  0  0  0  0
   -0.9492   -6.5713   -0.5575 C   0  0  2  0  0  0  0  0  0  0  0  0
   -0.5227   -6.9714   -1.9731 C   0  0  0  0  0  0  0  0  0  0  0  0
   -2.4536   -6.5977   -0.4572 C   0  0  0  0  0  0  0  0  0  0  0  0
   -3.1335   -5.7672   -1.1204 O   0  0  0  0  0  0  0  0  0  0  0  0
   -3.1105   -7.5774    0.3653 N   0  0  0  0  0  0  0  0  0  0  0  0
   -4.5634   -7.7823    0.3892 C   0  0  2  0  0  0  0  0  0  0  0  0
   -5.0469   -8.3521   -0.9501 C   0  0  0  0  0  0  0  0  0  0  0  0
   -5.2778   -6.5225    0.8321 C   0  0  0  0  0  0  0  0  0  0  0  0
   -5.0541   -6.0854    1.9951 O   0  0  0  0  0  0  0  0  0  0  0  0
   -6.1953   -5.8185   -0.0238 N   0  0  0  0  0  0  0  0  0  0  0  0
   -7.1996   -4.8877    0.5034 C   0  0  2  0  0  0  0  0  0  0  0  0
   -8.2544   -5.6537    1.3070 C   0  0  0  0  0  0  0  0  0  0  0  0
   -7.8727   -4.1524   -0.6415 C   0  0  0  0  0  0  0  0  0  0  0  0
   -8.4300   -4.8359   -1.5415 O   0  0  0  0  0  0  0  0  0  0  0  0
   -7.9349   -2.7151   -0.7464 N   0  0  0  0  0  0  0  0  0  0  0  0
   -7.3688   -1.7586    0.2151 C   0  0  2  0  0  0  0  0  0  0  0  0
   -8.3605   -1.5090    1.3524 C   0  0  0  0  0  0  0  0  0  0  0  0
   -7.0088   -0.4465   -0.4434 C   0  0  0  0  0  0  0  0  0  0  0  0
   -5.8775    0.0606   -0.2030 O   0  0  0  0  0  0  0  0  0  0  0  0
   -7.9284    0.2515   -1.2961 N   0  0  0  0  0  0  0  0  0  0  0  0
   -8.1767    1.6917   -1.1718 C   0  0  2  0  0  0  0  0  0  0  0  0
   -9.2648    2.1326   -2.1540 C   0  0  0  0  0  0  0  0  0  0  0  0
   -6.9170    2.4764   -1.4258 C   0  0  0  0  0  0  0  0  0  0  0  0
   -6.2095    2.2031   -2.4332 O   0  0  0  0  0  0  0  0  0  0  0  0
   -6.4848    3.4998   -0.5184 N   0  0  0  0  0  0  0  0  0  0  0  0
   -7.3813    4.5420   -0.0111 C   0  0  2  0  0  0  0  0  0  0  0  0
   -7.3827    5.7427   -0.9588 C   0  0  0  0  0  0  0  0  0  0  0  0
   -7.0135    4.9755    1.3891 C   0  0  0  0  0  0  0  0  0  0  0  0
   -7.8534    5.6464    2.0461 O   0  0  0  0  0  0  0  0  0  0  0  0
   -5.7880    4.5946    2.0377 N   0  0  0  0  0  0  0  0  0  0  0  0
   -4.4501    5.1119    1.6884 C   0  0  2  0  0  0  0  0  0  0  0  0
   -3.5059    4.9185    2.8862 C   0  0  0  0  0  0  0  0  0  0  0  0
   -4.4966    6.5814    1.3233 C   0  0  0  0  0  0  0  0  0  0  0  0
   -5.1070    7.3635    2.0997 O   0  0  0  0  0  0  0  0  0  0  0  0
   -3.8565    7.1434    0.1530 N   0  0  0  0  0  0  0  0  0  0  0  0
   -2.8544    6.5253   -0.7320 C   0  0  2  0  0  0  0  0  0  0  0  0
   -3.4993    5.6088   -1.7799 C   0  0  0  0  0  0  0  0  0  0  0  0
   -1.7370    5.8637    0.0458 C   0  0  0  0  0  0  0  0  0  0  0  0
   -1.6354    4.6072    0.0546 O   0  0  0  0  0  0  0  0  0  0  0  0
   -0.8149    6.6327    0.8320 N   0  0  0  0  0  0  0  0  0  0  0  0
   -0.1092    7.8115    0.3196 C   0  0  1  0  0  0  0  0  0  0  0  0
    0.1386    8.7781    1.4537 C   0  0  0  0  0  0  0  0  0  0  0  0
   -0.9724    9.3219    2.1671 N   0  0  0  0  0  0  0  0  0  0  0  0
    1.3081    9.1497    1.7518 O   0  0  0  0  0  0  0  0  0  0  0  0
    1.1714    7.3977   -0.4355 C   0  0  0  0  0  0  0  0  0  0  0  0
    2.3248    6.3719    0.5754 S   0  0  0  0  0  0  0  0  0  0  0  0
    1.6533    4.7180    0.1299 C   0  0  0  0  0  0  0  0  0  0  0  0
   12.5920    1.7816   -2.0513 H   0  0  0  0  0  0  0  0  0  0  0  0
   11.7534    0.3980   -1.2686 H   0  0  0  0  0  0  0  0  0  0  0  0
   10.8377    1.5243   -2.3515 H   0  0  0  0  0  0  0  0  0  0  0  0
    9.9737    2.7417    1.1968 H   0  0  0  0  0  0  0  0  0  0  0  0
    9.5299    0.2864   -0.4709 H   0  0  0  0  0  0  0  0  0  0  0  0
    8.5368    1.8787   -1.9396 H   0  0  0  0  0  0  0  0  0  0  0  0
    7.2122    1.0058   -1.0988 H   0  0  0  0  0  0  0  0  0  0  0  0
    6.2234    4.6284   -2.1009 H   0  0  0  0  0  0  0  0  0  0  0  0
    6.5449    2.9885   -2.6996 H   0  0  0  0  0  0  0  0  0  0  0  0
    4.3344    5.1020   -0.6411 H   0  0  0  0  0  0  0  0  0  0  0  0
    1.2241    2.1311   -0.3595 H   0  0  0  0  0  0  0  0  0  0  0  0
    5.0180    1.1419   -2.1188 H   0  0  0  0  0  0  0  0  0  0  0  0
    1.4837    0.0260   -1.3896 H   0  0  0  0  0  0  0  0  0  0  0  0
    2.8434   -0.2955   -2.4840 H   0  0  0  0  0  0  0  0  0  0  0  0
    4.3624   -2.7429   -1.4507 H   0  0  0  0  0  0  0  0  0  0  0  0
    4.9140   -1.1106   -1.9518 H   0  0  0  0  0  0  0  0  0  0  0  0
    6.0367   -0.8457    0.2998 H   0  0  0  0  0  0  0  0  0  0  0  0
    6.9465   -2.4421   -1.9610 H   0  0  0  0  0  0  0  0  0  0  0  0
    8.4084   -2.8269    1.4471 H   0  0  0  0  0  0  0  0  0  0  0  0
   10.8380   -1.0701    0.7459 H   0  0  0  0  0  0  0  0  0  0  0  0
   10.7636   -2.8665    0.7995 H   0  0  0  0  0  0  0  0  0  0  0  0
   10.5247   -1.9127    2.3037 H   0  0  0  0  0  0  0  0  0  0  0  0
    7.5608   -0.9560    2.4199 H   0  0  0  0  0  0  0  0  0  0  0  0
    6.5261   -4.5535   -0.1059 H   0  0  0  0  0  0  0  0  0  0  0  0
    4.3021   -4.8686    1.9558 H   0  0  0  0  0  0  0  0  0  0  0  0
    6.4295   -5.4930    2.9810 H   0  0  0  0  0  0  0  0  0  0  0  0
    5.3899   -6.9403    2.7198 H   0  0  0  0  0  0  0  0  0  0  0  0
    6.7936   -6.6217    1.6235 H   0  0  0  0  0  0  0  0  0  0  0  0
    2.6954   -6.6764   -0.9168 H   0  0  0  0  0  0  0  0  0  0  0  0
    2.4894   -4.2913    0.8965 H   0  0  0  0  0  0  0  0  0  0  0  0
    1.2217   -7.0288    1.5646 H   0  0  0  0  0  0  0  0  0  0  0  0
    2.3187   -6.0420    2.5801 H   0  0  0  0  0  0  0  0  0  0  0  0
    0.6468   -5.4497    2.2649 H   0  0  0  0  0  0  0  0  0  0  0  0
   -1.1143   -4.4703    0.0042 H   0  0  0  0  0  0  0  0  0  0  0  0
   -0.5337   -7.3191    0.1495 H   0  0  0  0  0  0  0  0  0  0  0  0
   -0.8277   -6.2002   -2.7124 H   0  0  0  0  0  0  0  0  0  0  0  0
    0.5824   -7.0921   -2.0155 H   0  0  0  0  0  0  0  0  0  0  0  0
   -0.9787   -7.9463   -2.2511 H   0  0  0  0  0  0  0  0  0  0  0  0
   -2.5205   -8.2124    0.9510 H   0  0  0  0  0  0  0  0  0  0  0  0
   -4.7887   -8.5559    1.1547 H   0  0  0  0  0  0  0  0  0  0  0  0
   -6.1506   -8.4788   -0.9394 H   0  0  0  0  0  0  0  0  0  0  0  0
   -4.7612   -7.7037   -1.8007 H   0  0  0  0  0  0  0  0  0  0  0  0
   -4.5892   -9.3507   -1.1105 H   0  0  0  0  0  0  0  0  0  0  0  0
   -6.1450   -5.9773   -1.0544 H   0  0  0  0  0  0  0  0  0  0  0  0
   -6.7001   -4.1890    1.1970 H   0  0  0  0  0  0  0  0  0  0  0  0
   -7.7872   -6.1467    2.1863 H   0  0  0  0  0  0  0  0  0  0  0  0
   -8.7319   -6.4382    0.6807 H   0  0  0  0  0  0  0  0  0  0  0  0
   -9.0396   -4.9614    1.6804 H   0  0  0  0  0  0  0  0  0  0  0  0
   -8.6359   -2.3622   -1.4278 H   0  0  0  0  0  0  0  0  0  0  0  0
   -6.4303   -2.1589    0.6474 H   0  0  0  0  0  0  0  0  0  0  0  0
   -8.6000   -2.4615    1.8668 H   0  0  0  0  0  0  0  0  0  0  0  0
   -7.9182   -0.8150    2.0992 H   0  0  0  0  0  0  0  0  0  0  0  0
   -9.3019   -1.0675    0.9656 H   0  0  0  0  0  0  0  0  0  0  0  0
   -8.5075   -0.2948   -1.9729 H   0  0  0  0  0  0  0  0  0  0  0  0
   -8.5373    1.8872   -0.1398 H   0  0  0  0  0  0  0  0  0  0  0  0
  -10.2041    1.5778   -1.9603 H   0  0  0  0  0  0  0  0  0  0  0  0
   -8.9505    1.9542   -3.2041 H   0  0  0  0  0  0  0  0  0  0  0  0
   -9.4767    3.2164   -2.0359 H   0  0  0  0  0  0  0  0  0  0  0  0
   -5.4679    3.7003   -0.5267 H   0  0  0  0  0  0  0  0  0  0  0  0
   -8.4184    4.1512    0.0330 H   0  0  0  0  0  0  0  0  0  0  0  0
   -8.1699    6.4671   -0.6579 H   0  0  0  0  0  0  0  0  0  0  0  0
   -7.5895    5.4080   -2.0010 H   0  0  0  0  0  0  0  0  0  0  0  0
   -6.4007    6.2564   -0.9350 H   0  0  0  0  0  0  0  0  0  0  0  0
   -5.9110    4.1430    2.9708 H   0  0  0  0  0  0  0  0  0  0  0  0
   -4.0391    4.5210    0.8602 H   0  0  0  0  0  0  0  0  0  0  0  0
   -3.3816    3.8366    3.0995 H   0  0  0  0  0  0  0  0  0  0  0  0
   -2.5057    5.3462    2.6727 H   0  0  0  0  0  0  0  0  0  0  0  0
   -3.9134    5.4197    3.7935 H   0  0  0  0  0  0  0  0  0  0  0  0
   -4.0363    8.1584   -0.0147 H   0  0  0  0  0  0  0  0  0  0  0  0
   -2.4034    7.3365   -1.3377 H   0  0  0  0  0  0  0  0  0  0  0  0
   -4.4332    6.0522   -2.1794 H   0  0  0  0  0  0  0  0  0  0  0  0
   -2.7937    5.4633   -2.6244 H   0  0  0  0  0  0  0  0  0  0  0  0
   -3.7152    4.6058   -1.3770 H   0  0  0  0  0  0  0  0  0  0  0  0
   -0.4132    6.1584    1.6709 H   0  0  0  0  0  0  0  0  0  0  0  0
   -0.7465    8.3594   -0.4009 H   0  0  0  0  0  0  0  0  0  0  0  0
   -1.9477    9.0820    1.8755 H   0  0  0  0  0  0  0  0  0  0  0  0
   -0.8256    9.9718    2.9671 H   0  0  0  0  0  0  0  0  0  0  0  0
    1.7194    8.3106   -0.7477 H   0  0  0  0  0  0  0  0  0  0  0  0
    0.8982    6.8717   -1.3744 H   0  0  0  0  0  0  0  0  0  0  0  0
    1.2061    4.2925    1.0526 H   0  0  0  0  0  0  0  0  0  0  0  0
    0.8382    4.7986   -0.6177 H   0  0  0  0  0  0  0  0  0  0  0  0
  1  2  1  0
  2  3  2  0
  2  4  1  0
  4  5  1  0
  5  6  1  0
  6  7  1  0
  7  8  1  0
  8  9  1  0
  9 10  1  0
 10 11  2  0
 11 12  1  0
 12 13  2  0
 13 14  1  0
 13 15  1  0
 15 16  1  0
 16 17  1  0
 17 18  1  0
 18 19  1  0
 19 20  1  0
 20 21  2  0
 20 22  1  0
 22 23  1  0
 22 24  1  0
 24 25  1  0
 25 26  2  0
 18 27  1  0
 27 28  2  0
 27 29  1  0
 29 30  1  0
 30 31  1  0
 30 32  1  0
 32 33  2  0
 32 34  1  0
 34 35  1  0
 35 36  1  0
 35 37  1  0
 37 38  2  0
 37 39  1  0
 39 40  1  0
 40 41  1  0
 40 42  1  0
 42 43  2  0
 42 44  1  0
 44 45  1  0
 45 46  1  0
 45 47  1  0
 47 48  2  0
 47 49  1  0
 49 50  1  0
 50 51  1  0
 50 52  1  0
 52 53  2  0
 52 54  1  0
 54 55  1  0
 55 56  1  0
 55 57  1  0
 57 58  2  0
 57 59  1  0
 59 60  1  0
 60 61  1  0
 60 62  1  0
 62 63  2  0
 62 64  1  0
 64 65  1  0
 65 66  1  0
 65 67  1  0
 67 68  2  0
 67 69  1  0
 69 70  1  0
 70 71  1  0
 70 72  1  0
 72 73  2  0
 72 74  1  0
 74 75  1  0
 75 76  1  0
 75 77  1  0
 77 78  2  0
 77 79  1  0
 79 80  1  0
 80 81  1  0
 81 82  1  0
 81 83  2  0
 80 84  1  0
 84 85  1  0
 85 86  1  0
 25  5  1  0
 14  9  2  0
 86 11  1  0
  1 87  1  0
  1 88  1  0
  1 89  1  0
  4 90  1  0
  5 91  1  6
  6 92  1  0
  6 93  1  0
  8 94  1  0
  8 95  1  0
 10 96  1  0
 12 97  1  0
 14 98  1  0
 15 99  1  0
 15100  1  0
 17101  1  0
 17102  1  0
 18103  1  1
 19104  1  0
 22105  1  1
 23106  1  0
 23107  1  0
 23108  1  0
 24109  1  0
 29110  1  0
 30111  1  1
 31112  1  0
 31113  1  0
 31114  1  0
 34115  1  0
 35116  1  1
 36117  1  0
 36118  1  0
 36119  1  0
 39120  1  0
 40121  1  1
 41122  1  0
 41123  1  0
 41124  1  0
 44125  1  0
 45126  1  1
 46127  1  0
 46128  1  0
 46129  1  0
 49130  1  0
 50131  1  1
 51132  1  0
 51133  1  0
 51134  1  0
 54135  1  0
 55136  1  1
 56137  1  0
 56138  1  0
 56139  1  0
 59140  1  0
 60141  1  1
 61142  1  0
 61143  1  0
 61144  1  0
 64145  1  0
 65146  1  1
 66147  1  0
 66148  1  0
 66149  1  0
 69150  1  0
 70151  1  6
 71152  1  0
 71153  1  0
 71154  1  0
 74155  1  0
 75156  1  6
 76157  1  0
 76158  1  0
 76159  1  0
 79160  1  0
 80161  1  6
 82162  1  0
 82163  1  0
 84164  1  0
 84165  1  0
 86166  1  0
 86167  1  0
M  END
