
     RDKit          3D

207209  0  0  0  0  0  0  0  0999 V2000
    1.3235  -10.8993    0.3275 C   0  0  0  0  0  0  0  0  0  0  0  0
    1.4748   -9.5631    0.9729 C   0  0  0  0  0  0  0  0  0  0  0  0
    1.4570   -9.4723    2.2285 O   0  0  0  0  0  0  0  0  0  0  0  0
    1.6654   -8.3950    0.1577 N   0  0  0  0  0  0  0  0  0  0  0  0
    1.9170   -7.0444    0.6845 C   0  0  1  0  0  0  0  0  0  0  0  0
    0.6614   -6.4894    1.3991 C   0  0  0  0  0  0  0  0  0  0  0  0
   -0.8512   -6.7080    0.3906 S   0  0  0  0  0  0  0  0  0  0  0  0
   -0.8196   -5.1187   -0.5256 C   0  0  0  0  0  0  0  0  0  0  0  0
   -1.9882   -4.2516   -0.1318 C   0  0  0  0  0  0  0  0  0  0  0  0
   -3.2987   -4.7550   -0.2119 C   0  0  0  0  0  0  0  0  0  0  0  0
   -4.3956   -3.9498    0.1229 C   0  0  0  0  0  0  0  0  0  0  0  0
   -4.1836   -2.6210    0.5048 C   0  0  0  0  0  0  0  0  0  0  0  0
   -2.8901   -2.0698    0.5086 C   0  0  0  0  0  0  0  0  0  0  0  0
   -1.7900   -2.9070    0.2349 C   0  0  0  0  0  0  0  0  0  0  0  0
   -2.6624   -0.6104    0.8434 C   0  0  0  0  0  0  0  0  0  0  0  0
   -4.0712    0.4450    0.3100 S   0  0  0  0  0  0  0  0  0  0  0  0
   -3.2162    2.0587    0.3748 C   0  0  0  0  0  0  0  0  0  0  0  0
   -2.9917    2.6333   -1.0407 C   0  0  2  0  0  0  0  0  0  0  0  0
   -2.3186    3.9338   -1.0101 N   0  0  0  0  0  0  0  0  0  0  0  0
   -1.1962    4.1836   -0.1664 C   0  0  0  0  0  0  0  0  0  0  0  0
   -0.1733    3.4445   -0.2500 O   0  0  0  0  0  0  0  0  0  0  0  0
   -1.2240    5.3376    0.7958 C   0  0  1  0  0  0  0  0  0  0  0  0
   -0.9520    4.8430    2.2234 C   0  0  0  0  0  0  0  0  0  0  0  0
   -0.2236    6.3365    0.4097 N   0  0  0  0  0  0  0  0  0  0  0  0
   -0.1449    7.5991    1.0814 C   0  0  0  0  0  0  0  0  0  0  0  0
   -1.2005    8.1735    1.4570 O   0  0  0  0  0  0  0  0  0  0  0  0
    1.2069    8.2215    1.3436 C   0  0  1  0  0  0  0  0  0  0  0  0
    1.1326    9.3562    2.3678 C   0  0  0  0  0  0  0  0  0  0  0  0
    2.1114    7.1827    1.8435 N   0  0  0  0  0  0  0  0  0  0  0  0
    3.0991    6.5328    1.0276 C   0  0  0  0  0  0  0  0  0  0  0  0
    3.1889    5.2741    1.0890 O   0  0  0  0  0  0  0  0  0  0  0  0
    3.9983    7.3063    0.0913 C   0  0  1  0  0  0  0  0  0  0  0  0
    4.6428    8.5031    0.7940 C   0  0  0  0  0  0  0  0  0  0  0  0
    5.0335    6.4462   -0.4948 N   0  0  0  0  0  0  0  0  0  0  0  0
    6.1360    5.8960    0.2557 C   0  0  0  0  0  0  0  0  0  0  0  0
    5.9779    5.6119    1.4776 O   0  0  0  0  0  0  0  0  0  0  0  0
    7.4443    5.5397   -0.4204 C   0  0  1  0  0  0  0  0  0  0  0  0
    7.7567    6.5223   -1.5603 C   0  0  0  0  0  0  0  0  0  0  0  0
    8.5441    5.5698    0.5499 N   0  0  0  0  0  0  0  0  0  0  0  0
    9.6948    4.7023    0.5445 C   0  0  0  0  0  0  0  0  0  0  0  0
   10.3725    4.5905    1.6044 O   0  0  0  0  0  0  0  0  0  0  0  0
   10.1954    4.0171   -0.7044 C   0  0  1  0  0  0  0  0  0  0  0  0
   11.3406    4.8288   -1.3254 C   0  0  0  0  0  0  0  0  0  0  0  0
   10.6687    2.6675   -0.4019 N   0  0  0  0  0  0  0  0  0  0  0  0
    9.8305    1.5177   -0.5748 C   0  0  0  0  0  0  0  0  0  0  0  0
    8.6169    1.5694   -0.2234 O   0  0  0  0  0  0  0  0  0  0  0  0
   10.3576    0.2498   -1.2091 C   0  0  1  0  0  0  0  0  0  0  0  0
   10.3677    0.4169   -2.7265 C   0  0  0  0  0  0  0  0  0  0  0  0
   11.7128   -0.0510   -0.7380 N   0  0  0  0  0  0  0  0  0  0  0  0
   12.1650   -1.3615   -0.3473 C   0  0  0  0  0  0  0  0  0  0  0  0
   13.3872   -1.6408   -0.5073 O   0  0  0  0  0  0  0  0  0  0  0  0
   11.2219   -2.4117    0.2209 C   0  0  1  0  0  0  0  0  0  0  0  0
   12.0008   -3.5585    0.8861 C   0  0  0  0  0  0  0  0  0  0  0  0
   10.3139   -1.8106    1.2041 N   0  0  0  0  0  0  0  0  0  0  0  0
    8.9211   -2.1458    1.3061 C   0  0  0  0  0  0  0  0  0  0  0  0
    8.0997   -1.2336    1.6092 O   0  0  0  0  0  0  0  0  0  0  0  0
    8.4364   -3.5770    1.2039 C   0  0  1  0  0  0  0  0  0  0  0  0
    8.4446   -4.2147    2.5966 C   0  0  0  0  0  0  0  0  0  0  0  0
    7.0789   -3.6274    0.6443 N   0  0  0  0  0  0  0  0  0  0  0  0
    6.7478   -4.2078   -0.6285 C   0  0  0  0  0  0  0  0  0  0  0  0
    5.8949   -3.6226   -1.3523 O   0  0  0  0  0  0  0  0  0  0  0  0
    7.3067   -5.5267   -1.1111 C   0  0  1  0  0  0  0  0  0  0  0  0
    8.5488   -5.3394   -1.9890 C   0  0  0  0  0  0  0  0  0  0  0  0
    7.5842   -6.4383    0.0040 N   0  0  0  0  0  0  0  0  0  0  0  0
    6.6086   -7.2906    0.6345 C   0  0  0  0  0  0  0  0  0  0  0  0
    6.9855   -8.0199    1.5952 O   0  0  0  0  0  0  0  0  0  0  0  0
    5.1819   -7.4099    0.1355 C   0  0  1  0  0  0  0  0  0  0  0  0
    5.1115   -8.4453   -0.9925 C   0  0  0  0  0  0  0  0  0  0  0  0
    4.2892   -7.8181    1.2206 N   0  0  0  0  0  0  0  0  0  0  0  0
    3.1343   -7.0511    1.5816 C   0  0  0  0  0  0  0  0  0  0  0  0
    3.1281   -6.4311    2.6798 O   0  0  0  0  0  0  0  0  0  0  0  0
   -4.2774    2.7035   -1.8539 C   0  0  0  0  0  0  0  0  0  0  0  0
   -4.4277    1.8382   -2.7647 O   0  0  0  0  0  0  0  0  0  0  0  0
   -5.3561    3.6432   -1.6448 N   0  0  0  0  0  0  0  0  0  0  0  0
   -5.3407    4.8831   -0.8464 C   0  0  2  0  0  0  0  0  0  0  0  0
   -5.6614    4.6354    0.6395 C   0  0  0  0  0  0  0  0  0  0  0  0
   -6.2789    5.9170   -1.4544 C   0  0  0  0  0  0  0  0  0  0  0  0
   -5.7711    6.9672   -1.9278 O   0  0  0  0  0  0  0  0  0  0  0  0
   -7.7118    5.7686   -1.5024 N   0  0  0  0  0  0  0  0  0  0  0  0
   -8.4825    4.5644   -1.1667 C   0  0  2  0  0  0  0  0  0  0  0  0
   -9.1321    4.0200   -2.4435 C   0  0  0  0  0  0  0  0  0  0  0  0
   -9.4802    4.9021   -0.0854 C   0  0  0  0  0  0  0  0  0  0  0  0
   -9.0575    5.2160    1.0584 O   0  0  0  0  0  0  0  0  0  0  0  0
  -10.8890    4.9384   -0.3363 N   0  0  0  0  0  0  0  0  0  0  0  0
  -11.7295    3.7454   -0.1898 C   0  0  2  0  0  0  0  0  0  0  0  0
  -13.1984    4.0978   -0.4505 C   0  0  0  0  0  0  0  0  0  0  0  0
  -11.5609    3.1614    1.2004 C   0  0  0  0  0  0  0  0  0  0  0  0
  -11.9291    3.8512    2.1892 O   0  0  0  0  0  0  0  0  0  0  0  0
  -10.9713    1.8717    1.4493 N   0  0  0  0  0  0  0  0  0  0  0  0
  -10.6854    0.8595    0.4229 C   0  0  2  0  0  0  0  0  0  0  0  0
  -11.9941    0.2822   -0.1244 C   0  0  0  0  0  0  0  0  0  0  0  0
   -9.7936   -0.2222    0.9908 C   0  0  0  0  0  0  0  0  0  0  0  0
   -8.5610   -0.0015    1.1229 O   0  0  0  0  0  0  0  0  0  0  0  0
  -10.3331   -1.4622    1.4624 N   0  0  0  0  0  0  0  0  0  0  0  0
  -10.3640   -2.6457    0.5945 C   0  0  2  0  0  0  0  0  0  0  0  0
  -11.7444   -3.2980    0.6773 C   0  0  0  0  0  0  0  0  0  0  0  0
   -9.3050   -3.6497    0.9960 C   0  0  0  0  0  0  0  0  0  0  0  0
   -8.7485   -3.5448    2.1216 O   0  0  0  0  0  0  0  0  0  0  0  0
   -8.9692   -4.7701    0.1569 N   0  0  0  0  0  0  0  0  0  0  0  0
   -8.9940   -4.7015   -1.3116 C   0  0  2  0  0  0  0  0  0  0  0  0
   -9.0694   -6.0742   -1.9340 C   0  0  0  0  0  0  0  0  0  0  0  0
   -9.8463   -6.2811   -3.1116 N   0  0  0  0  0  0  0  0  0  0  0  0
   -8.3813   -7.0227   -1.4682 O   0  0  0  0  0  0  0  0  0  0  0  0
   -7.7918   -3.9004   -1.8474 C   0  0  0  0  0  0  0  0  0  0  0  0
   -6.1913   -4.8056   -1.7551 S   0  0  0  0  0  0  0  0  0  0  0  0
   -5.7962   -4.4869    0.0061 C   0  0  0  0  0  0  0  0  0  0  0  0
    2.2342  -11.1306   -0.2669 H   0  0  0  0  0  0  0  0  0  0  0  0
    0.4393  -10.8910   -0.3498 H   0  0  0  0  0  0  0  0  0  0  0  0
    1.1830  -11.6973    1.0907 H   0  0  0  0  0  0  0  0  0  0  0  0
    1.6535   -8.5132   -0.8816 H   0  0  0  0  0  0  0  0  0  0  0  0
    2.1357   -6.3713   -0.1694 H   0  0  0  0  0  0  0  0  0  0  0  0
    0.8047   -5.4173    1.6589 H   0  0  0  0  0  0  0  0  0  0  0  0
    0.4998   -7.0403    2.3493 H   0  0  0  0  0  0  0  0  0  0  0  0
    0.1474   -4.5918   -0.3986 H   0  0  0  0  0  0  0  0  0  0  0  0
   -0.9165   -5.3547   -1.6036 H   0  0  0  0  0  0  0  0  0  0  0  0
   -3.4651   -5.7709   -0.5402 H   0  0  0  0  0  0  0  0  0  0  0  0
   -5.0392   -2.0132    0.7687 H   0  0  0  0  0  0  0  0  0  0  0  0
   -0.7879   -2.5028    0.2583 H   0  0  0  0  0  0  0  0  0  0  0  0
   -1.7412   -0.2591    0.3267 H   0  0  0  0  0  0  0  0  0  0  0  0
   -2.5186   -0.5039    1.9408 H   0  0  0  0  0  0  0  0  0  0  0  0
   -3.8282    2.7470    0.9816 H   0  0  0  0  0  0  0  0  0  0  0  0
   -2.2488    1.9609    0.9129 H   0  0  0  0  0  0  0  0  0  0  0  0
   -2.3047    1.9235   -1.5564 H   0  0  0  0  0  0  0  0  0  0  0  0
   -2.4553    4.5956   -1.8096 H   0  0  0  0  0  0  0  0  0  0  0  0
   -2.2374    5.8016    0.7610 H   0  0  0  0  0  0  0  0  0  0  0  0
   -1.6714    4.0398    2.4957 H   0  0  0  0  0  0  0  0  0  0  0  0
    0.0840    4.4525    2.3050 H   0  0  0  0  0  0  0  0  0  0  0  0
   -1.0708    5.6831    2.9390 H   0  0  0  0  0  0  0  0  0  0  0  0
    0.5930    6.0298   -0.1641 H   0  0  0  0  0  0  0  0  0  0  0  0
    1.5776    8.6428    0.3849 H   0  0  0  0  0  0  0  0  0  0  0  0
    0.8722    8.9558    3.3728 H   0  0  0  0  0  0  0  0  0  0  0  0
    2.1136    9.8708    2.4406 H   0  0  0  0  0  0  0  0  0  0  0  0
    0.3725   10.1086    2.0751 H   0  0  0  0  0  0  0  0  0  0  0  0
    1.8325    6.6973    2.7277 H   0  0  0  0  0  0  0  0  0  0  0  0
    3.3697    7.6905   -0.7445 H   0  0  0  0  0  0  0  0  0  0  0  0
    3.8872    9.2840    1.0098 H   0  0  0  0  0  0  0  0  0  0  0  0
    5.4146    8.9538    0.1422 H   0  0  0  0  0  0  0  0  0  0  0  0
    5.1197    8.1887    1.7464 H   0  0  0  0  0  0  0  0  0  0  0  0
    5.0017    6.2958   -1.5279 H   0  0  0  0  0  0  0  0  0  0  0  0
    7.3328    4.5139   -0.8379 H   0  0  0  0  0  0  0  0  0  0  0  0
    7.0601    6.3734   -2.4052 H   0  0  0  0  0  0  0  0  0  0  0  0
    7.6786    7.5696   -1.1989 H   0  0  0  0  0  0  0  0  0  0  0  0
    8.7784    6.3630   -1.9532 H   0  0  0  0  0  0  0  0  0  0  0  0
    8.4882    6.2563    1.3375 H   0  0  0  0  0  0  0  0  0  0  0  0
    9.3908    3.9524   -1.4687 H   0  0  0  0  0  0  0  0  0  0  0  0
   11.7130    4.3154   -2.2392 H   0  0  0  0  0  0  0  0  0  0  0  0
   12.1851    4.9326   -0.6085 H   0  0  0  0  0  0  0  0  0  0  0  0
   10.9961    5.8446   -1.6124 H   0  0  0  0  0  0  0  0  0  0  0  0
   11.6498    2.5404   -0.0708 H   0  0  0  0  0  0  0  0  0  0  0  0
    9.6653   -0.5801   -0.9745 H   0  0  0  0  0  0  0  0  0  0  0  0
   11.0296    1.2583   -3.0265 H   0  0  0  0  0  0  0  0  0  0  0  0
   10.7442   -0.5147   -3.1989 H   0  0  0  0  0  0  0  0  0  0  0  0
    9.3408    0.6112   -3.1006 H   0  0  0  0  0  0  0  0  0  0  0  0
   12.4660    0.6439   -0.9509 H   0  0  0  0  0  0  0  0  0  0  0  0
   10.6409   -2.8254   -0.6310 H   0  0  0  0  0  0  0  0  0  0  0  0
   11.3179   -4.3743    1.1900 H   0  0  0  0  0  0  0  0  0  0  0  0
   12.5337   -3.1861    1.7882 H   0  0  0  0  0  0  0  0  0  0  0  0
   12.7429   -3.9929    0.1790 H   0  0  0  0  0  0  0  0  0  0  0  0
   10.6515   -0.9799    1.7517 H   0  0  0  0  0  0  0  0  0  0  0  0
    9.1288   -4.1443    0.5681 H   0  0  0  0  0  0  0  0  0  0  0  0
    7.8113   -3.6293    3.2977 H   0  0  0  0  0  0  0  0  0  0  0  0
    8.0599   -5.2533    2.5496 H   0  0  0  0  0  0  0  0  0  0  0  0
    9.4811   -4.2449    2.9953 H   0  0  0  0  0  0  0  0  0  0  0  0
    6.3318   -3.0724    1.1205 H   0  0  0  0  0  0  0  0  0  0  0  0
    6.5480   -5.9890   -1.7748 H   0  0  0  0  0  0  0  0  0  0  0  0
    8.8237   -6.3064   -2.4590 H   0  0  0  0  0  0  0  0  0  0  0  0
    8.3428   -4.6057   -2.7939 H   0  0  0  0  0  0  0  0  0  0  0  0
    9.4242   -4.9939   -1.4075 H   0  0  0  0  0  0  0  0  0  0  0  0
    8.5510   -6.4435    0.4102 H   0  0  0  0  0  0  0  0  0  0  0  0
    4.8439   -6.4306   -0.2647 H   0  0  0  0  0  0  0  0  0  0  0  0
    5.4047   -9.4497   -0.6210 H   0  0  0  0  0  0  0  0  0  0  0  0
    4.0823   -8.4948   -1.3939 H   0  0  0  0  0  0  0  0  0  0  0  0
    5.7916   -8.1637   -1.8227 H   0  0  0  0  0  0  0  0  0  0  0  0
    4.5268   -8.6466    1.8104 H   0  0  0  0  0  0  0  0  0  0  0  0
   -6.1589    3.5173   -2.2998 H   0  0  0  0  0  0  0  0  0  0  0  0
   -4.3365    5.3394   -0.8975 H   0  0  0  0  0  0  0  0  0  0  0  0
   -6.0745    3.6181    0.8015 H   0  0  0  0  0  0  0  0  0  0  0  0
   -6.3876    5.3785    1.0328 H   0  0  0  0  0  0  0  0  0  0  0  0
   -4.7402    4.7552    1.2452 H   0  0  0  0  0  0  0  0  0  0  0  0
   -8.2538    6.5792   -1.8885 H   0  0  0  0  0  0  0  0  0  0  0  0
   -7.8318    3.7683   -0.7642 H   0  0  0  0  0  0  0  0  0  0  0  0
   -9.5623    3.0155   -2.2617 H   0  0  0  0  0  0  0  0  0  0  0  0
   -8.3677    3.9169   -3.2406 H   0  0  0  0  0  0  0  0  0  0  0  0
   -9.9253    4.7061   -2.8144 H   0  0  0  0  0  0  0  0  0  0  0  0
  -11.3293    5.8761   -0.4693 H   0  0  0  0  0  0  0  0  0  0  0  0
  -11.4351    3.0214   -0.9667 H   0  0  0  0  0  0  0  0  0  0  0  0
  -13.3162    4.4631   -1.4917 H   0  0  0  0  0  0  0  0  0  0  0  0
  -13.5425    4.8890    0.2443 H   0  0  0  0  0  0  0  0  0  0  0  0
  -13.8431    3.2035   -0.3235 H   0  0  0  0  0  0  0  0  0  0  0  0
  -10.7429    1.6398    2.4428 H   0  0  0  0  0  0  0  0  0  0  0  0
  -10.1219    1.3246   -0.4134 H   0  0  0  0  0  0  0  0  0  0  0  0
  -12.6047   -0.1552    0.6985 H   0  0  0  0  0  0  0  0  0  0  0  0
  -11.7839   -0.4942   -0.8859 H   0  0  0  0  0  0  0  0  0  0  0  0
  -12.6027    1.0685   -0.6098 H   0  0  0  0  0  0  0  0  0  0  0  0
  -10.5297   -1.5670    2.4808 H   0  0  0  0  0  0  0  0  0  0  0  0
  -10.1888   -2.3197   -0.4530 H   0  0  0  0  0  0  0  0  0  0  0  0
  -11.8143   -4.1583   -0.0286 H   0  0  0  0  0  0  0  0  0  0  0  0
  -11.9398   -3.6689    1.7074 H   0  0  0  0  0  0  0  0  0  0  0  0
  -12.5382   -2.5718    0.4072 H   0  0  0  0  0  0  0  0  0  0  0  0
   -8.5489   -5.6026    0.6228 H   0  0  0  0  0  0  0  0  0  0  0  0
   -9.9170   -4.1756   -1.6240 H   0  0  0  0  0  0  0  0  0  0  0  0
   -9.8115   -7.1938   -3.6081 H   0  0  0  0  0  0  0  0  0  0  0  0
  -10.3937   -5.5017   -3.5423 H   0  0  0  0  0  0  0  0  0  0  0  0
   -7.9730   -3.6826   -2.9209 H   0  0  0  0  0  0  0  0  0  0  0  0
   -7.7058   -2.9166   -1.3385 H   0  0  0  0  0  0  0  0  0  0  0  0
   -5.8814   -5.4418    0.5665 H   0  0  0  0  0  0  0  0  0  0  0  0
   -6.5098   -3.7713    0.4477 H   0  0  0  0  0  0  0  0  0  0  0  0
  1  2  1  0
  2  3  2  0
  2  4  1  0
  4  5  1  0
  5  6  1  0
  6  7  1  0
  7  8  1  0
  8  9  1  0
  9 10  2  0
 10 11  1  0
 11 12  2  0
 12 13  1  0
 13 14  2  0
 13 15  1  0
 15 16  1  0
 16 17  1  0
 17 18  1  0
 18 19  1  0
 19 20  1  0
 20 21  2  0
 20 22  1  0
 22 23  1  0
 22 24  1  0
 24 25  1  0
 25 26  2  0
 25 27  1  0
 27 28  1  0
 27 29  1  0
 29 30  1  0
 30 31  2  0
 30 32  1  0
 32 33  1  0
 32 34  1  0
 34 35  1  0
 35 36  2  0
 35 37  1  0
 37 38  1  0
 37 39  1  0
 39 40  1  0
 40 41  2  0
 40 42  1  0
 42 43  1  0
 42 44  1  0
 44 45  1  0
 45 46  2  0
 45 47  1  0
 47 48  1  0
 47 49  1  0
 49 50  1  0
 50 51  2  0
 50 52  1  0
 52 53  1  0
 52 54  1  0
 54 55  1  0
 55 56  2  0
 55 57  1  0
 57 58  1  0
 57 59  1  0
 59 60  1  0
 60 61  2  0
 60 62  1  0
 62 63  1  0
 62 64  1  0
 64 65  1  0
 65 66  2  0
 65 67  1  0
 67 68  1  0
 67 69  1  0
 69 70  1  0
 70 71  2  0
 18 72  1  0
 72 73  2  0
 72 74  1  0
 74 75  1  0
 75 76  1  0
 75 77  1  0
 77 78  2  0
 77 79  1  0
 79 80  1  0
 80 81  1  0
 80 82  1  0
 82 83  2  0
 82 84  1  0
 84 85  1  0
 85 86  1  0
 85 87  1  0
 87 88  2  0
 87 89  1  0
 89 90  1  0
 90 91  1  0
 90 92  1  0
 92 93  2  0
 92 94  1  0
 94 95  1  0
 95 96  1  0
 95 97  1  0
 97 98  2  0
 97 99  1  0
 99100  1  0
100101  1  0
101102  1  0
101103  2  0
100104  1  0
104105  1  0
105106  1  0
 70  5  1  0
 14  9  1  0
106 11  1  0
  1107  1  0
  1108  1  0
  1109  1  0
  4110  1  0
  5111  1  6
  6112  1  0
  6113  1  0
  8114  1  0
  8115  1  0
 10116  1  0
 12117  1  0
 14118  1  0
 15119  1  0
 15120  1  0
 17121  1  0
 17122  1  0
 18123  1  6
 19124  1  0
 22125  1  1
 23126  1  0
 23127  1  0
 23128  1  0
 24129  1  0
 27130  1  6
 28131  1  0
 28132  1  0
 28133  1  0
 29134  1  0
 32135  1  6
 33136  1  0
 33137  1  0
 33138  1  0
 34139  1  0
 37140  1  6
 38141  1  0
 38142  1  0
 38143  1  0
 39144  1  0
 42145  1  6
 43146  1  0
 43147  1  0
 43148  1  0
 44149  1  0
 47150  1  6
 48151  1  0
 48152  1  0
 48153  1  0
 49154  1  0
 52155  1  6
 53156  1  0
 53157  1  0
 53158  1  0
 54159  1  0
 57160  1  6
 58161  1  0
 58162  1  0
 58163  1  0
 59164  1  0
 62165  1  6
 63166  1  0
 63167  1  0
 63168  1  0
 64169  1  0
 67170  1  6
 68171  1  0
 68172  1  0
 68173  1  0
 69174  1  0
 74175  1  0
 75176  1  1
 76177  1  0
 76178  1  0
 76179  1  0
 79180  1  0
 80181  1  1
 81182  1  0
 81183  1  0
 81184  1  0
 84185  1  0
 85186  1  6
 86187  1  0
 86188  1  0
 86189  1  0
 89190  1  0
 90191  1  6
 91192  1  0
 91193  1  0
 91194  1  0
 94195  1  0
 95196  1  6
 96197  1  0
 96198  1  0
 96199  1  0
 99200  1  0
100201  1  1
102202  1  0
102203  1  0
104204  1  0
104205  1  0
106206  1  0
106207  1  0
M  END
