
     RDKit          3D

197199  0  0  0  0  0  0  0  0999 V2000
   -0.6967   10.3866    0.1944 C   0  0  0  0  0  0  0  0  0  0  0  0
   -0.2098    9.8301    1.5000 C   0  0  0  0  0  0  0  0  0  0  0  0
   -0.0502   10.6162    2.4755 O   0  0  0  0  0  0  0  0  0  0  0  0
    0.0796    8.4337    1.6740 N   0  0  0  0  0  0  0  0  0  0  0  0
   -0.3304    7.4004    0.7137 C   0  0  2  0  0  0  0  0  0  0  0  0
   -0.2605    5.9910    1.3309 C   0  0  0  0  0  0  0  0  0  0  0  0
   -1.2024    4.7916    0.3203 S   0  0  0  0  0  0  0  0  0  0  0  0
   -2.7707    4.8919    1.2511 C   0  0  0  0  0  0  0  0  0  0  0  0
   -3.7119    3.8697    0.6931 C   0  0  0  0  0  0  0  0  0  0  0  0
   -4.4020    4.1262   -0.5017 C   0  0  0  0  0  0  0  0  0  0  0  0
   -5.1018    3.1046   -1.1576 C   0  0  0  0  0  0  0  0  0  0  0  0
   -5.1593    1.8223   -0.5771 C   0  0  0  0  0  0  0  0  0  0  0  0
   -4.5332    1.5787    0.6559 C   0  0  0  0  0  0  0  0  0  0  0  0
   -3.7924    2.5977    1.2756 C   0  0  0  0  0  0  0  0  0  0  0  0
   -4.5824    0.2129    1.2868 C   0  0  0  0  0  0  0  0  0  0  0  0
   -2.9232   -0.5598    1.1926 S   0  0  0  0  0  0  0  0  0  0  0  0
   -3.2090   -1.6594   -0.2464 C   0  0  0  0  0  0  0  0  0  0  0  0
   -2.9926   -3.1233    0.1718 C   0  0  2  0  0  0  0  0  0  0  0  0
   -3.0794   -4.0171   -0.9870 N   0  0  0  0  0  0  0  0  0  0  0  0
   -2.7460   -5.4188   -0.9684 C   0  0  0  0  0  0  0  0  0  0  0  0
   -3.0371   -6.1156   -1.9809 O   0  0  0  0  0  0  0  0  0  0  0  0
   -2.1159   -6.1072    0.2302 C   0  0  1  0  0  0  0  0  0  0  0  0
   -3.1572   -6.9497    0.9765 C   0  0  0  0  0  0  0  0  0  0  0  0
   -1.0089   -6.9688   -0.1977 N   0  0  0  0  0  0  0  0  0  0  0  0
    0.0315   -7.3914    0.7022 C   0  0  0  0  0  0  0  0  0  0  0  0
    0.1644   -6.8262    1.8221 O   0  0  0  0  0  0  0  0  0  0  0  0
    0.9588   -8.5180    0.3342 C   0  0  1  0  0  0  0  0  0  0  0  0
    0.1739   -9.8115    0.1029 C   0  0  0  0  0  0  0  0  0  0  0  0
    1.7220   -8.1707   -0.8716 N   0  0  0  0  0  0  0  0  0  0  0  0
    3.1586   -8.1214   -0.9590 C   0  0  0  0  0  0  0  0  0  0  0  0
    3.7018   -8.2739   -2.0880 O   0  0  0  0  0  0  0  0  0  0  0  0
    4.0457   -7.9174    0.2551 C   0  0  1  0  0  0  0  0  0  0  0  0
    4.4873   -9.2921    0.7840 C   0  0  0  0  0  0  0  0  0  0  0  0
    5.1783   -7.0442   -0.1103 N   0  0  0  0  0  0  0  0  0  0  0  0
    6.5532   -7.2649    0.2463 C   0  0  0  0  0  0  0  0  0  0  0  0
    6.8529   -7.6522    1.4084 O   0  0  0  0  0  0  0  0  0  0  0  0
    7.6576   -6.9901   -0.7424 C   0  0  1  0  0  0  0  0  0  0  0  0
    7.3430   -7.6335   -2.0941 C   0  0  0  0  0  0  0  0  0  0  0  0
    7.8559   -5.5488   -0.8955 N   0  0  0  0  0  0  0  0  0  0  0  0
    9.1553   -5.0103   -1.1557 C   0  0  0  0  0  0  0  0  0  0  0  0
    9.6598   -5.1266   -2.3091 O   0  0  0  0  0  0  0  0  0  0  0  0
    9.9235   -4.3475   -0.0475 C   0  0  1  0  0  0  0  0  0  0  0  0
   10.8295   -5.3598    0.6576 C   0  0  0  0  0  0  0  0  0  0  0  0
   10.7294   -3.2386   -0.5671 N   0  0  0  0  0  0  0  0  0  0  0  0
   10.3481   -1.8758   -0.3458 C   0  0  0  0  0  0  0  0  0  0  0  0
    9.2274   -1.4686   -0.7648 O   0  0  0  0  0  0  0  0  0  0  0  0
   11.2984   -0.9053    0.3027 C   0  0  1  0  0  0  0  0  0  0  0  0
   12.1669   -1.6008    1.3590 C   0  0  0  0  0  0  0  0  0  0  0  0
   12.1590   -0.2869   -0.7105 N   0  0  0  0  0  0  0  0  0  0  0  0
   12.4428    1.1228   -0.8109 C   0  0  0  0  0  0  0  0  0  0  0  0
   13.4991    1.4741   -1.4081 O   0  0  0  0  0  0  0  0  0  0  0  0
   11.5633    2.1849   -0.1695 C   0  0  1  0  0  0  0  0  0  0  0  0
   12.0427    2.4334    1.2641 C   0  0  0  0  0  0  0  0  0  0  0  0
   11.6032    3.4419   -0.9389 N   0  0  0  0  0  0  0  0  0  0  0  0
   10.7736    4.5966   -0.7059 C   0  0  0  0  0  0  0  0  0  0  0  0
   11.1991    5.7211   -1.0904 O   0  0  0  0  0  0  0  0  0  0  0  0
    9.4039    4.5252   -0.0531 C   0  0  1  0  0  0  0  0  0  0  0  0
    9.4434    5.2751    1.2875 C   0  0  0  0  0  0  0  0  0  0  0  0
    8.3998    5.1419   -0.9373 N   0  0  0  0  0  0  0  0  0  0  0  0
    7.0116    5.2572   -0.5746 C   0  0  0  0  0  0  0  0  0  0  0  0
    6.4842    4.4083    0.1924 O   0  0  0  0  0  0  0  0  0  0  0  0
    6.1968    6.4056   -1.1207 C   0  0  1  0  0  0  0  0  0  0  0  0
    5.4622    6.0220   -2.4111 C   0  0  0  0  0  0  0  0  0  0  0  0
    5.3013    6.9646   -0.0954 N   0  0  0  0  0  0  0  0  0  0  0  0
    3.9304    6.5612    0.1194 C   0  0  0  0  0  0  0  0  0  0  0  0
    3.6190    5.3468   -0.0137 O   0  0  0  0  0  0  0  0  0  0  0  0
    2.8406    7.5514    0.4823 C   0  0  1  0  0  0  0  0  0  0  0  0
    3.3762    8.9512    0.8120 C   0  0  0  0  0  0  0  0  0  0  0  0
    1.8970    7.6499   -0.6378 N   0  0  0  0  0  0  0  0  0  0  0  0
    0.4663    7.4890   -0.5747 C   0  0  0  0  0  0  0  0  0  0  0  0
   -0.1773    7.4336   -1.6608 O   0  0  0  0  0  0  0  0  0  0  0  0
   -3.9914   -3.5081    1.2383 C   0  0  0  0  0  0  0  0  0  0  0  0
   -3.5763   -3.7789    2.3974 O   0  0  0  0  0  0  0  0  0  0  0  0
   -5.4048   -3.4335    1.0034 N   0  0  0  0  0  0  0  0  0  0  0  0
   -6.1028   -4.2613    0.0166 C   0  0  2  0  0  0  0  0  0  0  0  0
   -6.6035   -3.4263   -1.1694 C   0  0  0  0  0  0  0  0  0  0  0  0
   -7.2009   -5.0722    0.6758 C   0  0  0  0  0  0  0  0  0  0  0  0
   -7.1866   -6.3227    0.5184 O   0  0  0  0  0  0  0  0  0  0  0  0
   -8.2162   -4.5045    1.5291 N   0  0  0  0  0  0  0  0  0  0  0  0
   -8.7620   -3.1467    1.4313 C   0  0  2  0  0  0  0  0  0  0  0  0
   -9.0735   -2.6224    2.8395 C   0  0  0  0  0  0  0  0  0  0  0  0
   -9.9802   -3.1412    0.5387 C   0  0  0  0  0  0  0  0  0  0  0  0
  -10.0188   -3.8844   -0.4816 O   0  0  0  0  0  0  0  0  0  0  0  0
  -11.0910   -2.2964    0.8410 N   0  0  0  0  0  0  0  0  0  0  0  0
  -11.4503   -1.1191    0.0399 C   0  0  2  0  0  0  0  0  0  0  0  0
  -12.2835   -1.5349   -1.1738 C   0  0  0  0  0  0  0  0  0  0  0  0
  -10.2256   -0.3312   -0.3734 C   0  0  0  0  0  0  0  0  0  0  0  0
   -9.4209   -0.8230   -1.2147 O   0  0  0  0  0  0  0  0  0  0  0  0
   -9.9060    0.9341    0.2330 N   0  0  0  0  0  0  0  0  0  0  0  0
  -10.6531    2.1820    0.0209 C   0  0  2  0  0  0  0  0  0  0  0  0
  -11.9983    2.1852    0.7523 C   0  0  0  0  0  0  0  0  0  0  0  0
  -10.8391    2.4773   -1.4525 C   0  0  0  0  0  0  0  0  0  0  0  0
  -11.5093    1.6671   -2.1445 O   0  0  0  0  0  0  0  0  0  0  0  0
  -10.3573    3.6842   -2.0856 N   0  0  0  0  0  0  0  0  0  0  0  0
   -9.4109    4.6683   -1.5506 C   0  0  1  0  0  0  0  0  0  0  0  0
   -9.9963    5.4229   -0.3799 C   0  0  0  0  0  0  0  0  0  0  0  0
  -11.3004    6.0030   -0.4811 N   0  0  0  0  0  0  0  0  0  0  0  0
   -9.3288    5.5992    0.6748 O   0  0  0  0  0  0  0  0  0  0  0  0
   -8.0293    4.0446   -1.2472 C   0  0  0  0  0  0  0  0  0  0  0  0
   -7.4778    2.9388   -2.5992 S   0  0  0  0  0  0  0  0  0  0  0  0
   -5.6998    3.3548   -2.5164 C   0  0  0  0  0  0  0  0  0  0  0  0
   -1.6574    9.9136   -0.0944 H   0  0  0  0  0  0  0  0  0  0  0  0
    0.0585   10.2084   -0.5956 H   0  0  0  0  0  0  0  0  0  0  0  0
   -0.8552   11.4823    0.2734 H   0  0  0  0  0  0  0  0  0  0  0  0
    0.4717    8.1412    2.5988 H   0  0  0  0  0  0  0  0  0  0  0  0
   -1.4035    7.5797    0.4812 H   0  0  0  0  0  0  0  0  0  0  0  0
   -0.6423    6.0082    2.3725 H   0  0  0  0  0  0  0  0  0  0  0  0
    0.7845    5.6304    1.3716 H   0  0  0  0  0  0  0  0  0  0  0  0
   -2.5761    4.6904    2.3247 H   0  0  0  0  0  0  0  0  0  0  0  0
   -3.2114    5.9082    1.1675 H   0  0  0  0  0  0  0  0  0  0  0  0
   -4.3492    5.1251   -0.9346 H   0  0  0  0  0  0  0  0  0  0  0  0
   -5.6756    1.0203   -1.0927 H   0  0  0  0  0  0  0  0  0  0  0  0
   -3.2392    2.3791    2.1818 H   0  0  0  0  0  0  0  0  0  0  0  0
   -4.8424    0.3244    2.3574 H   0  0  0  0  0  0  0  0  0  0  0  0
   -5.3765   -0.4190    0.8317 H   0  0  0  0  0  0  0  0  0  0  0  0
   -4.2149   -1.5189   -0.6952 H   0  0  0  0  0  0  0  0  0  0  0  0
   -2.4643   -1.3862   -1.0271 H   0  0  0  0  0  0  0  0  0  0  0  0
   -1.9628   -3.1762    0.5876 H   0  0  0  0  0  0  0  0  0  0  0  0
   -3.4031   -3.6249   -1.9008 H   0  0  0  0  0  0  0  0  0  0  0  0
   -1.7216   -5.3443    0.9326 H   0  0  0  0  0  0  0  0  0  0  0  0
   -4.0163   -6.3242    1.2977 H   0  0  0  0  0  0  0  0  0  0  0  0
   -2.6996   -7.4002    1.8853 H   0  0  0  0  0  0  0  0  0  0  0  0
   -3.5334   -7.7752    0.3272 H   0  0  0  0  0  0  0  0  0  0  0  0
   -1.0396   -7.3998   -1.1487 H   0  0  0  0  0  0  0  0  0  0  0  0
    1.6410   -8.7103    1.1874 H   0  0  0  0  0  0  0  0  0  0  0  0
    0.8831  -10.6550   -0.0593 H   0  0  0  0  0  0  0  0  0  0  0  0
   -0.4538  -10.0462    0.9845 H   0  0  0  0  0  0  0  0  0  0  0  0
   -0.4739   -9.7317   -0.7917 H   0  0  0  0  0  0  0  0  0  0  0  0
    1.1949   -8.0681   -1.7687 H   0  0  0  0  0  0  0  0  0  0  0  0
    3.4651   -7.3933    1.0414 H   0  0  0  0  0  0  0  0  0  0  0  0
    5.2280   -9.7560    0.0920 H   0  0  0  0  0  0  0  0  0  0  0  0
    3.6199   -9.9816    0.8825 H   0  0  0  0  0  0  0  0  0  0  0  0
    4.9374   -9.1888    1.7879 H   0  0  0  0  0  0  0  0  0  0  0  0
    4.9674   -6.2048   -0.6944 H   0  0  0  0  0  0  0  0  0  0  0  0
    8.5979   -7.4534   -0.3661 H   0  0  0  0  0  0  0  0  0  0  0  0
    8.2094   -7.5242   -2.7860 H   0  0  0  0  0  0  0  0  0  0  0  0
    7.1417   -8.7226   -1.9625 H   0  0  0  0  0  0  0  0  0  0  0  0
    6.4496   -7.1619   -2.5623 H   0  0  0  0  0  0  0  0  0  0  0  0
    7.0335   -4.9292   -1.0660 H   0  0  0  0  0  0  0  0  0  0  0  0
    9.1927   -3.9587    0.6995 H   0  0  0  0  0  0  0  0  0  0  0  0
   10.2193   -6.1479    1.1517 H   0  0  0  0  0  0  0  0  0  0  0  0
   11.5223   -5.8398   -0.0703 H   0  0  0  0  0  0  0  0  0  0  0  0
   11.4355   -4.8445    1.4385 H   0  0  0  0  0  0  0  0  0  0  0  0
   11.6552   -3.4388   -1.0201 H   0  0  0  0  0  0  0  0  0  0  0  0
   10.6875   -0.1491    0.8396 H   0  0  0  0  0  0  0  0  0  0  0  0
   12.8600   -2.3336    0.8890 H   0  0  0  0  0  0  0  0  0  0  0  0
   12.7808   -0.8529    1.9074 H   0  0  0  0  0  0  0  0  0  0  0  0
   11.5291   -2.1320    2.0985 H   0  0  0  0  0  0  0  0  0  0  0  0
   12.7418   -0.9290   -1.2942 H   0  0  0  0  0  0  0  0  0  0  0  0
   10.5200    1.8055   -0.1666 H   0  0  0  0  0  0  0  0  0  0  0  0
   12.9711    3.0464    1.2611 H   0  0  0  0  0  0  0  0  0  0  0  0
   12.2609    1.4815    1.7877 H   0  0  0  0  0  0  0  0  0  0  0  0
   11.2568    2.9464    1.8472 H   0  0  0  0  0  0  0  0  0  0  0  0
   12.4215    3.6108   -1.5707 H   0  0  0  0  0  0  0  0  0  0  0  0
    9.1149    3.4722    0.1233 H   0  0  0  0  0  0  0  0  0  0  0  0
    8.5272    5.0607    1.8709 H   0  0  0  0  0  0  0  0  0  0  0  0
   10.3206    4.9686    1.8930 H   0  0  0  0  0  0  0  0  0  0  0  0
    9.5122    6.3697    1.1143 H   0  0  0  0  0  0  0  0  0  0  0  0
    8.7160    5.6985   -1.7656 H   0  0  0  0  0  0  0  0  0  0  0  0
    6.9102    7.2162   -1.3970 H   0  0  0  0  0  0  0  0  0  0  0  0
    4.7880    5.1531   -2.2506 H   0  0  0  0  0  0  0  0  0  0  0  0
    6.1968    5.7636   -3.2052 H   0  0  0  0  0  0  0  0  0  0  0  0
    4.8605    6.8902   -2.7649 H   0  0  0  0  0  0  0  0  0  0  0  0
    5.6664    7.7871    0.4313 H   0  0  0  0  0  0  0  0  0  0  0  0
    2.3445    7.1797    1.3996 H   0  0  0  0  0  0  0  0  0  0  0  0
    4.0589    8.9112    1.6891 H   0  0  0  0  0  0  0  0  0  0  0  0
    3.9130    9.3815   -0.0594 H   0  0  0  0  0  0  0  0  0  0  0  0
    2.5366    9.6265    1.0715 H   0  0  0  0  0  0  0  0  0  0  0  0
    2.3023    7.8672   -1.5794 H   0  0  0  0  0  0  0  0  0  0  0  0
   -5.9603   -2.9458    1.7403 H   0  0  0  0  0  0  0  0  0  0  0  0
   -5.3867   -4.9987   -0.3999 H   0  0  0  0  0  0  0  0  0  0  0  0
   -6.9588   -2.4277   -0.8566 H   0  0  0  0  0  0  0  0  0  0  0  0
   -7.4173   -3.9556   -1.7056 H   0  0  0  0  0  0  0  0  0  0  0  0
   -5.7759   -3.2596   -1.8860 H   0  0  0  0  0  0  0  0  0  0  0  0
   -8.7759   -5.1876    2.0919 H   0  0  0  0  0  0  0  0  0  0  0  0
   -8.0278   -2.4460    1.0003 H   0  0  0  0  0  0  0  0  0  0  0  0
   -8.1633   -2.6715    3.4675 H   0  0  0  0  0  0  0  0  0  0  0  0
   -9.4079   -1.5649    2.8032 H   0  0  0  0  0  0  0  0  0  0  0  0
   -9.8651   -3.2417    3.3154 H   0  0  0  0  0  0  0  0  0  0  0  0
  -11.8554   -2.7197    1.4240 H   0  0  0  0  0  0  0  0  0  0  0  0
  -12.0869   -0.4833    0.6828 H   0  0  0  0  0  0  0  0  0  0  0  0
  -13.1366   -2.1694   -0.8468 H   0  0  0  0  0  0  0  0  0  0  0  0
  -11.6739   -2.1220   -1.8934 H   0  0  0  0  0  0  0  0  0  0  0  0
  -12.6946   -0.6414   -1.6870 H   0  0  0  0  0  0  0  0  0  0  0  0
   -8.9205    1.0336    0.5684 H   0  0  0  0  0  0  0  0  0  0  0  0
  -10.0681    2.9893    0.4902 H   0  0  0  0  0  0  0  0  0  0  0  0
  -12.7557    1.5840    0.2087 H   0  0  0  0  0  0  0  0  0  0  0  0
  -11.8791    1.7949    1.7858 H   0  0  0  0  0  0  0  0  0  0  0  0
  -12.3913    3.2236    0.8151 H   0  0  0  0  0  0  0  0  0  0  0  0
  -10.6708    3.8378   -3.0742 H   0  0  0  0  0  0  0  0  0  0  0  0
   -9.2423    5.4280   -2.3463 H   0  0  0  0  0  0  0  0  0  0  0  0
  -11.8927    5.8469   -1.3281 H   0  0  0  0  0  0  0  0  0  0  0  0
  -11.6935    6.5447    0.3189 H   0  0  0  0  0  0  0  0  0  0  0  0
   -7.3070    4.8756   -1.0957 H   0  0  0  0  0  0  0  0  0  0  0  0
   -8.0404    3.4449   -0.3174 H   0  0  0  0  0  0  0  0  0  0  0  0
   -5.1575    2.7250   -3.2579 H   0  0  0  0  0  0  0  0  0  0  0  0
   -5.5616    4.4116   -2.8264 H   0  0  0  0  0  0  0  0  0  0  0  0
  1  2  1  0
  2  3  2  0
  2  4  1  0
  4  5  1  0
  5  6  1  0
  6  7  1  0
  7  8  1  0
  8  9  1  0
  9 10  2  0
 10 11  1  0
 11 12  2  0
 12 13  1  0
 13 14  2  0
 13 15  1  0
 15 16  1  0
 16 17  1  0
 17 18  1  0
 18 19  1  0
 19 20  1  0
 20 21  2  0
 20 22  1  0
 22 23  1  0
 22 24  1  0
 24 25  1  0
 25 26  2  0
 25 27  1  0
 27 28  1  0
 27 29  1  0
 29 30  1  0
 30 31  2  0
 30 32  1  0
 32 33  1  0
 32 34  1  0
 34 35  1  0
 35 36  2  0
 35 37  1  0
 37 38  1  0
 37 39  1  0
 39 40  1  0
 40 41  2  0
 40 42  1  0
 42 43  1  0
 42 44  1  0
 44 45  1  0
 45 46  2  0
 45 47  1  0
 47 48  1  0
 47 49  1  0
 49 50  1  0
 50 51  2  0
 50 52  1  0
 52 53  1  0
 52 54  1  0
 54 55  1  0
 55 56  2  0
 55 57  1  0
 57 58  1  0
 57 59  1  0
 59 60  1  0
 60 61  2  0
 60 62  1  0
 62 63  1  0
 62 64  1  0
 64 65  1  0
 65 66  2  0
 65 67  1  0
 67 68  1  0
 67 69  1  0
 69 70  1  0
 70 71  2  0
 18 72  1  0
 72 73  2  0
 72 74  1  0
 74 75  1  0
 75 76  1  0
 75 77  1  0
 77 78  2  0
 77 79  1  0
 79 80  1  0
 80 81  1  0
 80 82  1  0
 82 83  2  0
 82 84  1  0
 84 85  1  0
 85 86  1  0
 85 87  1  0
 87 88  2  0
 87 89  1  0
 89 90  1  0
 90 91  1  0
 90 92  1  0
 92 93  2  0
 92 94  1  0
 94 95  1  0
 95 96  1  0
 96 97  1  0
 96 98  2  0
 95 99  1  0
 99100  1  0
100101  1  0
 70  5  1  0
 14  9  1  0
101 11  1  0
  1102  1  0
  1103  1  0
  1104  1  0
  4105  1  0
  5106  1  6
  6107  1  0
  6108  1  0
  8109  1  0
  8110  1  0
 10111  1  0
 12112  1  0
 14113  1  0
 15114  1  0
 15115  1  0
 17116  1  0
 17117  1  0
 18118  1  1
 19119  1  0
 22120  1  1
 23121  1  0
 23122  1  0
 23123  1  0
 24124  1  0
 27125  1  1
 28126  1  0
 28127  1  0
 28128  1  0
 29129  1  0
 32130  1  1
 33131  1  0
 33132  1  0
 33133  1  0
 34134  1  0
 37135  1  1
 38136  1  0
 38137  1  0
 38138  1  0
 39139  1  0
 42140  1  1
 43141  1  0
 43142  1  0
 43143  1  0
 44144  1  0
 47145  1  1
 48146  1  0
 48147  1  0
 48148  1  0
 49149  1  0
 52150  1  1
 53151  1  0
 53152  1  0
 53153  1  0
 54154  1  0
 57155  1  1
 58156  1  0
 58157  1  0
 58158  1  0
 59159  1  0
 62160  1  6
 63161  1  0
 63162  1  0
 63163  1  0
 64164  1  0
 67165  1  1
 68166  1  0
 68167  1  0
 68168  1  0
 69169  1  0
 74170  1  0
 75171  1  6
 76172  1  0
 76173  1  0
 76174  1  0
 79175  1  0
 80176  1  6
 81177  1  0
 81178  1  0
 81179  1  0
 84180  1  0
 85181  1  1
 86182  1  0
 86183  1  0
 86184  1  0
 89185  1  0
 90186  1  1
 91187  1  0
 91188  1  0
 91189  1  0
 94190  1  0
 95191  1  6
 97192  1  0
 97193  1  0
 99194  1  0
 99195  1  0
101196  1  0
101197  1  0
M  END
