
     RDKit          3D

197199  0  0  0  0  0  0  0  0999 V2000
   -0.0720   -8.3255   -4.2878 C   0  0  0  0  0  0  0  0  0  0  0  0
    0.2345   -8.6793   -2.8685 C   0  0  0  0  0  0  0  0  0  0  0  0
   -0.1299   -9.8068   -2.4241 O   0  0  0  0  0  0  0  0  0  0  0  0
    0.9249   -7.7521   -2.0224 N   0  0  0  0  0  0  0  0  0  0  0  0
    0.8881   -7.8459   -0.5564 C   0  0  2  0  0  0  0  0  0  0  0  0
   -0.4646   -7.3160   -0.0408 C   0  0  0  0  0  0  0  0  0  0  0  0
   -0.7898   -5.6054   -0.6207 S   0  0  0  0  0  0  0  0  0  0  0  0
   -0.3983   -4.7131    0.9333 C   0  0  0  0  0  0  0  0  0  0  0  0
   -1.6084   -3.9143    1.3317 C   0  0  0  0  0  0  0  0  0  0  0  0
   -2.6855   -4.5456    1.9730 C   0  0  0  0  0  0  0  0  0  0  0  0
   -3.8617   -3.8389    2.2539 C   0  0  0  0  0  0  0  0  0  0  0  0
   -3.9616   -2.4928    1.8701 C   0  0  0  0  0  0  0  0  0  0  0  0
   -2.8947   -1.8498    1.2221 C   0  0  0  0  0  0  0  0  0  0  0  0
   -1.7178   -2.5658    0.9659 C   0  0  0  0  0  0  0  0  0  0  0  0
   -3.0977   -0.4907    0.6085 C   0  0  0  0  0  0  0  0  0  0  0  0
   -3.7164    0.7155    1.8446 S   0  0  0  0  0  0  0  0  0  0  0  0
   -4.5882    1.7900    0.6440 C   0  0  0  0  0  0  0  0  0  0  0  0
   -3.6334    2.8161   -0.0231 C   0  0  2  0  0  0  0  0  0  0  0  0
   -3.6571    4.1072    0.6869 N   0  0  0  0  0  0  0  0  0  0  0  0
   -2.8750    5.2702    0.3570 C   0  0  0  0  0  0  0  0  0  0  0  0
   -3.1217    6.3466    0.9664 O   0  0  0  0  0  0  0  0  0  0  0  0
   -1.7215    5.2381   -0.6245 C   0  0  1  0  0  0  0  0  0  0  0  0
   -1.7721    6.4365   -1.5773 C   0  0  0  0  0  0  0  0  0  0  0  0
   -0.4387    5.1887    0.0847 N   0  0  0  0  0  0  0  0  0  0  0  0
   -0.1008    6.0756    1.1570 C   0  0  0  0  0  0  0  0  0  0  0  0
   -0.2097    5.6678    2.3434 O   0  0  0  0  0  0  0  0  0  0  0  0
    0.5143    7.4196    0.8773 C   0  0  1  0  0  0  0  0  0  0  0  0
   -0.2173    8.5280    1.6334 C   0  0  0  0  0  0  0  0  0  0  0  0
    1.9234    7.3874    1.2760 N   0  0  0  0  0  0  0  0  0  0  0  0
    2.9633    7.6452    0.3272 C   0  0  0  0  0  0  0  0  0  0  0  0
    2.9241    8.6957   -0.3725 O   0  0  0  0  0  0  0  0  0  0  0  0
    4.0995    6.6649    0.1810 C   0  0  1  0  0  0  0  0  0  0  0  0
    3.5652    5.3202   -0.3235 C   0  0  0  0  0  0  0  0  0  0  0  0
    5.1051    7.1659   -0.7643 N   0  0  0  0  0  0  0  0  0  0  0  0
    6.4928    7.4692   -0.5049 C   0  0  0  0  0  0  0  0  0  0  0  0
    7.1568    8.0200   -1.4305 O   0  0  0  0  0  0  0  0  0  0  0  0
    7.2327    7.1382    0.7784 C   0  0  1  0  0  0  0  0  0  0  0  0
    6.7819    7.9918    1.9688 C   0  0  0  0  0  0  0  0  0  0  0  0
    7.1775    5.7060    1.0823 N   0  0  0  0  0  0  0  0  0  0  0  0
    8.3732    4.9597    1.3129 C   0  0  0  0  0  0  0  0  0  0  0  0
    8.8865    4.9663    2.4660 O   0  0  0  0  0  0  0  0  0  0  0  0
    8.9739    4.1154    0.2120 C   0  0  1  0  0  0  0  0  0  0  0  0
    8.9810    4.8762   -1.1177 C   0  0  0  0  0  0  0  0  0  0  0  0
   10.3498    3.7280    0.5529 N   0  0  0  0  0  0  0  0  0  0  0  0
   10.9106    2.4201    0.3298 C   0  0  0  0  0  0  0  0  0  0  0  0
   11.8309    2.0212    1.0911 O   0  0  0  0  0  0  0  0  0  0  0  0
   10.5345    1.5843   -0.8722 C   0  0  1  0  0  0  0  0  0  0  0  0
   11.4412    1.9363   -2.0534 C   0  0  0  0  0  0  0  0  0  0  0  0
   10.6773    0.1571   -0.5690 N   0  0  0  0  0  0  0  0  0  0  0  0
    9.5613   -0.7454   -0.5295 C   0  0  0  0  0  0  0  0  0  0  0  0
    8.4090   -0.3143   -0.2523 O   0  0  0  0  0  0  0  0  0  0  0  0
    9.7480   -2.2073   -0.8519 C   0  0  1  0  0  0  0  0  0  0  0  0
   10.2911   -2.3730   -2.2729 C   0  0  0  0  0  0  0  0  0  0  0  0
   10.6540   -2.8400    0.1085 N   0  0  0  0  0  0  0  0  0  0  0  0
   10.4421   -4.1844    0.5463 C   0  0  0  0  0  0  0  0  0  0  0  0
   11.1483   -5.1082    0.0469 O   0  0  0  0  0  0  0  0  0  0  0  0
    9.4920   -4.5208    1.6728 C   0  0  1  0  0  0  0  0  0  0  0  0
    8.6476   -3.3301    2.1422 C   0  0  0  0  0  0  0  0  0  0  0  0
    8.6237   -5.6459    1.3086 N   0  0  0  0  0  0  0  0  0  0  0  0
    7.6710   -5.5772    0.2374 C   0  0  0  0  0  0  0  0  0  0  0  0
    8.0599   -5.2548   -0.9182 O   0  0  0  0  0  0  0  0  0  0  0  0
    6.2035   -5.8486    0.4555 C   0  0  1  0  0  0  0  0  0  0  0  0
    5.8900   -6.3685    1.8666 C   0  0  0  0  0  0  0  0  0  0  0  0
    5.4492   -4.6149    0.2177 N   0  0  0  0  0  0  0  0  0  0  0  0
    4.0609   -4.5764   -0.1584 C   0  0  0  0  0  0  0  0  0  0  0  0
    3.3178   -3.7080    0.3778 O   0  0  0  0  0  0  0  0  0  0  0  0
    3.4576   -5.4740   -1.2154 C   0  0  1  0  0  0  0  0  0  0  0  0
    4.3018   -5.5143   -2.4925 C   0  0  0  0  0  0  0  0  0  0  0  0
    3.2215   -6.8196   -0.6976 N   0  0  0  0  0  0  0  0  0  0  0  0
    2.0548   -7.1229    0.0720 C   0  0  0  0  0  0  0  0  0  0  0  0
    2.0624   -6.8980    1.3125 O   0  0  0  0  0  0  0  0  0  0  0  0
   -3.9824    2.9533   -1.4884 C   0  0  0  0  0  0  0  0  0  0  0  0
   -3.6122    2.0484   -2.2816 O   0  0  0  0  0  0  0  0  0  0  0  0
   -4.6689    4.0967   -2.0156 N   0  0  0  0  0  0  0  0  0  0  0  0
   -6.1101    4.3356   -1.8434 C   0  0  2  0  0  0  0  0  0  0  0  0
   -6.3887    5.1289   -0.5650 C   0  0  0  0  0  0  0  0  0  0  0  0
   -6.9031    3.0493   -1.9282 C   0  0  0  0  0  0  0  0  0  0  0  0
   -6.7720    2.2964   -2.9338 O   0  0  0  0  0  0  0  0  0  0  0  0
   -7.8477    2.7061   -0.9136 N   0  0  0  0  0  0  0  0  0  0  0  0
   -9.2970    2.6463   -1.1499 C   0  0  2  0  0  0  0  0  0  0  0  0
   -9.7406    3.5754   -2.2906 C   0  0  0  0  0  0  0  0  0  0  0  0
  -10.0070    3.0347    0.1294 C   0  0  0  0  0  0  0  0  0  0  0  0
   -9.8982    4.2275    0.5332 O   0  0  0  0  0  0  0  0  0  0  0  0
  -10.7283    2.1004    0.9563 N   0  0  0  0  0  0  0  0  0  0  0  0
  -11.4188    0.8906    0.4856 C   0  0  2  0  0  0  0  0  0  0  0  0
  -12.9036    1.2037    0.2887 C   0  0  0  0  0  0  0  0  0  0  0  0
  -11.2407   -0.2432    1.4762 C   0  0  0  0  0  0  0  0  0  0  0  0
  -10.7866    0.0078    2.6247 O   0  0  0  0  0  0  0  0  0  0  0  0
  -11.6285   -1.5968    1.1778 N   0  0  0  0  0  0  0  0  0  0  0  0
  -11.7324   -2.1732   -0.1714 C   0  0  2  0  0  0  0  0  0  0  0  0
  -13.0182   -3.0027   -0.2469 C   0  0  0  0  0  0  0  0  0  0  0  0
  -10.5199   -3.0299   -0.4900 C   0  0  0  0  0  0  0  0  0  0  0  0
  -10.5542   -3.7950   -1.4914 O   0  0  0  0  0  0  0  0  0  0  0  0
   -9.3480   -3.0105    0.3476 N   0  0  0  0  0  0  0  0  0  0  0  0
   -8.4346   -4.1567    0.4239 C   0  0  2  0  0  0  0  0  0  0  0  0
   -9.1774   -5.3425    0.9919 C   0  0  0  0  0  0  0  0  0  0  0  0
   -9.9107   -5.2253    2.2159 N   0  0  0  0  0  0  0  0  0  0  0  0
   -9.1317   -6.4532    0.4025 O   0  0  0  0  0  0  0  0  0  0  0  0
   -7.2204   -3.8070    1.2999 C   0  0  0  0  0  0  0  0  0  0  0  0
   -6.0713   -5.2299    1.4528 S   0  0  0  0  0  0  0  0  0  0  0  0
   -5.0549   -4.5560    2.8131 C   0  0  0  0  0  0  0  0  0  0  0  0
    0.2695   -7.3001   -4.5239 H   0  0  0  0  0  0  0  0  0  0  0  0
    0.4362   -9.0379   -4.9706 H   0  0  0  0  0  0  0  0  0  0  0  0
   -1.1698   -8.3776   -4.4506 H   0  0  0  0  0  0  0  0  0  0  0  0
    1.2987   -6.8835   -2.4669 H   0  0  0  0  0  0  0  0  0  0  0  0
    0.9771   -8.9165   -0.2573 H   0  0  0  0  0  0  0  0  0  0  0  0
   -0.5343   -7.4184    1.0638 H   0  0  0  0  0  0  0  0  0  0  0  0
   -1.2734   -7.9613   -0.4520 H   0  0  0  0  0  0  0  0  0  0  0  0
    0.4568   -4.0347    0.7311 H   0  0  0  0  0  0  0  0  0  0  0  0
   -0.0963   -5.3786    1.7686 H   0  0  0  0  0  0  0  0  0  0  0  0
   -2.6196   -5.5995    2.2071 H   0  0  0  0  0  0  0  0  0  0  0  0
   -4.8879   -1.9611    2.0338 H   0  0  0  0  0  0  0  0  0  0  0  0
   -0.9139   -2.0999    0.4024 H   0  0  0  0  0  0  0  0  0  0  0  0
   -3.8181   -0.6221   -0.2234 H   0  0  0  0  0  0  0  0  0  0  0  0
   -2.1494   -0.0950    0.1851 H   0  0  0  0  0  0  0  0  0  0  0  0
   -5.4066    2.3127    1.1843 H   0  0  0  0  0  0  0  0  0  0  0  0
   -5.1011    1.1642   -0.1105 H   0  0  0  0  0  0  0  0  0  0  0  0
   -2.5896    2.4251    0.0271 H   0  0  0  0  0  0  0  0  0  0  0  0
   -4.2584    4.2010    1.5342 H   0  0  0  0  0  0  0  0  0  0  0  0
   -1.7911    4.3317   -1.2596 H   0  0  0  0  0  0  0  0  0  0  0  0
   -2.7085    6.4161   -2.1690 H   0  0  0  0  0  0  0  0  0  0  0  0
   -1.7354    7.3940   -1.0159 H   0  0  0  0  0  0  0  0  0  0  0  0
   -0.9098    6.3979   -2.2764 H   0  0  0  0  0  0  0  0  0  0  0  0
    0.1344    4.3176   -0.0089 H   0  0  0  0  0  0  0  0  0  0  0  0
    0.4419    7.6397   -0.2090 H   0  0  0  0  0  0  0  0  0  0  0  0
   -1.2729    8.5919    1.2987 H   0  0  0  0  0  0  0  0  0  0  0  0
   -0.1908    8.3489    2.7266 H   0  0  0  0  0  0  0  0  0  0  0  0
    0.2656    9.5065    1.4242 H   0  0  0  0  0  0  0  0  0  0  0  0
    2.1853    6.9651    2.1970 H   0  0  0  0  0  0  0  0  0  0  0  0
    4.5239    6.4969    1.1790 H   0  0  0  0  0  0  0  0  0  0  0  0
    4.4055    4.6029   -0.4436 H   0  0  0  0  0  0  0  0  0  0  0  0
    3.0561    5.4467   -1.3032 H   0  0  0  0  0  0  0  0  0  0  0  0
    2.8417    4.8920    0.4036 H   0  0  0  0  0  0  0  0  0  0  0  0
    4.7794    7.3299   -1.7439 H   0  0  0  0  0  0  0  0  0  0  0  0
    8.2999    7.4140    0.6129 H   0  0  0  0  0  0  0  0  0  0  0  0
    5.8156    7.6597    2.3968 H   0  0  0  0  0  0  0  0  0  0  0  0
    6.7007    9.0541    1.6655 H   0  0  0  0  0  0  0  0  0  0  0  0
    7.5378    7.9134    2.7791 H   0  0  0  0  0  0  0  0  0  0  0  0
    6.2761    5.2230    1.2824 H   0  0  0  0  0  0  0  0  0  0  0  0
    8.3332    3.2137    0.1105 H   0  0  0  0  0  0  0  0  0  0  0  0
    9.4303    4.2544   -1.9143 H   0  0  0  0  0  0  0  0  0  0  0  0
    9.5668    5.8160   -1.0242 H   0  0  0  0  0  0  0  0  0  0  0  0
    7.9423    5.1193   -1.4300 H   0  0  0  0  0  0  0  0  0  0  0  0
   10.9591    4.4316    1.0290 H   0  0  0  0  0  0  0  0  0  0  0  0
    9.4894    1.7934   -1.1775 H   0  0  0  0  0  0  0  0  0  0  0  0
   12.5028    1.7080   -1.8127 H   0  0  0  0  0  0  0  0  0  0  0  0
   11.1432    1.3493   -2.9461 H   0  0  0  0  0  0  0  0  0  0  0  0
   11.3648    3.0155   -2.3008 H   0  0  0  0  0  0  0  0  0  0  0  0
   11.6413   -0.2383   -0.4942 H   0  0  0  0  0  0  0  0  0  0  0  0
    8.7552   -2.7054   -0.8214 H   0  0  0  0  0  0  0  0  0  0  0  0
   10.3349   -3.4526   -2.5383 H   0  0  0  0  0  0  0  0  0  0  0  0
   11.3134   -1.9421   -2.3565 H   0  0  0  0  0  0  0  0  0  0  0  0
    9.6254   -1.8599   -3.0017 H   0  0  0  0  0  0  0  0  0  0  0  0
   11.6316   -2.4752    0.1800 H   0  0  0  0  0  0  0  0  0  0  0  0
   10.1177   -4.8335    2.5384 H   0  0  0  0  0  0  0  0  0  0  0  0
    8.0155   -3.6393    3.0043 H   0  0  0  0  0  0  0  0  0  0  0  0
    7.9747   -2.9666    1.3383 H   0  0  0  0  0  0  0  0  0  0  0  0
    9.3015   -2.4944    2.4708 H   0  0  0  0  0  0  0  0  0  0  0  0
    8.6493   -6.5066    1.9035 H   0  0  0  0  0  0  0  0  0  0  0  0
    5.9195   -6.6362   -0.2692 H   0  0  0  0  0  0  0  0  0  0  0  0
    6.2037   -5.6314    2.6334 H   0  0  0  0  0  0  0  0  0  0  0  0
    4.7955   -6.5334    1.9660 H   0  0  0  0  0  0  0  0  0  0  0  0
    6.4033   -7.3358    2.0461 H   0  0  0  0  0  0  0  0  0  0  0  0
    5.8114   -3.7565    0.6872 H   0  0  0  0  0  0  0  0  0  0  0  0
    2.4785   -5.0356   -1.5075 H   0  0  0  0  0  0  0  0  0  0  0  0
    3.7310   -6.0304   -3.2982 H   0  0  0  0  0  0  0  0  0  0  0  0
    4.5387   -4.4823   -2.8357 H   0  0  0  0  0  0  0  0  0  0  0  0
    5.2531   -6.0731   -2.3338 H   0  0  0  0  0  0  0  0  0  0  0  0
    3.9765   -7.5487   -0.7069 H   0  0  0  0  0  0  0  0  0  0  0  0
   -4.2236    4.5588   -2.8379 H   0  0  0  0  0  0  0  0  0  0  0  0
   -6.4506    4.9735   -2.6881 H   0  0  0  0  0  0  0  0  0  0  0  0
   -5.7112    6.0073   -0.5084 H   0  0  0  0  0  0  0  0  0  0  0  0
   -6.2485    4.5004    0.3376 H   0  0  0  0  0  0  0  0  0  0  0  0
   -7.4374    5.4971   -0.5682 H   0  0  0  0  0  0  0  0  0  0  0  0
   -7.4811    2.1956   -0.0749 H   0  0  0  0  0  0  0  0  0  0  0  0
   -9.5212    1.6116   -1.4611 H   0  0  0  0  0  0  0  0  0  0  0  0
   -9.3953    4.6133   -2.1139 H   0  0  0  0  0  0  0  0  0  0  0  0
  -10.8468    3.5736   -2.3679 H   0  0  0  0  0  0  0  0  0  0  0  0
   -9.3327    3.2198   -3.2604 H   0  0  0  0  0  0  0  0  0  0  0  0
  -10.9839    2.4502    1.9081 H   0  0  0  0  0  0  0  0  0  0  0  0
  -11.0060    0.5676   -0.4791 H   0  0  0  0  0  0  0  0  0  0  0  0
  -13.0218    2.0437   -0.4252 H   0  0  0  0  0  0  0  0  0  0  0  0
  -13.3705    1.4963    1.2606 H   0  0  0  0  0  0  0  0  0  0  0  0
  -13.4410    0.3236   -0.1149 H   0  0  0  0  0  0  0  0  0  0  0  0
  -11.6497   -2.2641    1.9837 H   0  0  0  0  0  0  0  0  0  0  0  0
  -11.8076   -1.3872   -0.9458 H   0  0  0  0  0  0  0  0  0  0  0  0
  -13.8825   -2.3781    0.0636 H   0  0  0  0  0  0  0  0  0  0  0  0
  -13.1973   -3.3402   -1.2897 H   0  0  0  0  0  0  0  0  0  0  0  0
  -12.9586   -3.8906    0.4188 H   0  0  0  0  0  0  0  0  0  0  0  0
   -9.2243   -2.2236    1.0175 H   0  0  0  0  0  0  0  0  0  0  0  0
   -8.0744   -4.3987   -0.5940 H   0  0  0  0  0  0  0  0  0  0  0  0
  -10.0087   -4.3008    2.6884 H   0  0  0  0  0  0  0  0  0  0  0  0
  -10.4550   -6.0466    2.5788 H   0  0  0  0  0  0  0  0  0  0  0  0
   -6.6797   -2.9630    0.8282 H   0  0  0  0  0  0  0  0  0  0  0  0
   -7.5701   -3.4865    2.3038 H   0  0  0  0  0  0  0  0  0  0  0  0
   -5.6460   -3.8892    3.4754 H   0  0  0  0  0  0  0  0  0  0  0  0
   -4.7212   -5.4054    3.4444 H   0  0  0  0  0  0  0  0  0  0  0  0
  1  2  1  0
  2  3  2  0
  2  4  1  0
  4  5  1  0
  5  6  1  0
  6  7  1  0
  7  8  1  0
  8  9  1  0
  9 10  2  0
 10 11  1  0
 11 12  2  0
 12 13  1  0
 13 14  2  0
 13 15  1  0
 15 16  1  0
 16 17  1  0
 17 18  1  0
 18 19  1  0
 19 20  1  0
 20 21  2  0
 20 22  1  0
 22 23  1  0
 22 24  1  0
 24 25  1  0
 25 26  2  0
 25 27  1  0
 27 28  1  0
 27 29  1  0
 29 30  1  0
 30 31  2  0
 30 32  1  0
 32 33  1  0
 32 34  1  0
 34 35  1  0
 35 36  2  0
 35 37  1  0
 37 38  1  0
 37 39  1  0
 39 40  1  0
 40 41  2  0
 40 42  1  0
 42 43  1  0
 42 44  1  0
 44 45  1  0
 45 46  2  0
 45 47  1  0
 47 48  1  0
 47 49  1  0
 49 50  1  0
 50 51  2  0
 50 52  1  0
 52 53  1  0
 52 54  1  0
 54 55  1  0
 55 56  2  0
 55 57  1  0
 57 58  1  0
 57 59  1  0
 59 60  1  0
 60 61  2  0
 60 62  1  0
 62 63  1  0
 62 64  1  0
 64 65  1  0
 65 66  2  0
 65 67  1  0
 67 68  1  0
 67 69  1  0
 69 70  1  0
 70 71  2  0
 18 72  1  0
 72 73  2  0
 72 74  1  0
 74 75  1  0
 75 76  1  0
 75 77  1  0
 77 78  2  0
 77 79  1  0
 79 80  1  0
 80 81  1  0
 80 82  1  0
 82 83  2  0
 82 84  1  0
 84 85  1  0
 85 86  1  0
 85 87  1  0
 87 88  2  0
 87 89  1  0
 89 90  1  0
 90 91  1  0
 90 92  1  0
 92 93  2  0
 92 94  1  0
 94 95  1  0
 95 96  1  0
 96 97  1  0
 96 98  2  0
 95 99  1  0
 99100  1  0
100101  1  0
 70  5  1  0
 14  9  1  0
101 11  1  0
  1102  1  0
  1103  1  0
  1104  1  0
  4105  1  0
  5106  1  6
  6107  1  0
  6108  1  0
  8109  1  0
  8110  1  0
 10111  1  0
 12112  1  0
 14113  1  0
 15114  1  0
 15115  1  0
 17116  1  0
 17117  1  0
 18118  1  6
 19119  1  0
 22120  1  6
 23121  1  0
 23122  1  0
 23123  1  0
 24124  1  0
 27125  1  6
 28126  1  0
 28127  1  0
 28128  1  0
 29129  1  0
 32130  1  1
 33131  1  0
 33132  1  0
 33133  1  0
 34134  1  0
 37135  1  6
 38136  1  0
 38137  1  0
 38138  1  0
 39139  1  0
 42140  1  6
 43141  1  0
 43142  1  0
 43143  1  0
 44144  1  0
 47145  1  6
 48146  1  0
 48147  1  0
 48148  1  0
 49149  1  0
 52150  1  6
 53151  1  0
 53152  1  0
 53153  1  0
 54154  1  0
 57155  1  1
 58156  1  0
 58157  1  0
 58158  1  0
 59159  1  0
 62160  1  6
 63161  1  0
 63162  1  0
 63163  1  0
 64164  1  0
 67165  1  6
 68166  1  0
 68167  1  0
 68168  1  0
 69169  1  0
 74170  1  0
 75171  1  6
 76172  1  0
 76173  1  0
 76174  1  0
 79175  1  0
 80176  1  6
 81177  1  0
 81178  1  0
 81179  1  0
 84180  1  0
 85181  1  6
 86182  1  0
 86183  1  0
 86184  1  0
 89185  1  0
 90186  1  6
 91187  1  0
 91188  1  0
 91189  1  0
 94190  1  0
 95191  1  6
 97192  1  0
 97193  1  0
 99194  1  0
 99195  1  0
101196  1  0
101197  1  0
M  END
