
     RDKit          3D

187189  0  0  0  0  0  0  0  0999 V2000
   -0.2262   10.4328    2.7517 C   0  0  0  0  0  0  0  0  0  0  0  0
   -0.1107    9.1104    2.0652 C   0  0  0  0  0  0  0  0  0  0  0  0
    0.1708    8.0831    2.7344 O   0  0  0  0  0  0  0  0  0  0  0  0
   -0.3327    9.0245    0.6501 N   0  0  0  0  0  0  0  0  0  0  0  0
   -0.5121    7.7646   -0.0822 C   0  0  2  0  0  0  0  0  0  0  0  0
   -1.6043    6.8992    0.5881 C   0  0  0  0  0  0  0  0  0  0  0  0
   -2.5438    5.9210   -0.6407 S   0  0  0  0  0  0  0  0  0  0  0  0
   -1.8625    4.2478   -0.2985 C   0  0  0  0  0  0  0  0  0  0  0  0
   -2.9863    3.2475   -0.2171 C   0  0  0  0  0  0  0  0  0  0  0  0
   -3.9306    3.1711   -1.2545 C   0  0  0  0  0  0  0  0  0  0  0  0
   -5.0384    2.3197   -1.1519 C   0  0  0  0  0  0  0  0  0  0  0  0
   -5.1492    1.4591   -0.0534 C   0  0  0  0  0  0  0  0  0  0  0  0
   -4.1807    1.4748    0.9643 C   0  0  0  0  0  0  0  0  0  0  0  0
   -3.1050    2.3800    0.8828 C   0  0  0  0  0  0  0  0  0  0  0  0
   -4.2837    0.5228    2.1246 C   0  0  0  0  0  0  0  0  0  0  0  0
   -3.1221   -0.8804    1.9391 S   0  0  0  0  0  0  0  0  0  0  0  0
   -4.0063   -1.7555    0.5882 C   0  0  0  0  0  0  0  0  0  0  0  0
   -4.0720   -3.2712    0.8500 C   0  0  2  0  0  0  0  0  0  0  0  0
   -4.3281   -3.9700   -0.4145 N   0  0  0  0  0  0  0  0  0  0  0  0
   -3.8503   -5.2856   -0.7577 C   0  0  0  0  0  0  0  0  0  0  0  0
   -4.3854   -5.8734   -1.7360 O   0  0  0  0  0  0  0  0  0  0  0  0
   -2.7678   -6.0068    0.0282 C   0  0  1  0  0  0  0  0  0  0  0  0
   -3.3634   -6.6727    1.2724 C   0  0  0  0  0  0  0  0  0  0  0  0
   -2.1369   -7.0429   -0.8004 N   0  0  0  0  0  0  0  0  0  0  0  0
   -0.7474   -7.4035   -0.7105 C   0  0  0  0  0  0  0  0  0  0  0  0
   -0.4354   -8.6230   -0.8042 O   0  0  0  0  0  0  0  0  0  0  0  0
    0.3431   -6.3728   -0.4987 C   0  0  1  0  0  0  0  0  0  0  0  0
    0.8403   -6.3978    0.9494 C   0  0  0  0  0  0  0  0  0  0  0  0
    1.4424   -6.5541   -1.4596 N   0  0  0  0  0  0  0  0  0  0  0  0
    2.2305   -7.7468   -1.5686 C   0  0  0  0  0  0  0  0  0  0  0  0
    2.0530   -8.5132   -2.5565 O   0  0  0  0  0  0  0  0  0  0  0  0
    3.3472   -8.0341   -0.6001 C   0  0  1  0  0  0  0  0  0  0  0  0
    3.1735   -9.4151    0.0380 C   0  0  0  0  0  0  0  0  0  0  0  0
    4.6325   -7.9686   -1.3006 N   0  0  0  0  0  0  0  0  0  0  0  0
    5.4408   -6.7902   -1.2371 C   0  0  0  0  0  0  0  0  0  0  0  0
    5.3118   -5.9105   -2.1290 O   0  0  0  0  0  0  0  0  0  0  0  0
    6.5176   -6.6244   -0.1920 C   0  0  1  0  0  0  0  0  0  0  0  0
    6.3593   -7.6070    0.9755 C   0  0  0  0  0  0  0  0  0  0  0  0
    7.8244   -6.8245   -0.8177 N   0  0  0  0  0  0  0  0  0  0  0  0
    8.8739   -5.8432   -0.9282 C   0  0  0  0  0  0  0  0  0  0  0  0
    9.8714   -6.1261   -1.6488 O   0  0  0  0  0  0  0  0  0  0  0  0
    8.8362   -4.5120   -0.2019 C   0  0  1  0  0  0  0  0  0  0  0  0
    9.0192   -4.7275    1.3038 C   0  0  0  0  0  0  0  0  0  0  0  0
    9.9039   -3.6210   -0.6794 N   0  0  0  0  0  0  0  0  0  0  0  0
    9.8031   -2.1998   -0.8957 C   0  0  0  0  0  0  0  0  0  0  0  0
   10.7692   -1.6201   -1.4645 O   0  0  0  0  0  0  0  0  0  0  0  0
    8.6573   -1.3507   -0.3750 C   0  0  1  0  0  0  0  0  0  0  0  0
    9.0465   -0.6534    0.9285 C   0  0  0  0  0  0  0  0  0  0  0  0
    8.1910   -0.3974   -1.3974 N   0  0  0  0  0  0  0  0  0  0  0  0
    9.0067    0.5969   -2.0390 C   0  0  0  0  0  0  0  0  0  0  0  0
    9.2038    0.5119   -3.2816 O   0  0  0  0  0  0  0  0  0  0  0  0
    9.5270    1.7963   -1.2859 C   0  0  1  0  0  0  0  0  0  0  0  0
   11.0582    1.8511   -1.3290 C   0  0  0  0  0  0  0  0  0  0  0  0
    8.9658    3.0244   -1.8553 N   0  0  0  0  0  0  0  0  0  0  0  0
    7.6557    3.4708   -1.4855 C   0  0  0  0  0  0  0  0  0  0  0  0
    6.6711    3.1427   -2.1948 O   0  0  0  0  0  0  0  0  0  0  0  0
    7.4400    4.3677   -0.2909 C   0  0  1  0  0  0  0  0  0  0  0  0
    7.7278    3.6449    1.0247 C   0  0  0  0  0  0  0  0  0  0  0  0
    8.3017    5.5536   -0.4007 N   0  0  0  0  0  0  0  0  0  0  0  0
    7.8739    6.9286   -0.4662 C   0  0  0  0  0  0  0  0  0  0  0  0
    8.7582    7.8252   -0.5205 O   0  0  0  0  0  0  0  0  0  0  0  0
    6.4215    7.3690   -0.4773 C   0  0  1  0  0  0  0  0  0  0  0  0
    5.7475    7.0169   -1.8124 C   0  0  0  0  0  0  0  0  0  0  0  0
    5.6869    6.8290    0.6715 N   0  0  0  0  0  0  0  0  0  0  0  0
    4.3816    7.3069    1.0052 C   0  0  0  0  0  0  0  0  0  0  0  0
    4.2752    8.2822    1.7983 O   0  0  0  0  0  0  0  0  0  0  0  0
    3.1581    6.5471    0.5588 C   0  0  1  0  0  0  0  0  0  0  0  0
    2.8157    5.4780    1.5971 C   0  0  0  0  0  0  0  0  0  0  0  0
    2.0161    7.4458    0.3568 N   0  0  0  0  0  0  0  0  0  0  0  0
    0.7899    7.0000   -0.2447 C   0  0  0  0  0  0  0  0  0  0  0  0
    0.7899    5.9582   -0.9573 O   0  0  0  0  0  0  0  0  0  0  0  0
   -5.1704   -3.5839    1.8371 C   0  0  0  0  0  0  0  0  0  0  0  0
   -5.0917   -3.1498    3.0204 O   0  0  0  0  0  0  0  0  0  0  0  0
   -6.2778   -4.4072    1.4594 N   0  0  0  0  0  0  0  0  0  0  0  0
   -7.6384   -3.8728    1.3785 C   0  0  2  0  0  0  0  0  0  0  0  0
   -8.4125   -4.2459    2.6439 C   0  0  0  0  0  0  0  0  0  0  0  0
   -8.3397   -4.4326    0.1640 C   0  0  0  0  0  0  0  0  0  0  0  0
   -8.1372   -5.6363   -0.1588 O   0  0  0  0  0  0  0  0  0  0  0  0
   -9.2337   -3.6490   -0.6397 N   0  0  0  0  0  0  0  0  0  0  0  0
   -9.9796   -2.4800   -0.1666 C   0  0  2  0  0  0  0  0  0  0  0  0
  -11.4563   -2.8455    0.0130 C   0  0  0  0  0  0  0  0  0  0  0  0
   -9.8248   -1.3568   -1.1516 C   0  0  0  0  0  0  0  0  0  0  0  0
  -10.2855   -1.4751   -2.3196 O   0  0  0  0  0  0  0  0  0  0  0  0
   -9.0789   -0.1911   -0.7917 N   0  0  0  0  0  0  0  0  0  0  0  0
   -9.6909    1.1037   -0.4744 C   0  0  2  0  0  0  0  0  0  0  0  0
  -10.9204    0.9326    0.4239 C   0  0  0  0  0  0  0  0  0  0  0  0
  -10.0525    1.8515   -1.7422 C   0  0  0  0  0  0  0  0  0  0  0  0
  -10.6905    1.2444   -2.6422 O   0  0  0  0  0  0  0  0  0  0  0  0
   -9.6932    3.2282   -1.9632 N   0  0  0  0  0  0  0  0  0  0  0  0
   -9.2025    4.1479   -0.9288 C   0  0  2  0  0  0  0  0  0  0  0  0
   -9.6930    5.5532   -1.1919 C   0  0  0  0  0  0  0  0  0  0  0  0
   -9.2755    6.2855   -2.3477 N   0  0  0  0  0  0  0  0  0  0  0  0
  -10.5170    6.0823   -0.4036 O   0  0  0  0  0  0  0  0  0  0  0  0
   -7.6652    4.0985   -0.7998 C   0  0  0  0  0  0  0  0  0  0  0  0
   -6.8068    4.0094   -2.4226 S   0  0  0  0  0  0  0  0  0  0  0  0
   -6.0974    2.3335   -2.2235 C   0  0  0  0  0  0  0  0  0  0  0  0
   -0.0315   10.3265    3.8401 H   0  0  0  0  0  0  0  0  0  0  0  0
   -1.2540   10.8310    2.6055 H   0  0  0  0  0  0  0  0  0  0  0  0
    0.5041   11.1539    2.3225 H   0  0  0  0  0  0  0  0  0  0  0  0
   -0.4053    9.9182    0.1056 H   0  0  0  0  0  0  0  0  0  0  0  0
   -0.8565    8.0282   -1.1086 H   0  0  0  0  0  0  0  0  0  0  0  0
   -2.3515    7.5756    1.0545 H   0  0  0  0  0  0  0  0  0  0  0  0
   -1.1886    6.2806    1.4053 H   0  0  0  0  0  0  0  0  0  0  0  0
   -1.1996    3.9631   -1.1417 H   0  0  0  0  0  0  0  0  0  0  0  0
   -1.2486    4.2222    0.6251 H   0  0  0  0  0  0  0  0  0  0  0  0
   -3.8301    3.8114   -2.1224 H   0  0  0  0  0  0  0  0  0  0  0  0
   -5.9962    0.7894    0.0221 H   0  0  0  0  0  0  0  0  0  0  0  0
   -2.3605    2.3976    1.6692 H   0  0  0  0  0  0  0  0  0  0  0  0
   -5.3200    0.1456    2.2511 H   0  0  0  0  0  0  0  0  0  0  0  0
   -4.0179    1.0613    3.0579 H   0  0  0  0  0  0  0  0  0  0  0  0
   -3.4384   -1.5603   -0.3454 H   0  0  0  0  0  0  0  0  0  0  0  0
   -5.0334   -1.3632    0.4398 H   0  0  0  0  0  0  0  0  0  0  0  0
   -3.1071   -3.5958    1.2815 H   0  0  0  0  0  0  0  0  0  0  0  0
   -5.0598   -3.5650   -1.0407 H   0  0  0  0  0  0  0  0  0  0  0  0
   -2.0133   -5.2732    0.3553 H   0  0  0  0  0  0  0  0  0  0  0  0
   -4.2216   -7.3229    0.9920 H   0  0  0  0  0  0  0  0  0  0  0  0
   -2.5924   -7.3066    1.7687 H   0  0  0  0  0  0  0  0  0  0  0  0
   -3.7029   -5.9161    2.0037 H   0  0  0  0  0  0  0  0  0  0  0  0
   -2.7633   -7.7586   -1.2304 H   0  0  0  0  0  0  0  0  0  0  0  0
   -0.0807   -5.3645   -0.6842 H   0  0  0  0  0  0  0  0  0  0  0  0
    0.0225   -6.1005    1.6390 H   0  0  0  0  0  0  0  0  0  0  0  0
    1.6762   -5.6759    1.0755 H   0  0  0  0  0  0  0  0  0  0  0  0
    1.1808   -7.4122    1.2397 H   0  0  0  0  0  0  0  0  0  0  0  0
    1.4519   -5.9147   -2.2868 H   0  0  0  0  0  0  0  0  0  0  0  0
    3.3316   -7.2730    0.2045 H   0  0  0  0  0  0  0  0  0  0  0  0
    3.9178   -9.5492    0.8517 H   0  0  0  0  0  0  0  0  0  0  0  0
    2.1557   -9.5164    0.4707 H   0  0  0  0  0  0  0  0  0  0  0  0
    3.3181  -10.2119   -0.7181 H   0  0  0  0  0  0  0  0  0  0  0  0
    4.8250   -8.6522   -2.0639 H   0  0  0  0  0  0  0  0  0  0  0  0
    6.4102   -5.6033    0.2212 H   0  0  0  0  0  0  0  0  0  0  0  0
    6.3981   -8.6571    0.6115 H   0  0  0  0  0  0  0  0  0  0  0  0
    5.3994   -7.4346    1.5042 H   0  0  0  0  0  0  0  0  0  0  0  0
    7.1836   -7.4652    1.7033 H   0  0  0  0  0  0  0  0  0  0  0  0
    8.0026   -7.7580   -1.2610 H   0  0  0  0  0  0  0  0  0  0  0  0
    7.8495   -4.0595   -0.4033 H   0  0  0  0  0  0  0  0  0  0  0  0
    8.1647   -5.2814    1.7397 H   0  0  0  0  0  0  0  0  0  0  0  0
    9.0925   -3.7520    1.8280 H   0  0  0  0  0  0  0  0  0  0  0  0
    9.9546   -5.3031    1.4997 H   0  0  0  0  0  0  0  0  0  0  0  0
   10.8622   -4.0277   -0.7787 H   0  0  0  0  0  0  0  0  0  0  0  0
    7.7904   -1.9861   -0.1172 H   0  0  0  0  0  0  0  0  0  0  0  0
    9.1484   -1.3989    1.7455 H   0  0  0  0  0  0  0  0  0  0  0  0
    8.2595    0.0724    1.2283 H   0  0  0  0  0  0  0  0  0  0  0  0
   10.0215   -0.1331    0.8320 H   0  0  0  0  0  0  0  0  0  0  0  0
    7.2982   -0.6441   -1.8880 H   0  0  0  0  0  0  0  0  0  0  0  0
    9.2202    1.7257   -0.2281 H   0  0  0  0  0  0  0  0  0  0  0  0
   11.4210    1.7751   -2.3734 H   0  0  0  0  0  0  0  0  0  0  0  0
   11.4098    2.8125   -0.9001 H   0  0  0  0  0  0  0  0  0  0  0  0
   11.4882    1.0175   -0.7352 H   0  0  0  0  0  0  0  0  0  0  0  0
    9.3257    3.3385   -2.7865 H   0  0  0  0  0  0  0  0  0  0  0  0
    6.3728    4.6484   -0.2692 H   0  0  0  0  0  0  0  0  0  0  0  0
    8.8181    3.4719    1.1583 H   0  0  0  0  0  0  0  0  0  0  0  0
    7.1911    2.6720    1.0627 H   0  0  0  0  0  0  0  0  0  0  0  0
    7.3856    4.2668    1.8762 H   0  0  0  0  0  0  0  0  0  0  0  0
    9.3349    5.3854   -0.4074 H   0  0  0  0  0  0  0  0  0  0  0  0
    6.4068    8.4784   -0.3960 H   0  0  0  0  0  0  0  0  0  0  0  0
    5.6191    5.9243   -1.9406 H   0  0  0  0  0  0  0  0  0  0  0  0
    6.3611    7.4014   -2.6554 H   0  0  0  0  0  0  0  0  0  0  0  0
    4.7503    7.5007   -1.8733 H   0  0  0  0  0  0  0  0  0  0  0  0
    6.2250    6.3913    1.4498 H   0  0  0  0  0  0  0  0  0  0  0  0
    3.3929    6.0431   -0.4061 H   0  0  0  0  0  0  0  0  0  0  0  0
    1.9369    4.8817    1.2697 H   0  0  0  0  0  0  0  0  0  0  0  0
    2.5743    5.9521    2.5741 H   0  0  0  0  0  0  0  0  0  0  0  0
    3.6702    4.7802    1.7317 H   0  0  0  0  0  0  0  0  0  0  0  0
    2.0731    8.4204    0.7162 H   0  0  0  0  0  0  0  0  0  0  0  0
   -6.1195   -5.4386    1.3831 H   0  0  0  0  0  0  0  0  0  0  0  0
   -7.5765   -2.7645    1.3015 H   0  0  0  0  0  0  0  0  0  0  0  0
   -7.9400   -3.7762    3.5313 H   0  0  0  0  0  0  0  0  0  0  0  0
   -9.4602   -3.8835    2.5806 H   0  0  0  0  0  0  0  0  0  0  0  0
   -8.4197   -5.3472    2.7842 H   0  0  0  0  0  0  0  0  0  0  0  0
   -9.5066   -4.0456   -1.5671 H   0  0  0  0  0  0  0  0  0  0  0  0
   -9.6091   -2.1347    0.8194 H   0  0  0  0  0  0  0  0  0  0  0  0
  -11.5613   -3.6163    0.8056 H   0  0  0  0  0  0  0  0  0  0  0  0
  -11.8795   -3.2438   -0.9348 H   0  0  0  0  0  0  0  0  0  0  0  0
  -12.0413   -1.9501    0.3195 H   0  0  0  0  0  0  0  0  0  0  0  0
   -8.0354   -0.2500   -0.8548 H   0  0  0  0  0  0  0  0  0  0  0  0
   -8.9501    1.6788    0.1123 H   0  0  0  0  0  0  0  0  0  0  0  0
  -11.2851    1.9244    0.7627 H   0  0  0  0  0  0  0  0  0  0  0  0
  -10.6605    0.3317    1.3195 H   0  0  0  0  0  0  0  0  0  0  0  0
  -11.7432    0.4330   -0.1280 H   0  0  0  0  0  0  0  0  0  0  0  0
   -9.8783    3.6157   -2.9201 H   0  0  0  0  0  0  0  0  0  0  0  0
   -9.6346    3.8512    0.0542 H   0  0  0  0  0  0  0  0  0  0  0  0
   -8.8126    5.8159   -3.1598 H   0  0  0  0  0  0  0  0  0  0  0  0
   -9.4016    7.3174   -2.3884 H   0  0  0  0  0  0  0  0  0  0  0  0
   -7.3779    3.2468   -0.1546 H   0  0  0  0  0  0  0  0  0  0  0  0
   -7.3028    5.0067   -0.2723 H   0  0  0  0  0  0  0  0  0  0  0  0
   -5.6313    2.0290   -3.1845 H   0  0  0  0  0  0  0  0  0  0  0  0
   -6.9140    1.6173   -2.0058 H   0  0  0  0  0  0  0  0  0  0  0  0
  1  2  1  0
  2  3  2  0
  2  4  1  0
  4  5  1  0
  5  6  1  0
  6  7  1  0
  7  8  1  0
  8  9  1  0
  9 10  2  0
 10 11  1  0
 11 12  2  0
 12 13  1  0
 13 14  2  0
 13 15  1  0
 15 16  1  0
 16 17  1  0
 17 18  1  0
 18 19  1  0
 19 20  1  0
 20 21  2  0
 20 22  1  0
 22 23  1  0
 22 24  1  0
 24 25  1  0
 25 26  2  0
 25 27  1  0
 27 28  1  0
 27 29  1  0
 29 30  1  0
 30 31  2  0
 30 32  1  0
 32 33  1  0
 32 34  1  0
 34 35  1  0
 35 36  2  0
 35 37  1  0
 37 38  1  0
 37 39  1  0
 39 40  1  0
 40 41  2  0
 40 42  1  0
 42 43  1  0
 42 44  1  0
 44 45  1  0
 45 46  2  0
 45 47  1  0
 47 48  1  0
 47 49  1  0
 49 50  1  0
 50 51  2  0
 50 52  1  0
 52 53  1  0
 52 54  1  0
 54 55  1  0
 55 56  2  0
 55 57  1  0
 57 58  1  0
 57 59  1  0
 59 60  1  0
 60 61  2  0
 60 62  1  0
 62 63  1  0
 62 64  1  0
 64 65  1  0
 65 66  2  0
 65 67  1  0
 67 68  1  0
 67 69  1  0
 69 70  1  0
 70 71  2  0
 18 72  1  0
 72 73  2  0
 72 74  1  0
 74 75  1  0
 75 76  1  0
 75 77  1  0
 77 78  2  0
 77 79  1  0
 79 80  1  0
 80 81  1  0
 80 82  1  0
 82 83  2  0
 82 84  1  0
 84 85  1  0
 85 86  1  0
 85 87  1  0
 87 88  2  0
 87 89  1  0
 89 90  1  0
 90 91  1  0
 91 92  1  0
 91 93  2  0
 90 94  1  0
 94 95  1  0
 95 96  1  0
 70  5  1  0
 14  9  1  0
 96 11  1  0
  1 97  1  0
  1 98  1  0
  1 99  1  0
  4100  1  0
  5101  1  6
  6102  1  0
  6103  1  0
  8104  1  0
  8105  1  0
 10106  1  0
 12107  1  0
 14108  1  0
 15109  1  0
 15110  1  0
 17111  1  0
 17112  1  0
 18113  1  1
 19114  1  0
 22115  1  1
 23116  1  0
 23117  1  0
 23118  1  0
 24119  1  0
 27120  1  6
 28121  1  0
 28122  1  0
 28123  1  0
 29124  1  0
 32125  1  1
 33126  1  0
 33127  1  0
 33128  1  0
 34129  1  0
 37130  1  1
 38131  1  0
 38132  1  0
 38133  1  0
 39134  1  0
 42135  1  1
 43136  1  0
 43137  1  0
 43138  1  0
 44139  1  0
 47140  1  1
 48141  1  0
 48142  1  0
 48143  1  0
 49144  1  0
 52145  1  1
 53146  1  0
 53147  1  0
 53148  1  0
 54149  1  0
 57150  1  1
 58151  1  0
 58152  1  0
 58153  1  0
 59154  1  0
 62155  1  1
 63156  1  0
 63157  1  0
 63158  1  0
 64159  1  0
 67160  1  6
 68161  1  0
 68162  1  0
 68163  1  0
 69164  1  0
 74165  1  0
 75166  1  6
 76167  1  0
 76168  1  0
 76169  1  0
 79170  1  0
 80171  1  1
 81172  1  0
 81173  1  0
 81174  1  0
 84175  1  0
 85176  1  1
 86177  1  0
 86178  1  0
 86179  1  0
 89180  1  0
 90181  1  1
 92182  1  0
 92183  1  0
 94184  1  0
 94185  1  0
 96186  1  0
 96187  1  0
M  END
