
     RDKit          3D

167169  0  0  0  0  0  0  0  0999 V2000
   12.3017   -1.9763   -1.5252 C   0  0  0  0  0  0  0  0  0  0  0  0
   10.8860   -1.5283   -1.3540 C   0  0  0  0  0  0  0  0  0  0  0  0
   10.1172   -1.5010   -2.3538 O   0  0  0  0  0  0  0  0  0  0  0  0
   10.4002   -1.1624   -0.0530 N   0  0  0  0  0  0  0  0  0  0  0  0
    8.9691   -1.0305    0.2609 C   0  0  1  0  0  0  0  0  0  0  0  0
    8.4366   -2.3340    0.8933 C   0  0  0  0  0  0  0  0  0  0  0  0
    8.5750   -3.7920   -0.2156 S   0  0  0  0  0  0  0  0  0  0  0  0
    7.1718   -3.4283   -1.3389 C   0  0  0  0  0  0  0  0  0  0  0  0
    5.8588   -3.3105   -0.6097 C   0  0  0  0  0  0  0  0  0  0  0  0
    5.3779   -4.3810    0.1604 C   0  0  0  0  0  0  0  0  0  0  0  0
    4.1424   -4.2834    0.8238 C   0  0  0  0  0  0  0  0  0  0  0  0
    3.4137   -3.0821    0.7449 C   0  0  0  0  0  0  0  0  0  0  0  0
    3.8921   -2.0014   -0.0156 C   0  0  0  0  0  0  0  0  0  0  0  0
    5.1063   -2.1308   -0.7027 C   0  0  0  0  0  0  0  0  0  0  0  0
    3.0942   -0.7272   -0.1045 C   0  0  0  0  0  0  0  0  0  0  0  0
    3.1351    0.1662    1.4871 S   0  0  0  0  0  0  0  0  0  0  0  0
    4.7578    0.9840    1.2378 C   0  0  0  0  0  0  0  0  0  0  0  0
    4.6438    2.2561    0.3494 C   0  0  2  0  0  0  0  0  0  0  0  0
    5.6477    2.1955   -0.7238 N   0  0  0  0  0  0  0  0  0  0  0  0
    6.9444    2.8050   -0.6433 C   0  0  0  0  0  0  0  0  0  0  0  0
    7.0385    4.0624   -0.5955 O   0  0  0  0  0  0  0  0  0  0  0  0
    8.1690    1.9315   -0.5386 C   0  0  1  0  0  0  0  0  0  0  0  0
    9.4536    2.6977   -0.8744 C   0  0  0  0  0  0  0  0  0  0  0  0
    8.2548    1.4024    0.8278 N   0  0  0  0  0  0  0  0  0  0  0  0
    8.7793    0.1214    1.2190 C   0  0  0  0  0  0  0  0  0  0  0  0
    9.0979   -0.0450    2.4271 O   0  0  0  0  0  0  0  0  0  0  0  0
    4.7699    3.5277    1.1736 C   0  0  0  0  0  0  0  0  0  0  0  0
    5.7230    3.6347    1.9931 O   0  0  0  0  0  0  0  0  0  0  0  0
    3.9178    4.6665    0.9705 N   0  0  0  0  0  0  0  0  0  0  0  0
    2.4455    4.6919    0.9551 C   0  0  2  0  0  0  0  0  0  0  0  0
    1.7946    3.4660    1.6144 C   0  0  0  0  0  0  0  0  0  0  0  0
    1.9349    4.8950   -0.4441 C   0  0  0  0  0  0  0  0  0  0  0  0
    2.2494    4.0604   -1.3319 O   0  0  0  0  0  0  0  0  0  0  0  0
    1.0303    5.9616   -0.7942 N   0  0  0  0  0  0  0  0  0  0  0  0
    1.1590    7.3857   -0.4419 C   0  0  2  0  0  0  0  0  0  0  0  0
    2.6072    7.8332   -0.1873 C   0  0  0  0  0  0  0  0  0  0  0  0
    0.2397    7.7463    0.7013 C   0  0  0  0  0  0  0  0  0  0  0  0
    0.5549    7.4103    1.8737 O   0  0  0  0  0  0  0  0  0  0  0  0
   -0.9945    8.4676    0.5091 N   0  0  0  0  0  0  0  0  0  0  0  0
   -1.6052    8.7428   -0.7943 C   0  0  2  0  0  0  0  0  0  0  0  0
   -1.1169   10.0981   -1.3265 C   0  0  0  0  0  0  0  0  0  0  0  0
   -3.1079    8.7045   -0.6788 C   0  0  0  0  0  0  0  0  0  0  0  0
   -3.7571    9.7536   -0.4050 O   0  0  0  0  0  0  0  0  0  0  0  0
   -3.8205    7.4861   -0.9142 N   0  0  0  0  0  0  0  0  0  0  0  0
   -3.5510    6.2761   -0.1363 C   0  0  2  0  0  0  0  0  0  0  0  0
   -3.5150    5.0600   -1.0698 C   0  0  0  0  0  0  0  0  0  0  0  0
   -4.5897    6.1497    0.9602 C   0  0  0  0  0  0  0  0  0  0  0  0
   -4.7242    7.0927    1.7856 O   0  0  0  0  0  0  0  0  0  0  0  0
   -5.3744    4.9628    1.1316 N   0  0  0  0  0  0  0  0  0  0  0  0
   -6.6608    4.7049    0.4700 C   0  0  2  0  0  0  0  0  0  0  0  0
   -7.2258    5.9390   -0.2520 C   0  0  0  0  0  0  0  0  0  0  0  0
   -7.6701    4.2099    1.4826 C   0  0  0  0  0  0  0  0  0  0  0  0
   -7.6086    4.6415    2.6661 O   0  0  0  0  0  0  0  0  0  0  0  0
   -8.7756    3.3660    1.1178 N   0  0  0  0  0  0  0  0  0  0  0  0
   -8.8698    2.6052   -0.1386 C   0  0  2  0  0  0  0  0  0  0  0  0
  -10.3376    2.2693   -0.4354 C   0  0  0  0  0  0  0  0  0  0  0  0
   -7.9997    1.3683   -0.0694 C   0  0  0  0  0  0  0  0  0  0  0  0
   -6.7456    1.4929   -0.0764 O   0  0  0  0  0  0  0  0  0  0  0  0
   -8.5656    0.0569   -0.0006 N   0  0  0  0  0  0  0  0  0  0  0  0
   -8.1668   -0.9888   -0.9415 C   0  0  2  0  0  0  0  0  0  0  0  0
   -9.4169   -1.7590   -1.3923 C   0  0  0  0  0  0  0  0  0  0  0  0
   -7.1136   -1.8744   -0.3123 C   0  0  0  0  0  0  0  0  0  0  0  0
   -6.0764   -1.3454    0.1824 O   0  0  0  0  0  0  0  0  0  0  0  0
   -7.2314   -3.3057   -0.3155 N   0  0  0  0  0  0  0  0  0  0  0  0
   -7.0949   -4.1220    0.8952 C   0  0  2  0  0  0  0  0  0  0  0  0
   -8.0875   -3.6601    1.9754 C   0  0  0  0  0  0  0  0  0  0  0  0
   -5.6573   -4.1208    1.3953 C   0  0  0  0  0  0  0  0  0  0  0  0
   -5.3262   -3.3112    2.3029 O   0  0  0  0  0  0  0  0  0  0  0  0
   -4.6542   -5.0023    0.8578 N   0  0  0  0  0  0  0  0  0  0  0  0
   -4.9346   -6.1403   -0.0301 C   0  0  2  0  0  0  0  0  0  0  0  0
   -5.4938   -7.3239    0.7712 C   0  0  0  0  0  0  0  0  0  0  0  0
   -3.6735   -6.5679   -0.7570 C   0  0  0  0  0  0  0  0  0  0  0  0
   -3.6127   -6.4492   -2.0098 O   0  0  0  0  0  0  0  0  0  0  0  0
   -2.6157   -7.2447   -0.0519 N   0  0  0  0  0  0  0  0  0  0  0  0
   -2.0333   -8.4704   -0.6145 C   0  0  2  0  0  0  0  0  0  0  0  0
   -1.5566   -9.4140    0.4901 C   0  0  0  0  0  0  0  0  0  0  0  0
   -0.9603   -8.1371   -1.6301 C   0  0  0  0  0  0  0  0  0  0  0  0
   -1.1196   -8.5298   -2.8182 O   0  0  0  0  0  0  0  0  0  0  0  0
    0.1700   -7.2990   -1.3258 N   0  0  0  0  0  0  0  0  0  0  0  0
    1.1889   -7.6297   -0.3160 C   0  0  1  0  0  0  0  0  0  0  0  0
    1.6614   -9.0568   -0.4950 C   0  0  0  0  0  0  0  0  0  0  0  0
    2.1367   -9.5213   -1.7634 N   0  0  0  0  0  0  0  0  0  0  0  0
    1.6364   -9.8508    0.4835 O   0  0  0  0  0  0  0  0  0  0  0  0
    2.3798   -6.6545   -0.4235 C   0  0  0  0  0  0  0  0  0  0  0  0
    3.6617   -7.0223    0.8362 S   0  0  0  0  0  0  0  0  0  0  0  0
    3.6479   -5.4080    1.6987 C   0  0  0  0  0  0  0  0  0  0  0  0
   12.9909   -1.1664   -1.2026 H   0  0  0  0  0  0  0  0  0  0  0  0
   12.5088   -2.2170   -2.5879 H   0  0  0  0  0  0  0  0  0  0  0  0
   12.4840   -2.8766   -0.9016 H   0  0  0  0  0  0  0  0  0  0  0  0
   11.0697   -1.2282    0.7555 H   0  0  0  0  0  0  0  0  0  0  0  0
    8.3949   -0.8574   -0.6661 H   0  0  0  0  0  0  0  0  0  0  0  0
    9.0405   -2.5739    1.7995 H   0  0  0  0  0  0  0  0  0  0  0  0
    7.3844   -2.1931    1.2332 H   0  0  0  0  0  0  0  0  0  0  0  0
    7.0930   -4.2651   -2.0617 H   0  0  0  0  0  0  0  0  0  0  0  0
    7.3948   -2.5139   -1.9279 H   0  0  0  0  0  0  0  0  0  0  0  0
    5.9782   -5.2724    0.2612 H   0  0  0  0  0  0  0  0  0  0  0  0
    2.4751   -2.9897    1.2752 H   0  0  0  0  0  0  0  0  0  0  0  0
    5.4730   -1.3024   -1.3000 H   0  0  0  0  0  0  0  0  0  0  0  0
    3.4512   -0.0775   -0.9328 H   0  0  0  0  0  0  0  0  0  0  0  0
    2.0390   -0.9795   -0.3302 H   0  0  0  0  0  0  0  0  0  0  0  0
    5.4810    0.2543    0.8063 H   0  0  0  0  0  0  0  0  0  0  0  0
    5.1621    1.2265    2.2456 H   0  0  0  0  0  0  0  0  0  0  0  0
    3.6581    2.2600   -0.1570 H   0  0  0  0  0  0  0  0  0  0  0  0
    5.5398    1.4190   -1.4188 H   0  0  0  0  0  0  0  0  0  0  0  0
    8.0545    1.1210   -1.2868 H   0  0  0  0  0  0  0  0  0  0  0  0
    9.6284    3.5014   -0.1247 H   0  0  0  0  0  0  0  0  0  0  0  0
    9.3796    3.1522   -1.8892 H   0  0  0  0  0  0  0  0  0  0  0  0
   10.3182    1.9997   -0.8540 H   0  0  0  0  0  0  0  0  0  0  0  0
    8.1089    2.0880    1.6036 H   0  0  0  0  0  0  0  0  0  0  0  0
    4.3933    5.5930    1.0538 H   0  0  0  0  0  0  0  0  0  0  0  0
    2.1382    5.5442    1.5791 H   0  0  0  0  0  0  0  0  0  0  0  0
    2.3425    3.1763    2.5390 H   0  0  0  0  0  0  0  0  0  0  0  0
    1.7431    2.6053    0.9220 H   0  0  0  0  0  0  0  0  0  0  0  0
    0.7503    3.7158    1.9044 H   0  0  0  0  0  0  0  0  0  0  0  0
    0.3559    5.7463   -1.5604 H   0  0  0  0  0  0  0  0  0  0  0  0
    0.8676    7.9563   -1.3400 H   0  0  0  0  0  0  0  0  0  0  0  0
    3.2773    7.4686   -0.9957 H   0  0  0  0  0  0  0  0  0  0  0  0
    2.9891    7.4837    0.7905 H   0  0  0  0  0  0  0  0  0  0  0  0
    2.6498    8.9445   -0.1803 H   0  0  0  0  0  0  0  0  0  0  0  0
   -1.5025    8.7770    1.3681 H   0  0  0  0  0  0  0  0  0  0  0  0
   -1.3265    7.9550   -1.5273 H   0  0  0  0  0  0  0  0  0  0  0  0
   -1.5766   10.3111   -2.3141 H   0  0  0  0  0  0  0  0  0  0  0  0
   -0.0155   10.0965   -1.4488 H   0  0  0  0  0  0  0  0  0  0  0  0
   -1.3760   10.9159   -0.6193 H   0  0  0  0  0  0  0  0  0  0  0  0
   -4.7237    7.5557   -1.4337 H   0  0  0  0  0  0  0  0  0  0  0  0
   -2.5559    6.3442    0.3510 H   0  0  0  0  0  0  0  0  0  0  0  0
   -4.4774    4.9521   -1.6128 H   0  0  0  0  0  0  0  0  0  0  0  0
   -3.3097    4.1336   -0.4898 H   0  0  0  0  0  0  0  0  0  0  0  0
   -2.6987    5.1915   -1.8150 H   0  0  0  0  0  0  0  0  0  0  0  0
   -4.9499    4.1908    1.6967 H   0  0  0  0  0  0  0  0  0  0  0  0
   -6.4761    3.9297   -0.2987 H   0  0  0  0  0  0  0  0  0  0  0  0
   -7.3304    6.7909    0.4511 H   0  0  0  0  0  0  0  0  0  0  0  0
   -6.5599    6.2269   -1.0910 H   0  0  0  0  0  0  0  0  0  0  0  0
   -8.2198    5.7086   -0.6858 H   0  0  0  0  0  0  0  0  0  0  0  0
   -9.5261    3.2327    1.8340 H   0  0  0  0  0  0  0  0  0  0  0  0
   -8.5209    3.2367   -0.9833 H   0  0  0  0  0  0  0  0  0  0  0  0
  -10.4133    1.6968   -1.3870 H   0  0  0  0  0  0  0  0  0  0  0  0
  -10.9210    3.2079   -0.5440 H   0  0  0  0  0  0  0  0  0  0  0  0
  -10.7823    1.6739    0.3875 H   0  0  0  0  0  0  0  0  0  0  0  0
   -9.1778   -0.1853    0.8198 H   0  0  0  0  0  0  0  0  0  0  0  0
   -7.7196   -0.5203   -1.8479 H   0  0  0  0  0  0  0  0  0  0  0  0
  -10.1891   -1.0403   -1.7442 H   0  0  0  0  0  0  0  0  0  0  0  0
   -9.1709   -2.4298   -2.2404 H   0  0  0  0  0  0  0  0  0  0  0  0
   -9.8404   -2.3543   -0.5559 H   0  0  0  0  0  0  0  0  0  0  0  0
   -7.5847   -3.7771   -1.1792 H   0  0  0  0  0  0  0  0  0  0  0  0
   -7.3925   -5.1599    0.6403 H   0  0  0  0  0  0  0  0  0  0  0  0
   -8.0139   -4.3200    2.8697 H   0  0  0  0  0  0  0  0  0  0  0  0
   -9.1248   -3.7149    1.5787 H   0  0  0  0  0  0  0  0  0  0  0  0
   -7.8831   -2.6104    2.2812 H   0  0  0  0  0  0  0  0  0  0  0  0
   -3.6732   -4.8682    1.1984 H   0  0  0  0  0  0  0  0  0  0  0  0
   -5.6794   -5.8355   -0.7973 H   0  0  0  0  0  0  0  0  0  0  0  0
   -4.7880   -7.6269    1.5731 H   0  0  0  0  0  0  0  0  0  0  0  0
   -5.6685   -8.1907    0.0955 H   0  0  0  0  0  0  0  0  0  0  0  0
   -6.4542   -7.0617    1.2557 H   0  0  0  0  0  0  0  0  0  0  0  0
   -2.5375   -7.0782    0.9708 H   0  0  0  0  0  0  0  0  0  0  0  0
   -2.8382   -9.0231   -1.1486 H   0  0  0  0  0  0  0  0  0  0  0  0
   -2.4301   -9.7871    1.0608 H   0  0  0  0  0  0  0  0  0  0  0  0
   -1.0389  -10.2943    0.0475 H   0  0  0  0  0  0  0  0  0  0  0  0
   -0.8845   -8.9052    1.2048 H   0  0  0  0  0  0  0  0  0  0  0  0
    0.4142   -6.5914   -2.0609 H   0  0  0  0  0  0  0  0  0  0  0  0
    0.7489   -7.4843    0.6954 H   0  0  0  0  0  0  0  0  0  0  0  0
    2.4197  -10.5202   -1.8810 H   0  0  0  0  0  0  0  0  0  0  0  0
    2.2184   -8.8602   -2.5653 H   0  0  0  0  0  0  0  0  0  0  0  0
    2.8608   -6.7487   -1.4263 H   0  0  0  0  0  0  0  0  0  0  0  0
    2.0082   -5.6104   -0.3356 H   0  0  0  0  0  0  0  0  0  0  0  0
    2.6198   -5.2169    2.0688 H   0  0  0  0  0  0  0  0  0  0  0  0
    4.3130   -5.4810    2.5880 H   0  0  0  0  0  0  0  0  0  0  0  0
  1  2  1  0
  2  3  2  0
  2  4  1  0
  4  5  1  0
  5  6  1  0
  6  7  1  0
  7  8  1  0
  8  9  1  0
  9 10  1  0
 10 11  2  0
 11 12  1  0
 12 13  2  0
 13 14  1  0
 13 15  1  0
 15 16  1  0
 16 17  1  0
 17 18  1  0
 18 19  1  0
 19 20  1  0
 20 21  2  0
 20 22  1  0
 22 23  1  0
 22 24  1  0
 24 25  1  0
 25 26  2  0
 18 27  1  0
 27 28  2  0
 27 29  1  0
 29 30  1  0
 30 31  1  0
 30 32  1  0
 32 33  2  0
 32 34  1  0
 34 35  1  0
 35 36  1  0
 35 37  1  0
 37 38  2  0
 37 39  1  0
 39 40  1  0
 40 41  1  0
 40 42  1  0
 42 43  2  0
 42 44  1  0
 44 45  1  0
 45 46  1  0
 45 47  1  0
 47 48  2  0
 47 49  1  0
 49 50  1  0
 50 51  1  0
 50 52  1  0
 52 53  2  0
 52 54  1  0
 54 55  1  0
 55 56  1  0
 55 57  1  0
 57 58  2  0
 57 59  1  0
 59 60  1  0
 60 61  1  0
 60 62  1  0
 62 63  2  0
 62 64  1  0
 64 65  1  0
 65 66  1  0
 65 67  1  0
 67 68  2  0
 67 69  1  0
 69 70  1  0
 70 71  1  0
 70 72  1  0
 72 73  2  0
 72 74  1  0
 74 75  1  0
 75 76  1  0
 75 77  1  0
 77 78  2  0
 77 79  1  0
 79 80  1  0
 80 81  1  0
 81 82  1  0
 81 83  2  0
 80 84  1  0
 84 85  1  0
 85 86  1  0
 25  5  1  0
 14  9  2  0
 86 11  1  0
  1 87  1  0
  1 88  1  0
  1 89  1  0
  4 90  1  0
  5 91  1  6
  6 92  1  0
  6 93  1  0
  8 94  1  0
  8 95  1  0
 10 96  1  0
 12 97  1  0
 14 98  1  0
 15 99  1  0
 15100  1  0
 17101  1  0
 17102  1  0
 18103  1  6
 19104  1  0
 22105  1  6
 23106  1  0
 23107  1  0
 23108  1  0
 24109  1  0
 29110  1  0
 30111  1  1
 31112  1  0
 31113  1  0
 31114  1  0
 34115  1  0
 35116  1  6
 36117  1  0
 36118  1  0
 36119  1  0
 39120  1  0
 40121  1  6
 41122  1  0
 41123  1  0
 41124  1  0
 44125  1  0
 45126  1  1
 46127  1  0
 46128  1  0
 46129  1  0
 49130  1  0
 50131  1  6
 51132  1  0
 51133  1  0
 51134  1  0
 54135  1  0
 55136  1  6
 56137  1  0
 56138  1  0
 56139  1  0
 59140  1  0
 60141  1  6
 61142  1  0
 61143  1  0
 61144  1  0
 64145  1  0
 65146  1  6
 66147  1  0
 66148  1  0
 66149  1  0
 69150  1  0
 70151  1  6
 71152  1  0
 71153  1  0
 71154  1  0
 74155  1  0
 75156  1  6
 76157  1  0
 76158  1  0
 76159  1  0
 79160  1  0
 80161  1  1
 82162  1  0
 82163  1  0
 84164  1  0
 84165  1  0
 86166  1  0
 86167  1  0
M  END
