
     RDKit          3D

197199  0  0  0  0  0  0  0  0999 V2000
   -1.1350    9.6302    2.8452 C   0  0  0  0  0  0  0  0  0  0  0  0
   -0.5576    8.4854    2.0725 C   0  0  0  0  0  0  0  0  0  0  0  0
   -0.1649    7.4568    2.6896 O   0  0  0  0  0  0  0  0  0  0  0  0
   -0.4495    8.5688    0.6434 N   0  0  0  0  0  0  0  0  0  0  0  0
    0.1573    7.5062   -0.1644 C   0  0  1  0  0  0  0  0  0  0  0  0
   -0.8910    6.4330   -0.4880 C   0  0  0  0  0  0  0  0  0  0  0  0
   -0.1097    5.0184   -1.3532 S   0  0  0  0  0  0  0  0  0  0  0  0
   -1.5160    4.5868   -2.4403 C   0  0  0  0  0  0  0  0  0  0  0  0
   -2.4795    3.6750   -1.7290 C   0  0  0  0  0  0  0  0  0  0  0  0
   -3.3985    4.2014   -0.8086 C   0  0  0  0  0  0  0  0  0  0  0  0
   -4.2957    3.3584   -0.1369 C   0  0  0  0  0  0  0  0  0  0  0  0
   -4.2796    1.9836   -0.3973 C   0  0  0  0  0  0  0  0  0  0  0  0
   -3.3929    1.4482   -1.3409 C   0  0  0  0  0  0  0  0  0  0  0  0
   -2.5034    2.3025   -2.0141 C   0  0  0  0  0  0  0  0  0  0  0  0
   -3.4760   -0.0068   -1.7154 C   0  0  0  0  0  0  0  0  0  0  0  0
   -1.8309   -0.8124   -1.6499 S   0  0  0  0  0  0  0  0  0  0  0  0
   -2.0950   -1.8379   -0.1491 C   0  0  0  0  0  0  0  0  0  0  0  0
   -2.4386   -3.3133   -0.4539 C   0  0  2  0  0  0  0  0  0  0  0  0
   -1.4071   -3.9395   -1.2911 N   0  0  0  0  0  0  0  0  0  0  0  0
   -1.0059   -5.3225   -1.2436 C   0  0  0  0  0  0  0  0  0  0  0  0
   -0.1875   -5.7331   -2.1145 O   0  0  0  0  0  0  0  0  0  0  0  0
   -1.4981   -6.3045   -0.1968 C   0  0  1  0  0  0  0  0  0  0  0  0
   -1.9153   -7.6290   -0.8434 C   0  0  0  0  0  0  0  0  0  0  0  0
   -0.5080   -6.5551    0.8625 N   0  0  0  0  0  0  0  0  0  0  0  0
    0.9141   -6.4772    0.6594 C   0  0  0  0  0  0  0  0  0  0  0  0
    1.4392   -5.3646    0.3833 O   0  0  0  0  0  0  0  0  0  0  0  0
    1.7962   -7.7032    0.7171 C   0  0  1  0  0  0  0  0  0  0  0  0
    1.1324   -8.8835    1.4345 C   0  0  0  0  0  0  0  0  0  0  0  0
    2.1408   -8.1031   -0.6488 N   0  0  0  0  0  0  0  0  0  0  0  0
    3.4350   -8.5520   -1.0952 C   0  0  0  0  0  0  0  0  0  0  0  0
    3.5007   -9.2233   -2.1612 O   0  0  0  0  0  0  0  0  0  0  0  0
    4.7130   -8.2771   -0.3335 C   0  0  1  0  0  0  0  0  0  0  0  0
    5.0576   -9.4640    0.5658 C   0  0  0  0  0  0  0  0  0  0  0  0
    5.8098   -8.0427   -1.2803 N   0  0  0  0  0  0  0  0  0  0  0  0
    6.5619   -6.8220   -1.4619 C   0  0  0  0  0  0  0  0  0  0  0  0
    7.3751   -6.7689   -2.4268 O   0  0  0  0  0  0  0  0  0  0  0  0
    6.4802   -5.6131   -0.5481 C   0  0  1  0  0  0  0  0  0  0  0  0
    5.0968   -4.9426   -0.5257 C   0  0  0  0  0  0  0  0  0  0  0  0
    6.9374   -5.9565    0.8037 N   0  0  0  0  0  0  0  0  0  0  0  0
    8.0722   -5.3432    1.4306 C   0  0  0  0  0  0  0  0  0  0  0  0
    8.8110   -6.0428    2.1788 O   0  0  0  0  0  0  0  0  0  0  0  0
    8.3960   -3.8820    1.2327 C   0  0  1  0  0  0  0  0  0  0  0  0
    8.6809   -3.2073    2.5846 C   0  0  0  0  0  0  0  0  0  0  0  0
    9.5035   -3.7483    0.2744 N   0  0  0  0  0  0  0  0  0  0  0  0
   10.6409   -2.9093    0.4972 C   0  0  0  0  0  0  0  0  0  0  0  0
   11.5553   -3.2958    1.2773 O   0  0  0  0  0  0  0  0  0  0  0  0
   10.7847   -1.5934   -0.2210 C   0  0  1  0  0  0  0  0  0  0  0  0
   11.6219   -1.7539   -1.4899 C   0  0  0  0  0  0  0  0  0  0  0  0
    9.4699   -1.0390   -0.5626 N   0  0  0  0  0  0  0  0  0  0  0  0
    8.8077   -0.0390    0.2244 C   0  0  0  0  0  0  0  0  0  0  0  0
    7.7429   -0.3488    0.8243 O   0  0  0  0  0  0  0  0  0  0  0  0
    9.2477    1.4111    0.2198 C   0  0  1  0  0  0  0  0  0  0  0  0
   10.6438    1.5937    0.8173 C   0  0  0  0  0  0  0  0  0  0  0  0
    9.1921    1.9487   -1.1466 N   0  0  0  0  0  0  0  0  0  0  0  0
    8.9792    3.3335   -1.4798 C   0  0  0  0  0  0  0  0  0  0  0  0
    8.6948    3.6297   -2.6716 O   0  0  0  0  0  0  0  0  0  0  0  0
    9.1709    4.4543   -0.4828 C   0  0  1  0  0  0  0  0  0  0  0  0
   10.5596    5.0771   -0.6739 C   0  0  0  0  0  0  0  0  0  0  0  0
    8.1309    5.4747   -0.6443 N   0  0  0  0  0  0  0  0  0  0  0  0
    6.8083    5.2975   -0.1192 C   0  0  0  0  0  0  0  0  0  0  0  0
    6.3535    4.1360    0.0714 O   0  0  0  0  0  0  0  0  0  0  0  0
    5.9676    6.4906    0.2633 C   0  0  1  0  0  0  0  0  0  0  0  0
    6.6593    7.2707    1.3833 C   0  0  0  0  0  0  0  0  0  0  0  0
    5.7604    7.3548   -0.9019 N   0  0  0  0  0  0  0  0  0  0  0  0
    4.5024    7.4763   -1.5829 C   0  0  0  0  0  0  0  0  0  0  0  0
    4.4941    7.4016   -2.8397 O   0  0  0  0  0  0  0  0  0  0  0  0
    3.1956    7.6694   -0.8287 C   0  0  1  0  0  0  0  0  0  0  0  0
    3.3638    8.6767    0.3197 C   0  0  0  0  0  0  0  0  0  0  0  0
    2.1365    8.1468   -1.7305 N   0  0  0  0  0  0  0  0  0  0  0  0
    0.7261    8.1019   -1.4418 C   0  0  0  0  0  0  0  0  0  0  0  0
   -0.0770    8.6002   -2.2801 O   0  0  0  0  0  0  0  0  0  0  0  0
   -3.7962   -3.4765   -1.0917 C   0  0  0  0  0  0  0  0  0  0  0  0
   -4.0533   -2.9292   -2.1980 O   0  0  0  0  0  0  0  0  0  0  0  0
   -4.7808   -4.3144   -0.4777 N   0  0  0  0  0  0  0  0  0  0  0  0
   -6.1031   -3.8070   -0.0993 C   0  0  2  0  0  0  0  0  0  0  0  0
   -5.9889   -3.0321    1.2147 C   0  0  0  0  0  0  0  0  0  0  0  0
   -7.0796   -4.9479    0.0458 C   0  0  0  0  0  0  0  0  0  0  0  0
   -6.7602   -5.9663    0.7194 O   0  0  0  0  0  0  0  0  0  0  0  0
   -8.3593   -4.9175   -0.6028 N   0  0  0  0  0  0  0  0  0  0  0  0
   -9.3030   -3.8170   -0.3866 C   0  0  2  0  0  0  0  0  0  0  0  0
  -10.2358   -4.1837    0.7703 C   0  0  0  0  0  0  0  0  0  0  0  0
  -10.0954   -3.5436   -1.6462 C   0  0  0  0  0  0  0  0  0  0  0  0
  -10.3732   -4.5020   -2.4205 O   0  0  0  0  0  0  0  0  0  0  0  0
  -10.5350   -2.2177   -2.0031 N   0  0  0  0  0  0  0  0  0  0  0  0
  -10.9444   -1.2106   -1.0142 C   0  0  2  0  0  0  0  0  0  0  0  0
  -12.4423   -1.3612   -0.7286 C   0  0  0  0  0  0  0  0  0  0  0  0
  -10.6465    0.1864   -1.5097 C   0  0  0  0  0  0  0  0  0  0  0  0
  -10.6833    0.4201   -2.7495 O   0  0  0  0  0  0  0  0  0  0  0  0
  -10.3249    1.2726   -0.6186 N   0  0  0  0  0  0  0  0  0  0  0  0
  -10.5914    1.2975    0.8243 C   0  0  2  0  0  0  0  0  0  0  0  0
  -11.8198    2.1672    1.1186 C   0  0  0  0  0  0  0  0  0  0  0  0
   -9.3450    1.7311    1.5583 C   0  0  0  0  0  0  0  0  0  0  0  0
   -8.3809    0.9263    1.6348 O   0  0  0  0  0  0  0  0  0  0  0  0
   -9.2355    3.0038    2.2095 N   0  0  0  0  0  0  0  0  0  0  0  0
   -9.2736    4.2718    1.4679 C   0  0  1  0  0  0  0  0  0  0  0  0
  -10.1201    5.2829    2.1964 C   0  0  0  0  0  0  0  0  0  0  0  0
  -10.6299    6.4171    1.5017 N   0  0  0  0  0  0  0  0  0  0  0  0
  -10.3810    5.1397    3.4217 O   0  0  0  0  0  0  0  0  0  0  0  0
   -7.8517    4.8068    1.2696 C   0  0  0  0  0  0  0  0  0  0  0  0
   -6.9727    3.7808    0.0379 S   0  0  0  0  0  0  0  0  0  0  0  0
   -5.3208    3.9375    0.7958 C   0  0  0  0  0  0  0  0  0  0  0  0
   -2.1721    9.8256    2.4984 H   0  0  0  0  0  0  0  0  0  0  0  0
   -1.1572    9.3999    3.9327 H   0  0  0  0  0  0  0  0  0  0  0  0
   -0.5169   10.5387    2.6808 H   0  0  0  0  0  0  0  0  0  0  0  0
   -0.8394    9.4168    0.1726 H   0  0  0  0  0  0  0  0  0  0  0  0
    0.9557    7.0249    0.4333 H   0  0  0  0  0  0  0  0  0  0  0  0
   -1.7059    6.8904   -1.0909 H   0  0  0  0  0  0  0  0  0  0  0  0
   -1.3348    6.0571    0.4583 H   0  0  0  0  0  0  0  0  0  0  0  0
   -1.0928    4.0769   -3.3308 H   0  0  0  0  0  0  0  0  0  0  0  0
   -2.0405    5.4898   -2.8207 H   0  0  0  0  0  0  0  0  0  0  0  0
   -3.4381    5.2692   -0.6355 H   0  0  0  0  0  0  0  0  0  0  0  0
   -4.9866    1.3361    0.1082 H   0  0  0  0  0  0  0  0  0  0  0  0
   -1.8377    1.8993   -2.7681 H   0  0  0  0  0  0  0  0  0  0  0  0
   -4.2171   -0.5415   -1.0854 H   0  0  0  0  0  0  0  0  0  0  0  0
   -3.8403   -0.0701   -2.7628 H   0  0  0  0  0  0  0  0  0  0  0  0
   -2.8599   -1.3879    0.5180 H   0  0  0  0  0  0  0  0  0  0  0  0
   -1.1406   -1.8207    0.4189 H   0  0  0  0  0  0  0  0  0  0  0  0
   -2.4604   -3.8019    0.5413 H   0  0  0  0  0  0  0  0  0  0  0  0
   -1.0222   -3.3830   -2.0874 H   0  0  0  0  0  0  0  0  0  0  0  0
   -2.4078   -5.9167    0.2914 H   0  0  0  0  0  0  0  0  0  0  0  0
   -2.3248   -8.3163   -0.0720 H   0  0  0  0  0  0  0  0  0  0  0  0
   -2.7070   -7.4510   -1.6045 H   0  0  0  0  0  0  0  0  0  0  0  0
   -1.0497   -8.1240   -1.3293 H   0  0  0  0  0  0  0  0  0  0  0  0
   -0.8424   -7.1350    1.6605 H   0  0  0  0  0  0  0  0  0  0  0  0
    2.6951   -7.4376    1.3051 H   0  0  0  0  0  0  0  0  0  0  0  0
    1.8330   -9.7446    1.4726 H   0  0  0  0  0  0  0  0  0  0  0  0
    0.2163   -9.2081    0.8976 H   0  0  0  0  0  0  0  0  0  0  0  0
    0.8714   -8.6088    2.4783 H   0  0  0  0  0  0  0  0  0  0  0  0
    1.3487   -8.2344   -1.3196 H   0  0  0  0  0  0  0  0  0  0  0  0
    4.5818   -7.4024    0.3100 H   0  0  0  0  0  0  0  0  0  0  0  0
    4.2732   -9.6016    1.3371 H   0  0  0  0  0  0  0  0  0  0  0  0
    5.1386  -10.3959   -0.0340 H   0  0  0  0  0  0  0  0  0  0  0  0
    6.0255   -9.2845    1.0784 H   0  0  0  0  0  0  0  0  0  0  0  0
    6.0729   -8.8390   -1.9052 H   0  0  0  0  0  0  0  0  0  0  0  0
    7.1657   -4.8568   -0.9846 H   0  0  0  0  0  0  0  0  0  0  0  0
    4.4870   -5.2536    0.3482 H   0  0  0  0  0  0  0  0  0  0  0  0
    4.5352   -5.1460   -1.4611 H   0  0  0  0  0  0  0  0  0  0  0  0
    5.2169   -3.8422   -0.4393 H   0  0  0  0  0  0  0  0  0  0  0  0
    6.5338   -6.7921    1.2814 H   0  0  0  0  0  0  0  0  0  0  0  0
    7.5048   -3.3728    0.8015 H   0  0  0  0  0  0  0  0  0  0  0  0
    7.8151   -3.3422    3.2665 H   0  0  0  0  0  0  0  0  0  0  0  0
    9.5845   -3.6428    3.0645 H   0  0  0  0  0  0  0  0  0  0  0  0
    8.8389   -2.1178    2.4457 H   0  0  0  0  0  0  0  0  0  0  0  0
    9.3771   -4.1326   -0.6897 H   0  0  0  0  0  0  0  0  0  0  0  0
   11.3245   -0.9132    0.4621 H   0  0  0  0  0  0  0  0  0  0  0  0
   11.1302   -2.4626   -2.1945 H   0  0  0  0  0  0  0  0  0  0  0  0
   12.6356   -2.1340   -1.2378 H   0  0  0  0  0  0  0  0  0  0  0  0
   11.7313   -0.7670   -1.9896 H   0  0  0  0  0  0  0  0  0  0  0  0
    8.8683   -1.5931   -1.2187 H   0  0  0  0  0  0  0  0  0  0  0  0
    8.5239    1.9615    0.8580 H   0  0  0  0  0  0  0  0  0  0  0  0
   10.8141    2.6527    1.0994 H   0  0  0  0  0  0  0  0  0  0  0  0
   11.4277    1.3147    0.0806 H   0  0  0  0  0  0  0  0  0  0  0  0
   10.7588    0.9899    1.7410 H   0  0  0  0  0  0  0  0  0  0  0  0
    9.2539    1.2800   -1.9476 H   0  0  0  0  0  0  0  0  0  0  0  0
    9.1158    4.0849    0.5591 H   0  0  0  0  0  0  0  0  0  0  0  0
   10.7119    5.8895    0.0709 H   0  0  0  0  0  0  0  0  0  0  0  0
   10.6532    5.5142   -1.6897 H   0  0  0  0  0  0  0  0  0  0  0  0
   11.3574    4.3155   -0.5316 H   0  0  0  0  0  0  0  0  0  0  0  0
    8.4086    6.4254   -0.9736 H   0  0  0  0  0  0  0  0  0  0  0  0
    4.9914    6.1262    0.6525 H   0  0  0  0  0  0  0  0  0  0  0  0
    6.0468    8.1423    1.7040 H   0  0  0  0  0  0  0  0  0  0  0  0
    6.8120    6.6143    2.2678 H   0  0  0  0  0  0  0  0  0  0  0  0
    7.6503    7.6505    1.0518 H   0  0  0  0  0  0  0  0  0  0  0  0
    6.5962    7.7594   -1.3813 H   0  0  0  0  0  0  0  0  0  0  0  0
    2.9137    6.6709   -0.4299 H   0  0  0  0  0  0  0  0  0  0  0  0
    2.3830    9.0777    0.6489 H   0  0  0  0  0  0  0  0  0  0  0  0
    3.9930    9.5360    0.0015 H   0  0  0  0  0  0  0  0  0  0  0  0
    3.8216    8.1839    1.1974 H   0  0  0  0  0  0  0  0  0  0  0  0
    2.4071    8.6787   -2.5901 H   0  0  0  0  0  0  0  0  0  0  0  0
   -4.5222   -5.3120   -0.2854 H   0  0  0  0  0  0  0  0  0  0  0  0
   -6.4705   -3.1179   -0.8940 H   0  0  0  0  0  0  0  0  0  0  0  0
   -5.5616   -3.6738    2.0128 H   0  0  0  0  0  0  0  0  0  0  0  0
   -6.9868   -2.6708    1.5429 H   0  0  0  0  0  0  0  0  0  0  0  0
   -5.3293   -2.1512    1.0742 H   0  0  0  0  0  0  0  0  0  0  0  0
   -8.7528   -5.8399   -0.8950 H   0  0  0  0  0  0  0  0  0  0  0  0
   -8.7411   -2.8976   -0.1127 H   0  0  0  0  0  0  0  0  0  0  0  0
   -9.6352   -4.4766    1.6601 H   0  0  0  0  0  0  0  0  0  0  0  0
  -10.8899   -5.0410    0.4920 H   0  0  0  0  0  0  0  0  0  0  0  0
  -10.8748   -3.3257    1.0637 H   0  0  0  0  0  0  0  0  0  0  0  0
  -10.8857   -2.1000   -2.9808 H   0  0  0  0  0  0  0  0  0  0  0  0
  -10.3782   -1.3734   -0.0771 H   0  0  0  0  0  0  0  0  0  0  0  0
  -13.0356   -1.1275   -1.6392 H   0  0  0  0  0  0  0  0  0  0  0  0
  -12.6691   -2.4024   -0.4182 H   0  0  0  0  0  0  0  0  0  0  0  0
  -12.7558   -0.6803    0.0883 H   0  0  0  0  0  0  0  0  0  0  0  0
   -9.9879    2.1605   -1.0555 H   0  0  0  0  0  0  0  0  0  0  0  0
  -10.8383    0.2899    1.2083 H   0  0  0  0  0  0  0  0  0  0  0  0
  -11.9449    2.3109    2.2137 H   0  0  0  0  0  0  0  0  0  0  0  0
  -12.7341    1.6670    0.7342 H   0  0  0  0  0  0  0  0  0  0  0  0
  -11.7550    3.1569    0.6268 H   0  0  0  0  0  0  0  0  0  0  0  0
   -8.7816    3.0134    3.1524 H   0  0  0  0  0  0  0  0  0  0  0  0
   -9.7283    4.1127    0.4662 H   0  0  0  0  0  0  0  0  0  0  0  0
  -11.2755    7.0892    1.9768 H   0  0  0  0  0  0  0  0  0  0  0  0
  -10.4442    6.5424    0.4821 H   0  0  0  0  0  0  0  0  0  0  0  0
   -7.3208    4.8251    2.2473 H   0  0  0  0  0  0  0  0  0  0  0  0
   -7.8811    5.8475    0.8792 H   0  0  0  0  0  0  0  0  0  0  0  0
   -5.3009    3.3837    1.7569 H   0  0  0  0  0  0  0  0  0  0  0  0
   -5.1068    5.0074    1.0058 H   0  0  0  0  0  0  0  0  0  0  0  0
  1  2  1  0
  2  3  2  0
  2  4  1  0
  4  5  1  0
  5  6  1  0
  6  7  1  0
  7  8  1  0
  8  9  1  0
  9 10  2  0
 10 11  1  0
 11 12  2  0
 12 13  1  0
 13 14  2  0
 13 15  1  0
 15 16  1  0
 16 17  1  0
 17 18  1  0
 18 19  1  0
 19 20  1  0
 20 21  2  0
 20 22  1  0
 22 23  1  0
 22 24  1  0
 24 25  1  0
 25 26  2  0
 25 27  1  0
 27 28  1  0
 27 29  1  0
 29 30  1  0
 30 31  2  0
 30 32  1  0
 32 33  1  0
 32 34  1  0
 34 35  1  0
 35 36  2  0
 35 37  1  0
 37 38  1  0
 37 39  1  0
 39 40  1  0
 40 41  2  0
 40 42  1  0
 42 43  1  0
 42 44  1  0
 44 45  1  0
 45 46  2  0
 45 47  1  0
 47 48  1  0
 47 49  1  0
 49 50  1  0
 50 51  2  0
 50 52  1  0
 52 53  1  0
 52 54  1  0
 54 55  1  0
 55 56  2  0
 55 57  1  0
 57 58  1  0
 57 59  1  0
 59 60  1  0
 60 61  2  0
 60 62  1  0
 62 63  1  0
 62 64  1  0
 64 65  1  0
 65 66  2  0
 65 67  1  0
 67 68  1  0
 67 69  1  0
 69 70  1  0
 70 71  2  0
 18 72  1  0
 72 73  2  0
 72 74  1  0
 74 75  1  0
 75 76  1  0
 75 77  1  0
 77 78  2  0
 77 79  1  0
 79 80  1  0
 80 81  1  0
 80 82  1  0
 82 83  2  0
 82 84  1  0
 84 85  1  0
 85 86  1  0
 85 87  1  0
 87 88  2  0
 87 89  1  0
 89 90  1  0
 90 91  1  0
 90 92  1  0
 92 93  2  0
 92 94  1  0
 94 95  1  0
 95 96  1  0
 96 97  1  0
 96 98  2  0
 95 99  1  0
 99100  1  0
100101  1  0
 70  5  1  0
 14  9  1  0
101 11  1  0
  1102  1  0
  1103  1  0
  1104  1  0
  4105  1  0
  5106  1  1
  6107  1  0
  6108  1  0
  8109  1  0
  8110  1  0
 10111  1  0
 12112  1  0
 14113  1  0
 15114  1  0
 15115  1  0
 17116  1  0
 17117  1  0
 18118  1  1
 19119  1  0
 22120  1  1
 23121  1  0
 23122  1  0
 23123  1  0
 24124  1  0
 27125  1  1
 28126  1  0
 28127  1  0
 28128  1  0
 29129  1  0
 32130  1  1
 33131  1  0
 33132  1  0
 33133  1  0
 34134  1  0
 37135  1  6
 38136  1  0
 38137  1  0
 38138  1  0
 39139  1  0
 42140  1  6
 43141  1  0
 43142  1  0
 43143  1  0
 44144  1  0
 47145  1  1
 48146  1  0
 48147  1  0
 48148  1  0
 49149  1  0
 52150  1  1
 53151  1  0
 53152  1  0
 53153  1  0
 54154  1  0
 57155  1  1
 58156  1  0
 58157  1  0
 58158  1  0
 59159  1  0
 62160  1  1
 63161  1  0
 63162  1  0
 63163  1  0
 64164  1  0
 67165  1  1
 68166  1  0
 68167  1  0
 68168  1  0
 69169  1  0
 74170  1  0
 75171  1  6
 76172  1  0
 76173  1  0
 76174  1  0
 79175  1  0
 80176  1  1
 81177  1  0
 81178  1  0
 81179  1  0
 84180  1  0
 85181  1  1
 86182  1  0
 86183  1  0
 86184  1  0
 89185  1  0
 90186  1  1
 91187  1  0
 91188  1  0
 91189  1  0
 94190  1  0
 95191  1  6
 97192  1  0
 97193  1  0
 99194  1  0
 99195  1  0
101196  1  0
101197  1  0
M  END
