
     RDKit          3D

217219  0  0  0  0  0  0  0  0999 V2000
    1.2110   10.4146   -0.1250 C   0  0  0  0  0  0  0  0  0  0  0  0
    1.7216   10.1044    1.2495 C   0  0  0  0  0  0  0  0  0  0  0  0
    1.8840   11.0502    2.0669 O   0  0  0  0  0  0  0  0  0  0  0  0
    2.0364    8.7649    1.6654 N   0  0  0  0  0  0  0  0  0  0  0  0
    1.9034    7.5861    0.8002 C   0  0  2  0  0  0  0  0  0  0  0  0
    0.5448    6.9157    1.0371 C   0  0  0  0  0  0  0  0  0  0  0  0
    0.2602    5.5956   -0.2045 S   0  0  0  0  0  0  0  0  0  0  0  0
   -0.6872    4.4693    0.8804 C   0  0  0  0  0  0  0  0  0  0  0  0
   -1.7995    3.8315    0.0988 C   0  0  0  0  0  0  0  0  0  0  0  0
   -2.9063    4.6064   -0.2698 C   0  0  0  0  0  0  0  0  0  0  0  0
   -3.9869    4.0300   -0.9506 C   0  0  0  0  0  0  0  0  0  0  0  0
   -3.9317    2.6700   -1.2998 C   0  0  0  0  0  0  0  0  0  0  0  0
   -2.8187    1.8801   -0.9657 C   0  0  0  0  0  0  0  0  0  0  0  0
   -1.7515    2.4761   -0.2586 C   0  0  0  0  0  0  0  0  0  0  0  0
   -2.8011    0.4416   -1.4470 C   0  0  0  0  0  0  0  0  0  0  0  0
   -1.3450   -0.5374   -0.9083 S   0  0  0  0  0  0  0  0  0  0  0  0
   -1.9848   -0.9564    0.7598 C   0  0  0  0  0  0  0  0  0  0  0  0
   -2.7076   -2.3279    0.8846 C   0  0  2  0  0  0  0  0  0  0  0  0
   -1.8520   -3.3174    1.5585 N   0  0  0  0  0  0  0  0  0  0  0  0
   -0.9121   -4.1604    0.8789 C   0  0  0  0  0  0  0  0  0  0  0  0
   -1.2273   -5.3584    0.6630 O   0  0  0  0  0  0  0  0  0  0  0  0
    0.4790   -3.6638    0.5604 C   0  0  1  0  0  0  0  0  0  0  0  0
    1.4137   -3.8573    1.7575 C   0  0  0  0  0  0  0  0  0  0  0  0
    1.0212   -4.2742   -0.6655 N   0  0  0  0  0  0  0  0  0  0  0  0
    1.1227   -5.6845   -0.9151 C   0  0  0  0  0  0  0  0  0  0  0  0
    0.4320   -6.1845   -1.8472 O   0  0  0  0  0  0  0  0  0  0  0  0
    2.0744   -6.5711   -0.1468 C   0  0  1  0  0  0  0  0  0  0  0  0
    1.2937   -7.5772    0.7068 C   0  0  0  0  0  0  0  0  0  0  0  0
    2.9373   -7.2896   -1.0885 N   0  0  0  0  0  0  0  0  0  0  0  0
    4.2770   -6.8607   -1.3603 C   0  0  0  0  0  0  0  0  0  0  0  0
    4.5197   -6.2870   -2.4591 O   0  0  0  0  0  0  0  0  0  0  0  0
    5.3912   -7.0250   -0.3484 C   0  0  1  0  0  0  0  0  0  0  0  0
    5.0822   -8.1400    0.6580 C   0  0  0  0  0  0  0  0  0  0  0  0
    6.6583   -7.3252   -1.0358 N   0  0  0  0  0  0  0  0  0  0  0  0
    7.9704   -7.1522   -0.4733 C   0  0  0  0  0  0  0  0  0  0  0  0
    8.9711   -7.4787   -1.1674 O   0  0  0  0  0  0  0  0  0  0  0  0
    8.2107   -6.5661    0.9015 C   0  0  1  0  0  0  0  0  0  0  0  0
    8.9735   -7.5720    1.7677 C   0  0  0  0  0  0  0  0  0  0  0  0
    8.9751   -5.3233    0.7863 N   0  0  0  0  0  0  0  0  0  0  0  0
    8.4480   -4.1886    0.0904 C   0  0  0  0  0  0  0  0  0  0  0  0
    7.6203   -3.4344    0.6703 O   0  0  0  0  0  0  0  0  0  0  0  0
    8.7902   -3.9698   -1.3644 C   0  0  1  0  0  0  0  0  0  0  0  0
    8.6328   -2.5139   -1.8349 C   0  0  0  0  0  0  0  0  0  0  0  0
   10.1211   -4.4883   -1.6982 N   0  0  0  0  0  0  0  0  0  0  0  0
   11.3851   -4.1473   -1.0813 C   0  0  0  0  0  0  0  0  0  0  0  0
   12.4065   -4.8066   -1.4226 O   0  0  0  0  0  0  0  0  0  0  0  0
   11.5583   -3.0129   -0.0899 C   0  0  1  0  0  0  0  0  0  0  0  0
   12.4884   -3.4398    1.0530 C   0  0  0  0  0  0  0  0  0  0  0  0
   12.1371   -1.8535   -0.7787 N   0  0  0  0  0  0  0  0  0  0  0  0
   12.1237   -0.5113   -0.2646 C   0  0  0  0  0  0  0  0  0  0  0  0
   13.1275    0.2243   -0.4759 O   0  0  0  0  0  0  0  0  0  0  0  0
   10.9359    0.0788    0.4571 C   0  0  1  0  0  0  0  0  0  0  0  0
   11.2905    0.3183    1.9326 C   0  0  0  0  0  0  0  0  0  0  0  0
   10.5200    1.3038   -0.2476 N   0  0  0  0  0  0  0  0  0  0  0  0
   10.4762    2.6267    0.3184 C   0  0  0  0  0  0  0  0  0  0  0  0
    9.9234    2.8214    1.4348 O   0  0  0  0  0  0  0  0  0  0  0  0
   10.9933    3.8074   -0.4560 C   0  0  1  0  0  0  0  0  0  0  0  0
   12.3442    3.5022   -1.1154 C   0  0  0  0  0  0  0  0  0  0  0  0
   10.0138    4.2013   -1.4719 N   0  0  0  0  0  0  0  0  0  0  0  0
    9.2491    5.4154   -1.4283 C   0  0  0  0  0  0  0  0  0  0  0  0
    8.9494    5.9703   -2.5209 O   0  0  0  0  0  0  0  0  0  0  0  0
    8.7569    6.0163   -0.1265 C   0  0  1  0  0  0  0  0  0  0  0  0
    9.0697    7.5158   -0.0503 C   0  0  0  0  0  0  0  0  0  0  0  0
    7.3211    5.7826    0.0686 N   0  0  0  0  0  0  0  0  0  0  0  0
    6.3072    6.4128   -0.7267 C   0  0  0  0  0  0  0  0  0  0  0  0
    6.3199    6.2880   -1.9791 O   0  0  0  0  0  0  0  0  0  0  0  0
    5.1941    7.1725   -0.0528 C   0  0  1  0  0  0  0  0  0  0  0  0
    4.8686    8.4572   -0.8194 C   0  0  0  0  0  0  0  0  0  0  0  0
    4.0032    6.3349    0.0807 N   0  0  0  0  0  0  0  0  0  0  0  0
    3.0299    6.6241    1.0843 C   0  0  0  0  0  0  0  0  0  0  0  0
    3.1188    6.0652    2.2113 O   0  0  0  0  0  0  0  0  0  0  0  0
   -3.2986   -2.8798   -0.3981 C   0  0  0  0  0  0  0  0  0  0  0  0
   -2.5492   -3.1975   -1.3609 O   0  0  0  0  0  0  0  0  0  0  0  0
   -4.7190   -3.0236   -0.5488 N   0  0  0  0  0  0  0  0  0  0  0  0
   -5.4709   -4.1960   -0.0911 C   0  0  2  0  0  0  0  0  0  0  0  0
   -5.2632   -4.4524    1.4034 C   0  0  0  0  0  0  0  0  0  0  0  0
   -5.0961   -5.4251   -0.8881 C   0  0  0  0  0  0  0  0  0  0  0  0
   -3.8834   -5.7444   -0.9974 O   0  0  0  0  0  0  0  0  0  0  0  0
   -6.0811   -6.2660   -1.5138 N   0  0  0  0  0  0  0  0  0  0  0  0
   -7.4875   -6.3288   -1.1014 C   0  0  2  0  0  0  0  0  0  0  0  0
   -8.0173   -7.7524   -1.3038 C   0  0  0  0  0  0  0  0  0  0  0  0
   -8.3082   -5.3521   -1.9083 C   0  0  0  0  0  0  0  0  0  0  0  0
   -8.0873   -5.2581   -3.1468 O   0  0  0  0  0  0  0  0  0  0  0  0
   -9.3239   -4.5141   -1.3291 N   0  0  0  0  0  0  0  0  0  0  0  0
  -10.0983   -4.8388   -0.1266 C   0  0  2  0  0  0  0  0  0  0  0  0
  -11.3304   -5.6735   -0.5131 C   0  0  0  0  0  0  0  0  0  0  0  0
  -10.4680   -3.5595    0.5871 C   0  0  0  0  0  0  0  0  0  0  0  0
   -9.7537   -3.1649    1.5484 O   0  0  0  0  0  0  0  0  0  0  0  0
  -11.5849   -2.7675    0.1486 N   0  0  0  0  0  0  0  0  0  0  0  0
  -11.6913   -1.3312    0.4161 C   0  0  2  0  0  0  0  0  0  0  0  0
  -12.6535   -1.0900    1.5745 C   0  0  0  0  0  0  0  0  0  0  0  0
  -12.1760   -0.6363   -0.8263 C   0  0  0  0  0  0  0  0  0  0  0  0
  -13.2144   -1.0481   -1.4125 O   0  0  0  0  0  0  0  0  0  0  0  0
  -11.4588    0.4717   -1.3766 N   0  0  0  0  0  0  0  0  0  0  0  0
  -11.6995    1.8214   -0.8638 C   0  0  2  0  0  0  0  0  0  0  0  0
  -13.0243    2.3438   -1.4316 C   0  0  0  0  0  0  0  0  0  0  0  0
  -10.5617    2.7596   -1.2373 C   0  0  0  0  0  0  0  0  0  0  0  0
   -9.6647    2.3716   -2.0267 O   0  0  0  0  0  0  0  0  0  0  0  0
  -10.5117    4.1085   -0.7425 N   0  0  0  0  0  0  0  0  0  0  0  0
  -11.0611    4.5121    0.5607 C   0  0  2  0  0  0  0  0  0  0  0  0
  -11.2723    6.0292    0.6351 C   0  0  0  0  0  0  0  0  0  0  0  0
  -10.2144    3.9703    1.6973 C   0  0  0  0  0  0  0  0  0  0  0  0
  -10.7832    3.2405    2.5494 O   0  0  0  0  0  0  0  0  0  0  0  0
   -8.7888    4.1633    1.7991 N   0  0  0  0  0  0  0  0  0  0  0  0
   -8.0238    5.2567    1.1896 C   0  0  1  0  0  0  0  0  0  0  0  0
   -8.0508    6.4618    2.0968 C   0  0  0  0  0  0  0  0  0  0  0  0
   -8.1593    7.7758    1.5484 N   0  0  0  0  0  0  0  0  0  0  0  0
   -7.9543    6.3131    3.3455 O   0  0  0  0  0  0  0  0  0  0  0  0
   -6.5793    4.8071    0.9331 C   0  0  0  0  0  0  0  0  0  0  0  0
   -5.7142    6.0398   -0.1145 S   0  0  0  0  0  0  0  0  0  0  0  0
   -5.1425    4.8829   -1.4142 C   0  0  0  0  0  0  0  0  0  0  0  0
    1.9631   10.1190   -0.8842 H   0  0  0  0  0  0  0  0  0  0  0  0
    1.0229   11.5039   -0.2326 H   0  0  0  0  0  0  0  0  0  0  0  0
    0.2618    9.8697   -0.3085 H   0  0  0  0  0  0  0  0  0  0  0  0
    2.2666    8.6137    2.6751 H   0  0  0  0  0  0  0  0  0  0  0  0
    1.9719    7.8885   -0.2659 H   0  0  0  0  0  0  0  0  0  0  0  0
    0.5117    6.5208    2.0749 H   0  0  0  0  0  0  0  0  0  0  0  0
   -0.2695    7.6628    0.9298 H   0  0  0  0  0  0  0  0  0  0  0  0
   -1.1290    4.9990    1.7534 H   0  0  0  0  0  0  0  0  0  0  0  0
    0.0182    3.7031    1.2759 H   0  0  0  0  0  0  0  0  0  0  0  0
   -2.9229    5.6581   -0.0168 H   0  0  0  0  0  0  0  0  0  0  0  0
   -4.7505    2.2302   -1.8601 H   0  0  0  0  0  0  0  0  0  0  0  0
   -0.8751    1.9047    0.0100 H   0  0  0  0  0  0  0  0  0  0  0  0
   -3.7308   -0.0721   -1.1217 H   0  0  0  0  0  0  0  0  0  0  0  0
   -2.8068    0.4455   -2.5560 H   0  0  0  0  0  0  0  0  0  0  0  0
   -2.6677   -0.1472    1.1003 H   0  0  0  0  0  0  0  0  0  0  0  0
   -1.1291   -0.9219    1.4662 H   0  0  0  0  0  0  0  0  0  0  0  0
   -3.5680   -2.1338    1.5653 H   0  0  0  0  0  0  0  0  0  0  0  0
   -2.1625   -3.6425    2.5018 H   0  0  0  0  0  0  0  0  0  0  0  0
    0.4186   -2.5693    0.3885 H   0  0  0  0  0  0  0  0  0  0  0  0
    2.4578   -3.5992    1.4752 H   0  0  0  0  0  0  0  0  0  0  0  0
    1.3794   -4.8993    2.1310 H   0  0  0  0  0  0  0  0  0  0  0  0
    1.1049   -3.1848    2.5903 H   0  0  0  0  0  0  0  0  0  0  0  0
    1.0613   -3.6545   -1.5074 H   0  0  0  0  0  0  0  0  0  0  0  0
    2.7066   -5.9490    0.5197 H   0  0  0  0  0  0  0  0  0  0  0  0
    0.6433   -7.0507    1.4331 H   0  0  0  0  0  0  0  0  0  0  0  0
    0.6621   -8.2293    0.0664 H   0  0  0  0  0  0  0  0  0  0  0  0
    1.9899   -8.2211    1.2787 H   0  0  0  0  0  0  0  0  0  0  0  0
    2.4858   -7.9196   -1.7881 H   0  0  0  0  0  0  0  0  0  0  0  0
    5.4770   -6.0541    0.1811 H   0  0  0  0  0  0  0  0  0  0  0  0
    4.7844   -9.0723    0.1314 H   0  0  0  0  0  0  0  0  0  0  0  0
    4.2742   -7.8225    1.3465 H   0  0  0  0  0  0  0  0  0  0  0  0
    5.9706   -8.3682    1.2830 H   0  0  0  0  0  0  0  0  0  0  0  0
    6.6132   -7.7973   -1.9677 H   0  0  0  0  0  0  0  0  0  0  0  0
    7.2649   -6.3395    1.4280 H   0  0  0  0  0  0  0  0  0  0  0  0
    9.9817   -7.7743    1.3439 H   0  0  0  0  0  0  0  0  0  0  0  0
    9.1024   -7.1725    2.7978 H   0  0  0  0  0  0  0  0  0  0  0  0
    8.4185   -8.5312    1.8316 H   0  0  0  0  0  0  0  0  0  0  0  0
    9.9323   -5.2469    1.1984 H   0  0  0  0  0  0  0  0  0  0  0  0
    8.0402   -4.5587   -1.9398 H   0  0  0  0  0  0  0  0  0  0  0  0
    7.6131   -2.1435   -1.6048 H   0  0  0  0  0  0  0  0  0  0  0  0
    9.3765   -1.8511   -1.3654 H   0  0  0  0  0  0  0  0  0  0  0  0
    8.7764   -2.4659   -2.9357 H   0  0  0  0  0  0  0  0  0  0  0  0
   10.1542   -5.2320   -2.4357 H   0  0  0  0  0  0  0  0  0  0  0  0
   10.5880   -2.7481    0.3650 H   0  0  0  0  0  0  0  0  0  0  0  0
   12.5770   -2.6303    1.8032 H   0  0  0  0  0  0  0  0  0  0  0  0
   13.5080   -3.6666    0.6684 H   0  0  0  0  0  0  0  0  0  0  0  0
   12.0907   -4.3425    1.5655 H   0  0  0  0  0  0  0  0  0  0  0  0
   12.8648   -2.0525   -1.5027 H   0  0  0  0  0  0  0  0  0  0  0  0
   10.0782   -0.6208    0.4357 H   0  0  0  0  0  0  0  0  0  0  0  0
   12.0749    1.1015    2.0279 H   0  0  0  0  0  0  0  0  0  0  0  0
   11.6649   -0.6135    2.4006 H   0  0  0  0  0  0  0  0  0  0  0  0
   10.3894    0.6200    2.5040 H   0  0  0  0  0  0  0  0  0  0  0  0
   10.3664    1.2286   -1.2787 H   0  0  0  0  0  0  0  0  0  0  0  0
   11.1887    4.6454    0.2490 H   0  0  0  0  0  0  0  0  0  0  0  0
   12.2456    2.7055   -1.8812 H   0  0  0  0  0  0  0  0  0  0  0  0
   13.0788    3.1779   -0.3462 H   0  0  0  0  0  0  0  0  0  0  0  0
   12.7350    4.4187   -1.6071 H   0  0  0  0  0  0  0  0  0  0  0  0
    9.9522    3.6224   -2.3420 H   0  0  0  0  0  0  0  0  0  0  0  0
    9.2823    5.5438    0.7258 H   0  0  0  0  0  0  0  0  0  0  0  0
    8.7015    7.9262    0.9130 H   0  0  0  0  0  0  0  0  0  0  0  0
    8.5814    8.0685   -0.8794 H   0  0  0  0  0  0  0  0  0  0  0  0
   10.1690    7.6804   -0.1040 H   0  0  0  0  0  0  0  0  0  0  0  0
    7.0296    5.4337    1.0108 H   0  0  0  0  0  0  0  0  0  0  0  0
    5.5492    7.4656    0.9605 H   0  0  0  0  0  0  0  0  0  0  0  0
    4.3598    8.2200   -1.7808 H   0  0  0  0  0  0  0  0  0  0  0  0
    4.2032    9.1034   -0.2129 H   0  0  0  0  0  0  0  0  0  0  0  0
    5.7979    9.0302   -1.0336 H   0  0  0  0  0  0  0  0  0  0  0  0
    3.9960    5.3726   -0.3304 H   0  0  0  0  0  0  0  0  0  0  0  0
   -5.1748   -2.4195   -1.2674 H   0  0  0  0  0  0  0  0  0  0  0  0
   -6.5484   -3.9760   -0.2308 H   0  0  0  0  0  0  0  0  0  0  0  0
   -5.9382   -5.2710    1.7485 H   0  0  0  0  0  0  0  0  0  0  0  0
   -4.2161   -4.7585    1.6135 H   0  0  0  0  0  0  0  0  0  0  0  0
   -5.5076   -3.5413    1.9883 H   0  0  0  0  0  0  0  0  0  0  0  0
   -5.7326   -6.9803   -2.1975 H   0  0  0  0  0  0  0  0  0  0  0  0
   -7.5446   -6.1100   -0.0172 H   0  0  0  0  0  0  0  0  0  0  0  0
   -8.0452   -8.0139   -2.3810 H   0  0  0  0  0  0  0  0  0  0  0  0
   -9.0355   -7.8554   -0.8756 H   0  0  0  0  0  0  0  0  0  0  0  0
   -7.3539   -8.4781   -0.7836 H   0  0  0  0  0  0  0  0  0  0  0  0
   -9.7038   -3.7583   -1.9403 H   0  0  0  0  0  0  0  0  0  0  0  0
   -9.4968   -5.4445    0.5760 H   0  0  0  0  0  0  0  0  0  0  0  0
  -11.0114   -6.6783   -0.8583 H   0  0  0  0  0  0  0  0  0  0  0  0
  -11.8889   -5.1937   -1.3424 H   0  0  0  0  0  0  0  0  0  0  0  0
  -11.9980   -5.8047    0.3638 H   0  0  0  0  0  0  0  0  0  0  0  0
  -12.4016   -3.2427   -0.3002 H   0  0  0  0  0  0  0  0  0  0  0  0
  -10.6935   -0.9172    0.6907 H   0  0  0  0  0  0  0  0  0  0  0  0
  -12.7063   -0.0049    1.8086 H   0  0  0  0  0  0  0  0  0  0  0  0
  -12.2979   -1.6242    2.4820 H   0  0  0  0  0  0  0  0  0  0  0  0
  -13.6743   -1.4552    1.3242 H   0  0  0  0  0  0  0  0  0  0  0  0
  -11.2070    0.3804   -2.3866 H   0  0  0  0  0  0  0  0  0  0  0  0
  -11.7672    1.7758    0.2423 H   0  0  0  0  0  0  0  0  0  0  0  0
  -13.2078    3.4005   -1.1538 H   0  0  0  0  0  0  0  0  0  0  0  0
  -13.0268    2.2686   -2.5406 H   0  0  0  0  0  0  0  0  0  0  0  0
  -13.8675    1.7366   -1.0330 H   0  0  0  0  0  0  0  0  0  0  0  0
   -9.9828    4.8034   -1.3097 H   0  0  0  0  0  0  0  0  0  0  0  0
  -12.0794    4.0814    0.6688 H   0  0  0  0  0  0  0  0  0  0  0  0
  -10.3513    6.5980    0.4263 H   0  0  0  0  0  0  0  0  0  0  0  0
  -12.0326    6.3317   -0.1170 H   0  0  0  0  0  0  0  0  0  0  0  0
  -11.6500    6.3117    1.6407 H   0  0  0  0  0  0  0  0  0  0  0  0
   -8.3089    3.6118    2.5460 H   0  0  0  0  0  0  0  0  0  0  0  0
   -8.4530    5.5129    0.2053 H   0  0  0  0  0  0  0  0  0  0  0  0
   -8.2139    8.6078    2.1796 H   0  0  0  0  0  0  0  0  0  0  0  0
   -8.1720    7.9242    0.5142 H   0  0  0  0  0  0  0  0  0  0  0  0
   -6.5895    3.8060    0.4487 H   0  0  0  0  0  0  0  0  0  0  0  0
   -6.0301    4.7031    1.8963 H   0  0  0  0  0  0  0  0  0  0  0  0
   -6.0021    4.2617   -1.7535 H   0  0  0  0  0  0  0  0  0  0  0  0
   -4.8109    5.4785   -2.2888 H   0  0  0  0  0  0  0  0  0  0  0  0
  1  2  1  0
  2  3  2  0
  2  4  1  0
  4  5  1  0
  5  6  1  0
  6  7  1  0
  7  8  1  0
  8  9  1  0
  9 10  2  0
 10 11  1  0
 11 12  2  0
 12 13  1  0
 13 14  2  0
 13 15  1  0
 15 16  1  0
 16 17  1  0
 17 18  1  0
 18 19  1  0
 19 20  1  0
 20 21  2  0
 20 22  1  0
 22 23  1  0
 22 24  1  0
 24 25  1  0
 25 26  2  0
 25 27  1  0
 27 28  1  0
 27 29  1  0
 29 30  1  0
 30 31  2  0
 30 32  1  0
 32 33  1  0
 32 34  1  0
 34 35  1  0
 35 36  2  0
 35 37  1  0
 37 38  1  0
 37 39  1  0
 39 40  1  0
 40 41  2  0
 40 42  1  0
 42 43  1  0
 42 44  1  0
 44 45  1  0
 45 46  2  0
 45 47  1  0
 47 48  1  0
 47 49  1  0
 49 50  1  0
 50 51  2  0
 50 52  1  0
 52 53  1  0
 52 54  1  0
 54 55  1  0
 55 56  2  0
 55 57  1  0
 57 58  1  0
 57 59  1  0
 59 60  1  0
 60 61  2  0
 60 62  1  0
 62 63  1  0
 62 64  1  0
 64 65  1  0
 65 66  2  0
 65 67  1  0
 67 68  1  0
 67 69  1  0
 69 70  1  0
 70 71  2  0
 18 72  1  0
 72 73  2  0
 72 74  1  0
 74 75  1  0
 75 76  1  0
 75 77  1  0
 77 78  2  0
 77 79  1  0
 79 80  1  0
 80 81  1  0
 80 82  1  0
 82 83  2  0
 82 84  1  0
 84 85  1  0
 85 86  1  0
 85 87  1  0
 87 88  2  0
 87 89  1  0
 89 90  1  0
 90 91  1  0
 90 92  1  0
 92 93  2  0
 92 94  1  0
 94 95  1  0
 95 96  1  0
 95 97  1  0
 97 98  2  0
 97 99  1  0
 99100  1  0
100101  1  0
100102  1  0
102103  2  0
102104  1  0
104105  1  0
105106  1  0
106107  1  0
106108  2  0
105109  1  0
109110  1  0
110111  1  0
 70  5  1  0
 14  9  1  0
111 11  1  0
  1112  1  0
  1113  1  0
  1114  1  0
  4115  1  0
  5116  1  6
  6117  1  0
  6118  1  0
  8119  1  0
  8120  1  0
 10121  1  0
 12122  1  0
 14123  1  0
 15124  1  0
 15125  1  0
 17126  1  0
 17127  1  0
 18128  1  1
 19129  1  0
 22130  1  6
 23131  1  0
 23132  1  0
 23133  1  0
 24134  1  0
 27135  1  1
 28136  1  0
 28137  1  0
 28138  1  0
 29139  1  0
 32140  1  1
 33141  1  0
 33142  1  0
 33143  1  0
 34144  1  0
 37145  1  1
 38146  1  0
 38147  1  0
 38148  1  0
 39149  1  0
 42150  1  6
 43151  1  0
 43152  1  0
 43153  1  0
 44154  1  0
 47155  1  1
 48156  1  0
 48157  1  0
 48158  1  0
 49159  1  0
 52160  1  1
 53161  1  0
 53162  1  0
 53163  1  0
 54164  1  0
 57165  1  1
 58166  1  0
 58167  1  0
 58168  1  0
 59169  1  0
 62170  1  1
 63171  1  0
 63172  1  0
 63173  1  0
 64174  1  0
 67175  1  1
 68176  1  0
 68177  1  0
 68178  1  0
 69179  1  0
 74180  1  0
 75181  1  1
 76182  1  0
 76183  1  0
 76184  1  0
 79185  1  0
 80186  1  1
 81187  1  0
 81188  1  0
 81189  1  0
 84190  1  0
 85191  1  1
 86192  1  0
 86193  1  0
 86194  1  0
 89195  1  0
 90196  1  1
 91197  1  0
 91198  1  0
 91199  1  0
 94200  1  0
 95201  1  1
 96202  1  0
 96203  1  0
 96204  1  0
 99205  1  0
100206  1  1
101207  1  0
101208  1  0
101209  1  0
104210  1  0
105211  1  6
107212  1  0
107213  1  0
109214  1  0
109215  1  0
111216  1  0
111217  1  0
M  END
