
     RDKit          3D

227229  0  0  0  0  0  0  0  0999 V2000
   -1.5951    9.1752    3.1908 C   0  0  0  0  0  0  0  0  0  0  0  0
   -1.9672    9.9160    1.9430 C   0  0  0  0  0  0  0  0  0  0  0  0
   -1.5924   11.1119    1.8006 O   0  0  0  0  0  0  0  0  0  0  0  0
   -2.7324    9.2957    0.8980 N   0  0  0  0  0  0  0  0  0  0  0  0
   -2.7887    7.8450    0.6956 C   0  0  2  0  0  0  0  0  0  0  0  0
   -1.6089    7.4108   -0.1895 C   0  0  0  0  0  0  0  0  0  0  0  0
   -1.5608    5.5941   -0.4362 S   0  0  0  0  0  0  0  0  0  0  0  0
   -0.4855    5.1631    0.9851 C   0  0  0  0  0  0  0  0  0  0  0  0
    0.3966    4.0129    0.5836 C   0  0  0  0  0  0  0  0  0  0  0  0
    1.3899    4.2161   -0.3862 C   0  0  0  0  0  0  0  0  0  0  0  0
    2.2077    3.1530   -0.8014 C   0  0  0  0  0  0  0  0  0  0  0  0
    2.0507    1.8860   -0.2144 C   0  0  0  0  0  0  0  0  0  0  0  0
    1.0868    1.6794    0.7854 C   0  0  0  0  0  0  0  0  0  0  0  0
    0.2619    2.7452    1.1878 C   0  0  0  0  0  0  0  0  0  0  0  0
    0.9653    0.3232    1.4119 C   0  0  0  0  0  0  0  0  0  0  0  0
    2.4362   -0.0272    2.4314 S   0  0  0  0  0  0  0  0  0  0  0  0
    1.9381   -1.7127    2.9573 C   0  0  0  0  0  0  0  0  0  0  0  0
    2.6883   -2.7869    2.1508 C   0  0  2  0  0  0  0  0  0  0  0  0
    2.3266   -2.7539    0.7262 N   0  0  0  0  0  0  0  0  0  0  0  0
    1.1611   -3.3285    0.0985 C   0  0  0  0  0  0  0  0  0  0  0  0
    1.1582   -3.4501   -1.1545 O   0  0  0  0  0  0  0  0  0  0  0  0
   -0.0985   -3.7002    0.8543 C   0  0  1  0  0  0  0  0  0  0  0  0
   -1.2554   -2.7423    0.5125 C   0  0  0  0  0  0  0  0  0  0  0  0
   -0.4616   -5.1020    0.6082 N   0  0  0  0  0  0  0  0  0  0  0  0
   -1.3153   -5.5102   -0.4803 C   0  0  0  0  0  0  0  0  0  0  0  0
   -1.0272   -5.1658   -1.6581 O   0  0  0  0  0  0  0  0  0  0  0  0
   -2.5548   -6.3471   -0.2419 C   0  0  1  0  0  0  0  0  0  0  0  0
   -3.0172   -6.3378    1.2240 C   0  0  0  0  0  0  0  0  0  0  0  0
   -3.6482   -5.8493   -1.0759 N   0  0  0  0  0  0  0  0  0  0  0  0
   -4.2589   -6.6617   -2.0807 C   0  0  0  0  0  0  0  0  0  0  0  0
   -3.6102   -6.9464   -3.1261 O   0  0  0  0  0  0  0  0  0  0  0  0
   -5.6209   -7.2569   -1.8639 C   0  0  1  0  0  0  0  0  0  0  0  0
   -5.4952   -8.6289   -1.1921 C   0  0  0  0  0  0  0  0  0  0  0  0
   -6.4816   -6.3104   -1.1268 N   0  0  0  0  0  0  0  0  0  0  0  0
   -7.3944   -6.6748   -0.0797 C   0  0  0  0  0  0  0  0  0  0  0  0
   -6.9775   -7.3187    0.9195 O   0  0  0  0  0  0  0  0  0  0  0  0
   -8.8651   -6.3764   -0.2310 C   0  0  1  0  0  0  0  0  0  0  0  0
   -9.5496   -7.5581   -0.9130 C   0  0  0  0  0  0  0  0  0  0  0  0
   -9.4900   -6.1356    1.0776 N   0  0  0  0  0  0  0  0  0  0  0  0
  -10.4801   -5.1275    1.3616 C   0  0  0  0  0  0  0  0  0  0  0  0
  -11.1114   -5.2061    2.4526 O   0  0  0  0  0  0  0  0  0  0  0  0
  -10.8313   -4.0260    0.3932 C   0  0  1  0  0  0  0  0  0  0  0  0
  -11.7865   -4.5281   -0.6950 C   0  0  0  0  0  0  0  0  0  0  0  0
  -11.4726   -2.9108    1.0959 N   0  0  0  0  0  0  0  0  0  0  0  0
  -10.8956   -1.6038    1.1129 C   0  0  0  0  0  0  0  0  0  0  0  0
   -9.6552   -1.4641    1.2737 O   0  0  0  0  0  0  0  0  0  0  0  0
  -11.7497   -0.4125    0.7755 C   0  0  1  0  0  0  0  0  0  0  0  0
  -11.5450    0.7137    1.7899 C   0  0  0  0  0  0  0  0  0  0  0  0
  -11.4363    0.0335   -0.5848 N   0  0  0  0  0  0  0  0  0  0  0  0
  -12.3218    0.8595   -1.3524 C   0  0  0  0  0  0  0  0  0  0  0  0
  -13.0420    1.7174   -0.7832 O   0  0  0  0  0  0  0  0  0  0  0  0
  -12.3060    0.7650   -2.8643 C   0  0  1  0  0  0  0  0  0  0  0  0
  -13.7371    0.7785   -3.4083 C   0  0  0  0  0  0  0  0  0  0  0  0
  -11.5383    1.8737   -3.4379 N   0  0  0  0  0  0  0  0  0  0  0  0
  -10.2542    2.2469   -2.9289 C   0  0  0  0  0  0  0  0  0  0  0  0
   -9.4398    1.3553   -2.5855 O   0  0  0  0  0  0  0  0  0  0  0  0
   -9.9086    3.7077   -2.7716 C   0  0  1  0  0  0  0  0  0  0  0  0
  -11.0083    4.4093   -1.9621 C   0  0  0  0  0  0  0  0  0  0  0  0
   -8.5681    3.8408   -2.1686 N   0  0  0  0  0  0  0  0  0  0  0  0
   -8.2488    4.6335   -1.0166 C   0  0  0  0  0  0  0  0  0  0  0  0
   -7.6575    5.7326   -1.1888 O   0  0  0  0  0  0  0  0  0  0  0  0
   -8.5895    4.1575    0.3807 C   0  0  1  0  0  0  0  0  0  0  0  0
   -8.0772    2.7305    0.6258 C   0  0  0  0  0  0  0  0  0  0  0  0
   -8.0991    5.1003    1.3931 N   0  0  0  0  0  0  0  0  0  0  0  0
   -6.7093    5.2621    1.6972 C   0  0  0  0  0  0  0  0  0  0  0  0
   -6.0628    4.3184    2.2204 O   0  0  0  0  0  0  0  0  0  0  0  0
   -6.0273    6.5778    1.4253 C   0  0  1  0  0  0  0  0  0  0  0  0
   -5.6358    7.2531    2.7404 C   0  0  0  0  0  0  0  0  0  0  0  0
   -4.8527    6.3692    0.5774 N   0  0  0  0  0  0  0  0  0  0  0  0
   -4.1013    7.4678    0.0575 C   0  0  0  0  0  0  0  0  0  0  0  0
   -4.5043    8.0621   -0.9801 O   0  0  0  0  0  0  0  0  0  0  0  0
    2.5558   -4.1912    2.7173 C   0  0  0  0  0  0  0  0  0  0  0  0
    1.7968   -4.3944    3.7024 O   0  0  0  0  0  0  0  0  0  0  0  0
    3.2836   -5.3013    2.1688 N   0  0  0  0  0  0  0  0  0  0  0  0
    4.4407   -5.2024    1.2670 C   0  0  2  0  0  0  0  0  0  0  0  0
    4.1733   -6.0418    0.0155 C   0  0  0  0  0  0  0  0  0  0  0  0
    5.6809   -5.6316    2.0079 C   0  0  0  0  0  0  0  0  0  0  0  0
    5.9815   -5.0518    3.0929 O   0  0  0  0  0  0  0  0  0  0  0  0
    6.5290   -6.6771    1.5169 N   0  0  0  0  0  0  0  0  0  0  0  0
    7.6303   -6.3796    0.5985 C   0  0  2  0  0  0  0  0  0  0  0  0
    7.8377   -7.5602   -0.3528 C   0  0  0  0  0  0  0  0  0  0  0  0
    8.8923   -6.1098    1.3861 C   0  0  0  0  0  0  0  0  0  0  0  0
    9.2813   -7.0033    2.1891 O   0  0  0  0  0  0  0  0  0  0  0  0
    9.6992   -4.9198    1.2592 N   0  0  0  0  0  0  0  0  0  0  0  0
    9.4118   -3.6607    0.5465 C   0  0  2  0  0  0  0  0  0  0  0  0
    8.0750   -3.0294    0.9550 C   0  0  0  0  0  0  0  0  0  0  0  0
    9.5818   -3.7995   -0.9615 C   0  0  0  0  0  0  0  0  0  0  0  0
    8.6782   -4.3756   -1.6236 O   0  0  0  0  0  0  0  0  0  0  0  0
   10.7189   -3.2745   -1.6783 N   0  0  0  0  0  0  0  0  0  0  0  0
   11.8839   -2.5690   -1.1090 C   0  0  2  0  0  0  0  0  0  0  0  0
   12.6065   -3.4513   -0.0689 C   0  0  0  0  0  0  0  0  0  0  0  0
   11.4943   -1.2049   -0.5624 C   0  0  0  0  0  0  0  0  0  0  0  0
   10.2887   -0.8397   -0.5890 O   0  0  0  0  0  0  0  0  0  0  0  0
   12.4675   -0.3162   -0.0010 N   0  0  0  0  0  0  0  0  0  0  0  0
   13.6304    0.1672   -0.7657 C   0  0  2  0  0  0  0  0  0  0  0  0
   14.8441   -0.7379   -0.5070 C   0  0  0  0  0  0  0  0  0  0  0  0
   13.9146    1.6147   -0.3987 C   0  0  0  0  0  0  0  0  0  0  0  0
   15.0231    1.9204    0.1293 O   0  0  0  0  0  0  0  0  0  0  0  0
   12.9707    2.6686   -0.6386 N   0  0  0  0  0  0  0  0  0  0  0  0
   11.7435    2.5500   -1.4310 C   0  0  2  0  0  0  0  0  0  0  0  0
   11.9597    3.2468   -2.7747 C   0  0  0  0  0  0  0  0  0  0  0  0
   10.5886    3.0933   -0.6213 C   0  0  0  0  0  0  0  0  0  0  0  0
   10.2617    2.4753    0.4242 O   0  0  0  0  0  0  0  0  0  0  0  0
    9.8956    4.3126   -0.9752 N   0  0  0  0  0  0  0  0  0  0  0  0
    9.3182    5.2435    0.0104 C   0  0  2  0  0  0  0  0  0  0  0  0
   10.3095    5.5497    1.1424 C   0  0  0  0  0  0  0  0  0  0  0  0
    7.9957    4.7481    0.5453 C   0  0  0  0  0  0  0  0  0  0  0  0
    7.9177    3.6081    1.0703 O   0  0  0  0  0  0  0  0  0  0  0  0
    6.8582    5.6250    0.6176 N   0  0  0  0  0  0  0  0  0  0  0  0
    6.0930    6.1349   -0.5243 C   0  0  1  0  0  0  0  0  0  0  0  0
    6.8372    6.0757   -1.8465 C   0  0  0  0  0  0  0  0  0  0  0  0
    7.0722    7.2709   -2.5921 N   0  0  0  0  0  0  0  0  0  0  0  0
    7.2128    4.9709   -2.3231 O   0  0  0  0  0  0  0  0  0  0  0  0
    4.7291    5.4352   -0.6216 C   0  0  0  0  0  0  0  0  0  0  0  0
    4.8960    3.6255   -0.9092 S   0  0  0  0  0  0  0  0  0  0  0  0
    3.3114    3.3849   -1.7849 C   0  0  0  0  0  0  0  0  0  0  0  0
   -2.5206    8.8421    3.7008 H   0  0  0  0  0  0  0  0  0  0  0  0
   -0.9688    8.2945    2.9412 H   0  0  0  0  0  0  0  0  0  0  0  0
   -1.0200    9.8329    3.8759 H   0  0  0  0  0  0  0  0  0  0  0  0
   -3.0109    9.9047    0.0917 H   0  0  0  0  0  0  0  0  0  0  0  0
   -2.7194    7.3190    1.6731 H   0  0  0  0  0  0  0  0  0  0  0  0
   -0.6574    7.7788    0.2377 H   0  0  0  0  0  0  0  0  0  0  0  0
   -1.7089    7.8849   -1.1907 H   0  0  0  0  0  0  0  0  0  0  0  0
    0.1679    6.0069    1.2862 H   0  0  0  0  0  0  0  0  0  0  0  0
   -1.1350    4.9110    1.8460 H   0  0  0  0  0  0  0  0  0  0  0  0
    1.5418    5.2039   -0.8017 H   0  0  0  0  0  0  0  0  0  0  0  0
    2.6965    1.0715   -0.5201 H   0  0  0  0  0  0  0  0  0  0  0  0
   -0.4822    2.5943    1.9586 H   0  0  0  0  0  0  0  0  0  0  0  0
    0.0516    0.2517    2.0397 H   0  0  0  0  0  0  0  0  0  0  0  0
    0.9012   -0.4312    0.5955 H   0  0  0  0  0  0  0  0  0  0  0  0
    0.8374   -1.8427    2.9178 H   0  0  0  0  0  0  0  0  0  0  0  0
    2.2288   -1.7986    4.0271 H   0  0  0  0  0  0  0  0  0  0  0  0
    3.7646   -2.5182    2.2457 H   0  0  0  0  0  0  0  0  0  0  0  0
    3.0404   -2.3433    0.0786 H   0  0  0  0  0  0  0  0  0  0  0  0
    0.0653   -3.6056    1.9418 H   0  0  0  0  0  0  0  0  0  0  0  0
   -1.4399   -2.7173   -0.5804 H   0  0  0  0  0  0  0  0  0  0  0  0
   -1.0161   -1.7185    0.8559 H   0  0  0  0  0  0  0  0  0  0  0  0
   -2.1834   -3.0658    1.0303 H   0  0  0  0  0  0  0  0  0  0  0  0
   -0.3523   -5.7588    1.4090 H   0  0  0  0  0  0  0  0  0  0  0  0
   -2.3268   -7.4035   -0.5234 H   0  0  0  0  0  0  0  0  0  0  0  0
   -3.0838   -5.2968    1.6039 H   0  0  0  0  0  0  0  0  0  0  0  0
   -4.0199   -6.7961    1.3057 H   0  0  0  0  0  0  0  0  0  0  0  0
   -2.3163   -6.9221    1.8529 H   0  0  0  0  0  0  0  0  0  0  0  0
   -3.9103   -4.8338   -1.0349 H   0  0  0  0  0  0  0  0  0  0  0  0
   -6.0900   -7.4205   -2.8643 H   0  0  0  0  0  0  0  0  0  0  0  0
   -4.8742   -9.3011   -1.8198 H   0  0  0  0  0  0  0  0  0  0  0  0
   -6.4927   -9.1006   -1.0837 H   0  0  0  0  0  0  0  0  0  0  0  0
   -5.0160   -8.5366   -0.1957 H   0  0  0  0  0  0  0  0  0  0  0  0
   -6.6168   -5.3709   -1.5677 H   0  0  0  0  0  0  0  0  0  0  0  0
   -8.9691   -5.4897   -0.8864 H   0  0  0  0  0  0  0  0  0  0  0  0
  -10.6416   -7.3822   -0.9930 H   0  0  0  0  0  0  0  0  0  0  0  0
   -9.1403   -7.7043   -1.9372 H   0  0  0  0  0  0  0  0  0  0  0  0
   -9.3902   -8.4928   -0.3301 H   0  0  0  0  0  0  0  0  0  0  0  0
   -9.3447   -6.8643    1.8176 H   0  0  0  0  0  0  0  0  0  0  0  0
   -9.9056   -3.6514   -0.0956 H   0  0  0  0  0  0  0  0  0  0  0  0
  -11.2554   -5.1708   -1.4219 H   0  0  0  0  0  0  0  0  0  0  0  0
  -12.6220   -5.1061   -0.2465 H   0  0  0  0  0  0  0  0  0  0  0  0
  -12.2118   -3.6671   -1.2520 H   0  0  0  0  0  0  0  0  0  0  0  0
  -12.4624   -3.0318    1.4292 H   0  0  0  0  0  0  0  0  0  0  0  0
  -12.8217   -0.7227    0.8092 H   0  0  0  0  0  0  0  0  0  0  0  0
  -10.5048    1.1079    1.7559 H   0  0  0  0  0  0  0  0  0  0  0  0
  -11.7441    0.3256    2.8167 H   0  0  0  0  0  0  0  0  0  0  0  0
  -12.2557    1.5502    1.6146 H   0  0  0  0  0  0  0  0  0  0  0  0
  -10.6503   -0.4262   -1.1022 H   0  0  0  0  0  0  0  0  0  0  0  0
  -11.8369   -0.1919   -3.1813 H   0  0  0  0  0  0  0  0  0  0  0  0
  -14.2385    1.7449   -3.1550 H   0  0  0  0  0  0  0  0  0  0  0  0
  -13.7274    0.6796   -4.5272 H   0  0  0  0  0  0  0  0  0  0  0  0
  -14.3404   -0.0597   -2.9804 H   0  0  0  0  0  0  0  0  0  0  0  0
  -11.8201    2.2619   -4.3777 H   0  0  0  0  0  0  0  0  0  0  0  0
   -9.8766    4.1691   -3.7857 H   0  0  0  0  0  0  0  0  0  0  0  0
  -11.2520    3.8320   -1.0505 H   0  0  0  0  0  0  0  0  0  0  0  0
  -11.9373    4.4780   -2.5691 H   0  0  0  0  0  0  0  0  0  0  0  0
  -10.7094    5.4392   -1.6870 H   0  0  0  0  0  0  0  0  0  0  0  0
   -7.7604    3.5430   -2.7615 H   0  0  0  0  0  0  0  0  0  0  0  0
   -9.6859    4.1162    0.4722 H   0  0  0  0  0  0  0  0  0  0  0  0
   -8.5979    2.0405   -0.0677 H   0  0  0  0  0  0  0  0  0  0  0  0
   -8.3139    2.4157    1.6724 H   0  0  0  0  0  0  0  0  0  0  0  0
   -6.9824    2.6487    0.4526 H   0  0  0  0  0  0  0  0  0  0  0  0
   -8.7222    5.9054    1.6236 H   0  0  0  0  0  0  0  0  0  0  0  0
   -6.7341    7.2396    0.8861 H   0  0  0  0  0  0  0  0  0  0  0  0
   -5.2099    8.2618    2.5365 H   0  0  0  0  0  0  0  0  0  0  0  0
   -6.5306    7.3883    3.3784 H   0  0  0  0  0  0  0  0  0  0  0  0
   -4.8734    6.6478    3.2793 H   0  0  0  0  0  0  0  0  0  0  0  0
   -4.6686    5.4301    0.1511 H   0  0  0  0  0  0  0  0  0  0  0  0
    3.0351   -6.2495    2.5320 H   0  0  0  0  0  0  0  0  0  0  0  0
    4.5975   -4.1580    0.9328 H   0  0  0  0  0  0  0  0  0  0  0  0
    3.2175   -5.7260   -0.4565 H   0  0  0  0  0  0  0  0  0  0  0  0
    4.1016   -7.1205    0.2711 H   0  0  0  0  0  0  0  0  0  0  0  0
    4.9787   -5.8937   -0.7330 H   0  0  0  0  0  0  0  0  0  0  0  0
    6.5758   -7.5528    2.0844 H   0  0  0  0  0  0  0  0  0  0  0  0
    7.3465   -5.5262   -0.0317 H   0  0  0  0  0  0  0  0  0  0  0  0
    8.6671   -7.3427   -1.0569 H   0  0  0  0  0  0  0  0  0  0  0  0
    6.9099   -7.7357   -0.9365 H   0  0  0  0  0  0  0  0  0  0  0  0
    8.0833   -8.4838    0.2135 H   0  0  0  0  0  0  0  0  0  0  0  0
   10.5484   -4.8994    1.8650 H   0  0  0  0  0  0  0  0  0  0  0  0
   10.1627   -2.9372    0.9077 H   0  0  0  0  0  0  0  0  0  0  0  0
    7.9343   -3.1212    2.0556 H   0  0  0  0  0  0  0  0  0  0  0  0
    8.0824   -1.9493    0.6935 H   0  0  0  0  0  0  0  0  0  0  0  0
    7.2056   -3.4763    0.4484 H   0  0  0  0  0  0  0  0  0  0  0  0
   10.7412   -3.4470   -2.7106 H   0  0  0  0  0  0  0  0  0  0  0  0
   12.5927   -2.3824   -1.9441 H   0  0  0  0  0  0  0  0  0  0  0  0
   12.1774   -4.4731   -0.0376 H   0  0  0  0  0  0  0  0  0  0  0  0
   13.6748   -3.5756   -0.3372 H   0  0  0  0  0  0  0  0  0  0  0  0
   12.5523   -3.0149    0.9508 H   0  0  0  0  0  0  0  0  0  0  0  0
   12.1485    0.2552    0.8095 H   0  0  0  0  0  0  0  0  0  0  0  0
   13.4040    0.1308   -1.8513 H   0  0  0  0  0  0  0  0  0  0  0  0
   15.7678   -0.2929   -0.9344 H   0  0  0  0  0  0  0  0  0  0  0  0
   14.9849   -0.9006    0.5842 H   0  0  0  0  0  0  0  0  0  0  0  0
   14.7049   -1.7128   -1.0061 H   0  0  0  0  0  0  0  0  0  0  0  0
   13.2262    3.6226   -0.2956 H   0  0  0  0  0  0  0  0  0  0  0  0
   11.5199    1.4880   -1.6644 H   0  0  0  0  0  0  0  0  0  0  0  0
   12.2110    4.3217   -2.6124 H   0  0  0  0  0  0  0  0  0  0  0  0
   11.0507    3.1647   -3.4098 H   0  0  0  0  0  0  0  0  0  0  0  0
   12.8120    2.7712   -3.3058 H   0  0  0  0  0  0  0  0  0  0  0  0
    9.9580    4.6674   -1.9532 H   0  0  0  0  0  0  0  0  0  0  0  0
    9.1367    6.2157   -0.5024 H   0  0  0  0  0  0  0  0  0  0  0  0
   10.4956    4.6565    1.7718 H   0  0  0  0  0  0  0  0  0  0  0  0
    9.9097    6.3602    1.7838 H   0  0  0  0  0  0  0  0  0  0  0  0
   11.2735    5.8964    0.7099 H   0  0  0  0  0  0  0  0  0  0  0  0
    6.3962    5.6924    1.5491 H   0  0  0  0  0  0  0  0  0  0  0  0
    5.8754    7.2023   -0.3161 H   0  0  0  0  0  0  0  0  0  0  0  0
    7.4823    7.2077   -3.5527 H   0  0  0  0  0  0  0  0  0  0  0  0
    6.7183    8.1929   -2.2633 H   0  0  0  0  0  0  0  0  0  0  0  0
    4.1647    5.5807    0.3250 H   0  0  0  0  0  0  0  0  0  0  0  0
    4.1423    5.9119   -1.4375 H   0  0  0  0  0  0  0  0  0  0  0  0
    3.4224    2.4896   -2.4367 H   0  0  0  0  0  0  0  0  0  0  0  0
    3.0805    4.2338   -2.4592 H   0  0  0  0  0  0  0  0  0  0  0  0
  1  2  1  0
  2  3  2  0
  2  4  1  0
  4  5  1  0
  5  6  1  0
  6  7  1  0
  7  8  1  0
  8  9  1  0
  9 10  2  0
 10 11  1  0
 11 12  2  0
 12 13  1  0
 13 14  2  0
 13 15  1  0
 15 16  1  0
 16 17  1  0
 17 18  1  0
 18 19  1  0
 19 20  1  0
 20 21  2  0
 20 22  1  0
 22 23  1  0
 22 24  1  0
 24 25  1  0
 25 26  2  0
 25 27  1  0
 27 28  1  0
 27 29  1  0
 29 30  1  0
 30 31  2  0
 30 32  1  0
 32 33  1  0
 32 34  1  0
 34 35  1  0
 35 36  2  0
 35 37  1  0
 37 38  1  0
 37 39  1  0
 39 40  1  0
 40 41  2  0
 40 42  1  0
 42 43  1  0
 42 44  1  0
 44 45  1  0
 45 46  2  0
 45 47  1  0
 47 48  1  0
 47 49  1  0
 49 50  1  0
 50 51  2  0
 50 52  1  0
 52 53  1  0
 52 54  1  0
 54 55  1  0
 55 56  2  0
 55 57  1  0
 57 58  1  0
 57 59  1  0
 59 60  1  0
 60 61  2  0
 60 62  1  0
 62 63  1  0
 62 64  1  0
 64 65  1  0
 65 66  2  0
 65 67  1  0
 67 68  1  0
 67 69  1  0
 69 70  1  0
 70 71  2  0
 18 72  1  0
 72 73  2  0
 72 74  1  0
 74 75  1  0
 75 76  1  0
 75 77  1  0
 77 78  2  0
 77 79  1  0
 79 80  1  0
 80 81  1  0
 80 82  1  0
 82 83  2  0
 82 84  1  0
 84 85  1  0
 85 86  1  0
 85 87  1  0
 87 88  2  0
 87 89  1  0
 89 90  1  0
 90 91  1  0
 90 92  1  0
 92 93  2  0
 92 94  1  0
 94 95  1  0
 95 96  1  0
 95 97  1  0
 97 98  2  0
 97 99  1  0
 99100  1  0
100101  1  0
100102  1  0
102103  2  0
102104  1  0
104105  1  0
105106  1  0
105107  1  0
107108  2  0
107109  1  0
109110  1  0
110111  1  0
111112  1  0
111113  2  0
110114  1  0
114115  1  0
115116  1  0
 70  5  1  0
 14  9  1  0
116 11  1  0
  1117  1  0
  1118  1  0
  1119  1  0
  4120  1  0
  5121  1  1
  6122  1  0
  6123  1  0
  8124  1  0
  8125  1  0
 10126  1  0
 12127  1  0
 14128  1  0
 15129  1  0
 15130  1  0
 17131  1  0
 17132  1  0
 18133  1  6
 19134  1  0
 22135  1  1
 23136  1  0
 23137  1  0
 23138  1  0
 24139  1  0
 27140  1  6
 28141  1  0
 28142  1  0
 28143  1  0
 29144  1  0
 32145  1  6
 33146  1  0
 33147  1  0
 33148  1  0
 34149  1  0
 37150  1  6
 38151  1  0
 38152  1  0
 38153  1  0
 39154  1  0
 42155  1  6
 43156  1  0
 43157  1  0
 43158  1  0
 44159  1  0
 47160  1  6
 48161  1  0
 48162  1  0
 48163  1  0
 49164  1  0
 52165  1  1
 53166  1  0
 53167  1  0
 53168  1  0
 54169  1  0
 57170  1  6
 58171  1  0
 58172  1  0
 58173  1  0
 59174  1  0
 62175  1  6
 63176  1  0
 63177  1  0
 63178  1  0
 64179  1  0
 67180  1  6
 68181  1  0
 68182  1  0
 68183  1  0
 69184  1  0
 74185  1  0
 75186  1  6
 76187  1  0
 76188  1  0
 76189  1  0
 79190  1  0
 80191  1  6
 81192  1  0
 81193  1  0
 81194  1  0
 84195  1  0
 85196  1  1
 86197  1  0
 86198  1  0
 86199  1  0
 89200  1  0
 90201  1  6
 91202  1  0
 91203  1  0
 91204  1  0
 94205  1  0
 95206  1  6
 96207  1  0
 96208  1  0
 96209  1  0
 99210  1  0
100211  1  6
101212  1  0
101213  1  0
101214  1  0
104215  1  0
105216  1  6
106217  1  0
106218  1  0
106219  1  0
109220  1  0
110221  1  1
112222  1  0
112223  1  0
114224  1  0
114225  1  0
116226  1  0
116227  1  0
M  END
