
     RDKit          3D

237239  0  0  0  0  0  0  0  0999 V2000
    2.6287  -10.3690    1.2368 C   0  0  0  0  0  0  0  0  0  0  0  0
    2.3572   -9.3333    0.1920 C   0  0  0  0  0  0  0  0  0  0  0  0
    1.4419   -9.5220   -0.6522 O   0  0  0  0  0  0  0  0  0  0  0  0
    3.1501   -8.1385    0.1551 N   0  0  0  0  0  0  0  0  0  0  0  0
    2.8890   -7.0440   -0.7906 C   0  0  1  0  0  0  0  0  0  0  0  0
    1.9887   -5.9835   -0.1431 C   0  0  0  0  0  0  0  0  0  0  0  0
    2.7941   -5.1888    1.3025 S   0  0  0  0  0  0  0  0  0  0  0  0
    1.2651   -4.9060    2.2593 C   0  0  0  0  0  0  0  0  0  0  0  0
    0.4041   -3.8558    1.6166 C   0  0  0  0  0  0  0  0  0  0  0  0
   -0.8581   -4.1930    1.1055 C   0  0  0  0  0  0  0  0  0  0  0  0
   -1.6980   -3.2090    0.5735 C   0  0  0  0  0  0  0  0  0  0  0  0
   -1.2563   -1.8786    0.5286 C   0  0  0  0  0  0  0  0  0  0  0  0
    0.0336   -1.5305    0.9660 C   0  0  0  0  0  0  0  0  0  0  0  0
    0.8403   -2.5231    1.5473 C   0  0  0  0  0  0  0  0  0  0  0  0
    0.5229   -0.0975    0.9442 C   0  0  0  0  0  0  0  0  0  0  0  0
   -0.0154    0.8184   -0.5534 S   0  0  0  0  0  0  0  0  0  0  0  0
   -1.5399    1.5598    0.1567 C   0  0  0  0  0  0  0  0  0  0  0  0
   -1.3809    3.0711    0.3483 C   0  0  2  0  0  0  0  0  0  0  0  0
   -0.3063    3.3345    1.3158 N   0  0  0  0  0  0  0  0  0  0  0  0
    0.8403    4.1823    1.1049 C   0  0  0  0  0  0  0  0  0  0  0  0
    1.7755    4.1436    1.9491 O   0  0  0  0  0  0  0  0  0  0  0  0
    0.9045    5.2100   -0.0062 C   0  0  1  0  0  0  0  0  0  0  0  0
    0.0513    6.4234    0.3878 C   0  0  0  0  0  0  0  0  0  0  0  0
    2.3016    5.5864   -0.2588 N   0  0  0  0  0  0  0  0  0  0  0  0
    2.6803    6.8577   -0.7988 C   0  0  0  0  0  0  0  0  0  0  0  0
    2.5092    7.0824   -2.0280 O   0  0  0  0  0  0  0  0  0  0  0  0
    3.2054    7.9480    0.1031 C   0  0  1  0  0  0  0  0  0  0  0  0
    3.8223    7.4120    1.4021 C   0  0  0  0  0  0  0  0  0  0  0  0
    4.1377    8.8370   -0.6064 N   0  0  0  0  0  0  0  0  0  0  0  0
    5.4309    8.5025   -1.1528 C   0  0  0  0  0  0  0  0  0  0  0  0
    6.1296    9.4354   -1.6360 O   0  0  0  0  0  0  0  0  0  0  0  0
    6.0049    7.0979   -1.1410 C   0  0  1  0  0  0  0  0  0  0  0  0
    6.7326    6.7891   -2.4518 C   0  0  0  0  0  0  0  0  0  0  0  0
    6.9136    6.9086   -0.0078 N   0  0  0  0  0  0  0  0  0  0  0  0
    8.0022    7.7900    0.2669 C   0  0  0  0  0  0  0  0  0  0  0  0
    7.7832    8.8774    0.8737 O   0  0  0  0  0  0  0  0  0  0  0  0
    9.4050    7.3945   -0.1006 C   0  0  1  0  0  0  0  0  0  0  0  0
   10.1236    8.5511   -0.8037 C   0  0  0  0  0  0  0  0  0  0  0  0
   10.1432    7.0067    1.1021 N   0  0  0  0  0  0  0  0  0  0  0  0
   10.4268    5.6373    1.4266 C   0  0  0  0  0  0  0  0  0  0  0  0
    9.9388    5.1600    2.4869 O   0  0  0  0  0  0  0  0  0  0  0  0
   11.2868    4.7426    0.5495 C   0  0  1  0  0  0  0  0  0  0  0  0
   12.1318    5.5340   -0.4637 C   0  0  0  0  0  0  0  0  0  0  0  0
   12.1812    3.9385    1.3950 N   0  0  0  0  0  0  0  0  0  0  0  0
   13.0056    2.8541    0.9245 C   0  0  0  0  0  0  0  0  0  0  0  0
   14.0819    2.6128    1.5398 O   0  0  0  0  0  0  0  0  0  0  0  0
   12.6155    1.9814   -0.2521 C   0  0  1  0  0  0  0  0  0  0  0  0
   13.7984    1.7674   -1.2033 C   0  0  0  0  0  0  0  0  0  0  0  0
   12.0863    0.6870    0.1971 N   0  0  0  0  0  0  0  0  0  0  0  0
   12.8479   -0.2488    0.9728 C   0  0  0  0  0  0  0  0  0  0  0  0
   13.2075    0.0429    2.1458 O   0  0  0  0  0  0  0  0  0  0  0  0
   13.1992   -1.5836    0.3822 C   0  0  1  0  0  0  0  0  0  0  0  0
   14.7126   -1.8157    0.4457 C   0  0  0  0  0  0  0  0  0  0  0  0
   12.5003   -2.6573    1.0834 N   0  0  0  0  0  0  0  0  0  0  0  0
   11.3962   -3.3383    0.4739 C   0  0  0  0  0  0  0  0  0  0  0  0
   10.2603   -2.7891    0.4714 O   0  0  0  0  0  0  0  0  0  0  0  0
   11.5605   -4.7267   -0.0880 C   0  0  1  0  0  0  0  0  0  0  0  0
   12.9061   -4.8791   -0.8018 C   0  0  0  0  0  0  0  0  0  0  0  0
   11.4667   -5.7108    0.9979 N   0  0  0  0  0  0  0  0  0  0  0  0
   10.5793   -6.8483    1.0441 C   0  0  0  0  0  0  0  0  0  0  0  0
   10.6939   -7.6506    2.0131 O   0  0  0  0  0  0  0  0  0  0  0  0
    9.5520   -7.1356   -0.0363 C   0  0  1  0  0  0  0  0  0  0  0  0
   10.2304   -7.7545   -1.2627 C   0  0  0  0  0  0  0  0  0  0  0  0
    8.5188   -8.0650    0.4509 N   0  0  0  0  0  0  0  0  0  0  0  0
    7.1766   -8.1775   -0.0629 C   0  0  0  0  0  0  0  0  0  0  0  0
    6.4321   -9.0875    0.3984 O   0  0  0  0  0  0  0  0  0  0  0  0
    6.6056   -7.2700   -1.1289 C   0  0  1  0  0  0  0  0  0  0  0  0
    6.3059   -8.0975   -2.3890 C   0  0  0  0  0  0  0  0  0  0  0  0
    5.4046   -6.6081   -0.5972 N   0  0  0  0  0  0  0  0  0  0  0  0
    4.1739   -6.4562   -1.3185 C   0  0  0  0  0  0  0  0  0  0  0  0
    4.1594   -5.8148   -2.4030 O   0  0  0  0  0  0  0  0  0  0  0  0
   -2.6790    3.6671    0.8293 C   0  0  0  0  0  0  0  0  0  0  0  0
   -2.7804    4.1226    2.0008 O   0  0  0  0  0  0  0  0  0  0  0  0
   -3.8471    3.6225    0.0032 N   0  0  0  0  0  0  0  0  0  0  0  0
   -4.0221    4.5054   -1.1560 C   0  0  2  0  0  0  0  0  0  0  0  0
   -3.8140    5.9872   -0.7910 C   0  0  0  0  0  0  0  0  0  0  0  0
   -5.3785    4.2786   -1.7959 C   0  0  0  0  0  0  0  0  0  0  0  0
   -5.4085    3.8963   -2.9984 O   0  0  0  0  0  0  0  0  0  0  0  0
   -6.6326    4.4965   -1.1181 N   0  0  0  0  0  0  0  0  0  0  0  0
   -6.8081    4.7808    0.3094 C   0  0  2  0  0  0  0  0  0  0  0  0
   -7.4682    3.5815    1.0057 C   0  0  0  0  0  0  0  0  0  0  0  0
   -7.5603    6.0799    0.4746 C   0  0  0  0  0  0  0  0  0  0  0  0
   -6.9872    7.1529    0.1504 O   0  0  0  0  0  0  0  0  0  0  0  0
   -8.8720    6.1415    1.0452 N   0  0  0  0  0  0  0  0  0  0  0  0
  -10.0767    5.7514    0.3048 C   0  0  2  0  0  0  0  0  0  0  0  0
  -10.2317    6.5973   -0.9610 C   0  0  0  0  0  0  0  0  0  0  0  0
  -11.2961    5.9170    1.1830 C   0  0  0  0  0  0  0  0  0  0  0  0
  -11.5251    7.0369    1.7170 O   0  0  0  0  0  0  0  0  0  0  0  0
  -12.1771    4.8195    1.4652 N   0  0  0  0  0  0  0  0  0  0  0  0
  -12.7039    3.9352    0.4195 C   0  0  2  0  0  0  0  0  0  0  0  0
  -13.8800    4.6191   -0.2820 C   0  0  0  0  0  0  0  0  0  0  0  0
  -13.1323    2.6258    1.0345 C   0  0  0  0  0  0  0  0  0  0  0  0
  -14.0094    2.6135    1.9420 O   0  0  0  0  0  0  0  0  0  0  0  0
  -12.5081    1.3926    0.6512 N   0  0  0  0  0  0  0  0  0  0  0  0
  -12.8867    0.6268   -0.5473 C   0  0  2  0  0  0  0  0  0  0  0  0
  -12.3646    1.3031   -1.8163 C   0  0  0  0  0  0  0  0  0  0  0  0
  -14.3865    0.4186   -0.6094 C   0  0  0  0  0  0  0  0  0  0  0  0
  -15.1318    1.4230   -0.7655 O   0  0  0  0  0  0  0  0  0  0  0  0
  -15.0079   -0.8743   -0.4876 N   0  0  0  0  0  0  0  0  0  0  0  0
  -14.2958   -2.1591   -0.5667 C   0  0  2  0  0  0  0  0  0  0  0  0
  -15.2976   -3.2885   -0.8448 C   0  0  0  0  0  0  0  0  0  0  0  0
  -13.5544   -2.4449    0.7218 C   0  0  0  0  0  0  0  0  0  0  0  0
  -13.8817   -1.8230    1.7696 O   0  0  0  0  0  0  0  0  0  0  0  0
  -12.5069   -3.4313    0.8040 N   0  0  0  0  0  0  0  0  0  0  0  0
  -11.8984   -4.1334   -0.3340 C   0  0  2  0  0  0  0  0  0  0  0  0
  -11.8159   -5.6309   -0.0081 C   0  0  0  0  0  0  0  0  0  0  0  0
  -10.5546   -3.5211   -0.6344 C   0  0  0  0  0  0  0  0  0  0  0  0
  -10.4646   -2.2646   -0.7285 O   0  0  0  0  0  0  0  0  0  0  0  0
   -9.3973   -4.3267   -0.8990 N   0  0  0  0  0  0  0  0  0  0  0  0
   -8.2238   -4.3669   -0.0110 C   0  0  2  0  0  0  0  0  0  0  0  0
   -8.0102   -3.0455    0.7412 C   0  0  0  0  0  0  0  0  0  0  0  0
   -6.9870   -4.6906   -0.8204 C   0  0  0  0  0  0  0  0  0  0  0  0
   -6.8927   -4.2206   -1.9861 O   0  0  0  0  0  0  0  0  0  0  0  0
   -5.9180   -5.5201   -0.3231 N   0  0  0  0  0  0  0  0  0  0  0  0
   -5.7507   -5.9321    1.0762 C   0  0  1  0  0  0  0  0  0  0  0  0
   -5.9843   -7.4135    1.1862 C   0  0  0  0  0  0  0  0  0  0  0  0
   -5.1739   -8.3460    0.4675 N   0  0  0  0  0  0  0  0  0  0  0  0
   -6.9168   -7.8431    1.9141 O   0  0  0  0  0  0  0  0  0  0  0  0
   -4.3501   -5.5557    1.5810 C   0  0  0  0  0  0  0  0  0  0  0  0
   -4.1636   -3.7328    1.6047 S   0  0  0  0  0  0  0  0  0  0  0  0
   -3.0891   -3.5634    0.1309 C   0  0  0  0  0  0  0  0  0  0  0  0
    3.6602  -10.7538    1.1184 H   0  0  0  0  0  0  0  0  0  0  0  0
    1.9115  -11.2134    1.1450 H   0  0  0  0  0  0  0  0  0  0  0  0
    2.5256   -9.9148    2.2469 H   0  0  0  0  0  0  0  0  0  0  0  0
    3.8314   -7.9834    0.9331 H   0  0  0  0  0  0  0  0  0  0  0  0
    2.3457   -7.4472   -1.6700 H   0  0  0  0  0  0  0  0  0  0  0  0
    1.0388   -6.4787    0.1537 H   0  0  0  0  0  0  0  0  0  0  0  0
    1.7369   -5.1984   -0.8897 H   0  0  0  0  0  0  0  0  0  0  0  0
    1.5412   -4.5693    3.2799 H   0  0  0  0  0  0  0  0  0  0  0  0
    0.7197   -5.8647    2.3818 H   0  0  0  0  0  0  0  0  0  0  0  0
   -1.1907   -5.2226    1.1386 H   0  0  0  0  0  0  0  0  0  0  0  0
   -1.9300   -1.1266    0.1498 H   0  0  0  0  0  0  0  0  0  0  0  0
    1.8155   -2.2664    1.9388 H   0  0  0  0  0  0  0  0  0  0  0  0
    0.2228    0.4224    1.8766 H   0  0  0  0  0  0  0  0  0  0  0  0
    1.6339   -0.0920    0.9213 H   0  0  0  0  0  0  0  0  0  0  0  0
   -1.8211    1.0879    1.1211 H   0  0  0  0  0  0  0  0  0  0  0  0
   -2.3673    1.3559   -0.5537 H   0  0  0  0  0  0  0  0  0  0  0  0
   -1.1563    3.5132   -0.6360 H   0  0  0  0  0  0  0  0  0  0  0  0
   -0.3669    2.8551    2.2392 H   0  0  0  0  0  0  0  0  0  0  0  0
    0.5148    4.7863   -0.9494 H   0  0  0  0  0  0  0  0  0  0  0  0
   -0.9680    6.1080    0.6891 H   0  0  0  0  0  0  0  0  0  0  0  0
    0.5150    6.9574    1.2392 H   0  0  0  0  0  0  0  0  0  0  0  0
   -0.0414    7.1205   -0.4735 H   0  0  0  0  0  0  0  0  0  0  0  0
    3.0026    4.8157   -0.3603 H   0  0  0  0  0  0  0  0  0  0  0  0
    2.3293    8.5603    0.3989 H   0  0  0  0  0  0  0  0  0  0  0  0
    3.0168    7.0242    2.0640 H   0  0  0  0  0  0  0  0  0  0  0  0
    4.5367    6.5881    1.2074 H   0  0  0  0  0  0  0  0  0  0  0  0
    4.3499    8.2314    1.9369 H   0  0  0  0  0  0  0  0  0  0  0  0
    3.8419    9.8332   -0.7050 H   0  0  0  0  0  0  0  0  0  0  0  0
    5.1904    6.3524   -1.0639 H   0  0  0  0  0  0  0  0  0  0  0  0
    7.5828    7.4860   -2.6106 H   0  0  0  0  0  0  0  0  0  0  0  0
    6.0328    6.8821   -3.3098 H   0  0  0  0  0  0  0  0  0  0  0  0
    7.1262    5.7514   -2.4248 H   0  0  0  0  0  0  0  0  0  0  0  0
    6.8850    5.9972    0.5100 H   0  0  0  0  0  0  0  0  0  0  0  0
    9.3456    6.5385   -0.8063 H   0  0  0  0  0  0  0  0  0  0  0  0
   11.1493    8.2524   -1.1006 H   0  0  0  0  0  0  0  0  0  0  0  0
   10.1973    9.4356   -0.1331 H   0  0  0  0  0  0  0  0  0  0  0  0
    9.5705    8.8435   -1.7220 H   0  0  0  0  0  0  0  0  0  0  0  0
   10.2141    7.7055    1.8790 H   0  0  0  0  0  0  0  0  0  0  0  0
   10.5865    4.0789    0.0004 H   0  0  0  0  0  0  0  0  0  0  0  0
   12.6670    6.3680    0.0404 H   0  0  0  0  0  0  0  0  0  0  0  0
   11.4991    5.9290   -1.2800 H   0  0  0  0  0  0  0  0  0  0  0  0
   12.8874    4.8772   -0.9411 H   0  0  0  0  0  0  0  0  0  0  0  0
   12.3987    4.2926    2.3554 H   0  0  0  0  0  0  0  0  0  0  0  0
   11.8304    2.4810   -0.8522 H   0  0  0  0  0  0  0  0  0  0  0  0
   14.6570    1.2967   -0.6822 H   0  0  0  0  0  0  0  0  0  0  0  0
   14.1257    2.7401   -1.6275 H   0  0  0  0  0  0  0  0  0  0  0  0
   13.4895    1.1084   -2.0421 H   0  0  0  0  0  0  0  0  0  0  0  0
   11.2361    0.3238   -0.2894 H   0  0  0  0  0  0  0  0  0  0  0  0
   12.9071   -1.5872   -0.6927 H   0  0  0  0  0  0  0  0  0  0  0  0
   15.2466   -1.0216   -0.1163 H   0  0  0  0  0  0  0  0  0  0  0  0
   14.9726   -2.7944   -0.0112 H   0  0  0  0  0  0  0  0  0  0  0  0
   15.0687   -1.8121    1.4966 H   0  0  0  0  0  0  0  0  0  0  0  0
   12.8041   -2.9432    2.0429 H   0  0  0  0  0  0  0  0  0  0  0  0
   10.7701   -4.8810   -0.8469 H   0  0  0  0  0  0  0  0  0  0  0  0
   13.0303   -4.0844   -1.5681 H   0  0  0  0  0  0  0  0  0  0  0  0
   12.9586   -5.8649   -1.3088 H   0  0  0  0  0  0  0  0  0  0  0  0
   13.7417   -4.8236   -0.0715 H   0  0  0  0  0  0  0  0  0  0  0  0
   12.1440   -5.6095    1.7885 H   0  0  0  0  0  0  0  0  0  0  0  0
    9.0799   -6.1713   -0.2971 H   0  0  0  0  0  0  0  0  0  0  0  0
   10.9637   -7.0561   -1.7137 H   0  0  0  0  0  0  0  0  0  0  0  0
    9.4723   -7.9937   -2.0389 H   0  0  0  0  0  0  0  0  0  0  0  0
   10.7556   -8.6912   -0.9789 H   0  0  0  0  0  0  0  0  0  0  0  0
    8.8295   -8.8622    1.0471 H   0  0  0  0  0  0  0  0  0  0  0  0
    7.3161   -6.4803   -1.4198 H   0  0  0  0  0  0  0  0  0  0  0  0
    5.4828   -8.8175   -2.1994 H   0  0  0  0  0  0  0  0  0  0  0  0
    7.2074   -8.6665   -2.6976 H   0  0  0  0  0  0  0  0  0  0  0  0
    6.0255   -7.4322   -3.2317 H   0  0  0  0  0  0  0  0  0  0  0  0
    5.4445   -6.2213    0.3745 H   0  0  0  0  0  0  0  0  0  0  0  0
   -4.4785    2.8029    0.1267 H   0  0  0  0  0  0  0  0  0  0  0  0
   -3.2440    4.2423   -1.9097 H   0  0  0  0  0  0  0  0  0  0  0  0
   -2.7402    6.2481   -0.9083 H   0  0  0  0  0  0  0  0  0  0  0  0
   -4.3982    6.6558   -1.4622 H   0  0  0  0  0  0  0  0  0  0  0  0
   -4.1014    6.1995    0.2619 H   0  0  0  0  0  0  0  0  0  0  0  0
   -7.5043    4.3739   -1.6852 H   0  0  0  0  0  0  0  0  0  0  0  0
   -5.8387    4.9207    0.8121 H   0  0  0  0  0  0  0  0  0  0  0  0
   -8.3666    3.2395    0.4532 H   0  0  0  0  0  0  0  0  0  0  0  0
   -7.7430    3.8406    2.0509 H   0  0  0  0  0  0  0  0  0  0  0  0
   -6.7527    2.7309    1.0374 H   0  0  0  0  0  0  0  0  0  0  0  0
   -8.9633    6.6750    1.9387 H   0  0  0  0  0  0  0  0  0  0  0  0
   -9.9796    4.6903   -0.0019 H   0  0  0  0  0  0  0  0  0  0  0  0
   -9.3749    6.4300   -1.6463 H   0  0  0  0  0  0  0  0  0  0  0  0
  -10.2773    7.6790   -0.7091 H   0  0  0  0  0  0  0  0  0  0  0  0
  -11.1585    6.3128   -1.5008 H   0  0  0  0  0  0  0  0  0  0  0  0
  -12.7387    4.8954    2.3449 H   0  0  0  0  0  0  0  0  0  0  0  0
  -11.9209    3.7321   -0.3366 H   0  0  0  0  0  0  0  0  0  0  0  0
  -14.6927    4.8433    0.4441 H   0  0  0  0  0  0  0  0  0  0  0  0
  -14.2890    3.9701   -1.0841 H   0  0  0  0  0  0  0  0  0  0  0  0
  -13.5437    5.5703   -0.7430 H   0  0  0  0  0  0  0  0  0  0  0  0
  -11.9424    0.9011    1.3791 H   0  0  0  0  0  0  0  0  0  0  0  0
  -12.3736   -0.3493   -0.4881 H   0  0  0  0  0  0  0  0  0  0  0  0
  -12.5350    0.6396   -2.6911 H   0  0  0  0  0  0  0  0  0  0  0  0
  -12.8847    2.2651   -2.0015 H   0  0  0  0  0  0  0  0  0  0  0  0
  -11.2754    1.4924   -1.7251 H   0  0  0  0  0  0  0  0  0  0  0  0
  -16.0555   -0.8860   -0.4480 H   0  0  0  0  0  0  0  0  0  0  0  0
  -13.5872   -2.1013   -1.4186 H   0  0  0  0  0  0  0  0  0  0  0  0
  -16.0409   -3.3629   -0.0242 H   0  0  0  0  0  0  0  0  0  0  0  0
  -15.8377   -3.0888   -1.7950 H   0  0  0  0  0  0  0  0  0  0  0  0
  -14.7861   -4.2690   -0.9427 H   0  0  0  0  0  0  0  0  0  0  0  0
  -12.0522   -3.5637    1.7373 H   0  0  0  0  0  0  0  0  0  0  0  0
  -12.5188   -4.0306   -1.2426 H   0  0  0  0  0  0  0  0  0  0  0  0
  -11.5032   -6.2095   -0.9041 H   0  0  0  0  0  0  0  0  0  0  0  0
  -12.8191   -5.9990    0.2994 H   0  0  0  0  0  0  0  0  0  0  0  0
  -11.1028   -5.8117    0.8257 H   0  0  0  0  0  0  0  0  0  0  0  0
   -9.5297   -5.1480   -1.5300 H   0  0  0  0  0  0  0  0  0  0  0  0
   -8.4113   -5.1694    0.7334 H   0  0  0  0  0  0  0  0  0  0  0  0
   -8.8659   -2.8429    1.4182 H   0  0  0  0  0  0  0  0  0  0  0  0
   -7.0973   -3.1004    1.3692 H   0  0  0  0  0  0  0  0  0  0  0  0
   -7.8971   -2.2019    0.0281 H   0  0  0  0  0  0  0  0  0  0  0  0
   -5.1885   -5.8144   -1.0083 H   0  0  0  0  0  0  0  0  0  0  0  0
   -6.4759   -5.4139    1.7340 H   0  0  0  0  0  0  0  0  0  0  0  0
   -5.3524   -9.3709    0.5557 H   0  0  0  0  0  0  0  0  0  0  0  0
   -4.4255   -8.0235   -0.1859 H   0  0  0  0  0  0  0  0  0  0  0  0
   -3.5555   -6.0549    0.9859 H   0  0  0  0  0  0  0  0  0  0  0  0
   -4.2401   -5.9068    2.6262 H   0  0  0  0  0  0  0  0  0  0  0  0
   -3.0694   -4.4812   -0.4949 H   0  0  0  0  0  0  0  0  0  0  0  0
   -3.5090   -2.7602   -0.5121 H   0  0  0  0  0  0  0  0  0  0  0  0
  1  2  1  0
  2  3  2  0
  2  4  1  0
  4  5  1  0
  5  6  1  0
  6  7  1  0
  7  8  1  0
  8  9  1  0
  9 10  2  0
 10 11  1  0
 11 12  2  0
 12 13  1  0
 13 14  2  0
 13 15  1  0
 15 16  1  0
 16 17  1  0
 17 18  1  0
 18 19  1  0
 19 20  1  0
 20 21  2  0
 20 22  1  0
 22 23  1  0
 22 24  1  0
 24 25  1  0
 25 26  2  0
 25 27  1  0
 27 28  1  0
 27 29  1  0
 29 30  1  0
 30 31  2  0
 30 32  1  0
 32 33  1  0
 32 34  1  0
 34 35  1  0
 35 36  2  0
 35 37  1  0
 37 38  1  0
 37 39  1  0
 39 40  1  0
 40 41  2  0
 40 42  1  0
 42 43  1  0
 42 44  1  0
 44 45  1  0
 45 46  2  0
 45 47  1  0
 47 48  1  0
 47 49  1  0
 49 50  1  0
 50 51  2  0
 50 52  1  0
 52 53  1  0
 52 54  1  0
 54 55  1  0
 55 56  2  0
 55 57  1  0
 57 58  1  0
 57 59  1  0
 59 60  1  0
 60 61  2  0
 60 62  1  0
 62 63  1  0
 62 64  1  0
 64 65  1  0
 65 66  2  0
 65 67  1  0
 67 68  1  0
 67 69  1  0
 69 70  1  0
 70 71  2  0
 18 72  1  0
 72 73  2  0
 72 74  1  0
 74 75  1  0
 75 76  1  0
 75 77  1  0
 77 78  2  0
 77 79  1  0
 79 80  1  0
 80 81  1  0
 80 82  1  0
 82 83  2  0
 82 84  1  0
 84 85  1  0
 85 86  1  0
 85 87  1  0
 87 88  2  0
 87 89  1  0
 89 90  1  0
 90 91  1  0
 90 92  1  0
 92 93  2  0
 92 94  1  0
 94 95  1  0
 95 96  1  0
 95 97  1  0
 97 98  2  0
 97 99  1  0
 99100  1  0
100101  1  0
100102  1  0
102103  2  0
102104  1  0
104105  1  0
105106  1  0
105107  1  0
107108  2  0
107109  1  0
109110  1  0
110111  1  0
110112  1  0
112113  2  0
112114  1  0
114115  1  0
115116  1  0
116117  1  0
116118  2  0
115119  1  0
119120  1  0
120121  1  0
 70  5  1  0
 14  9  1  0
121 11  1  0
  1122  1  0
  1123  1  0
  1124  1  0
  4125  1  0
  5126  1  6
  6127  1  0
  6128  1  0
  8129  1  0
  8130  1  0
 10131  1  0
 12132  1  0
 14133  1  0
 15134  1  0
 15135  1  0
 17136  1  0
 17137  1  0
 18138  1  6
 19139  1  0
 22140  1  6
 23141  1  0
 23142  1  0
 23143  1  0
 24144  1  0
 27145  1  1
 28146  1  0
 28147  1  0
 28148  1  0
 29149  1  0
 32150  1  1
 33151  1  0
 33152  1  0
 33153  1  0
 34154  1  0
 37155  1  6
 38156  1  0
 38157  1  0
 38158  1  0
 39159  1  0
 42160  1  6
 43161  1  0
 43162  1  0
 43163  1  0
 44164  1  0
 47165  1  6
 48166  1  0
 48167  1  0
 48168  1  0
 49169  1  0
 52170  1  6
 53171  1  0
 53172  1  0
 53173  1  0
 54174  1  0
 57175  1  6
 58176  1  0
 58177  1  0
 58178  1  0
 59179  1  0
 62180  1  6
 63181  1  0
 63182  1  0
 63183  1  0
 64184  1  0
 67185  1  6
 68186  1  0
 68187  1  0
 68188  1  0
 69189  1  0
 74190  1  0
 75191  1  6
 76192  1  0
 76193  1  0
 76194  1  0
 79195  1  0
 80196  1  1
 81197  1  0
 81198  1  0
 81199  1  0
 84200  1  0
 85201  1  6
 86202  1  0
 86203  1  0
 86204  1  0
 89205  1  0
 90206  1  6
 91207  1  0
 91208  1  0
 91209  1  0
 94210  1  0
 95211  1  1
 96212  1  0
 96213  1  0
 96214  1  0
 99215  1  0
100216  1  6
101217  1  0
101218  1  0
101219  1  0
104220  1  0
105221  1  6
106222  1  0
106223  1  0
106224  1  0
109225  1  0
110226  1  1
111227  1  0
111228  1  0
111229  1  0
114230  1  0
115231  1  1
117232  1  0
117233  1  0
119234  1  0
119235  1  0
121236  1  0
121237  1  0
M  END
