
     RDKit          3D

217219  0  0  0  0  0  0  0  0999 V2000
    1.1322   -9.7592    1.0972 C   0  0  0  0  0  0  0  0  0  0  0  0
   -0.0128   -8.8152    0.9119 C   0  0  0  0  0  0  0  0  0  0  0  0
   -0.8498   -8.6825    1.8463 O   0  0  0  0  0  0  0  0  0  0  0  0
   -0.1616   -8.0721   -0.3064 N   0  0  0  0  0  0  0  0  0  0  0  0
   -1.3625   -7.2845   -0.5974 C   0  0  1  0  0  0  0  0  0  0  0  0
   -1.0617   -6.1724   -1.6341 C   0  0  0  0  0  0  0  0  0  0  0  0
   -0.7697   -4.5498   -0.8359 S   0  0  0  0  0  0  0  0  0  0  0  0
    0.8293   -4.9712   -0.0410 C   0  0  0  0  0  0  0  0  0  0  0  0
    1.4939   -3.8377    0.7113 C   0  0  0  0  0  0  0  0  0  0  0  0
    2.7291   -4.0988    1.3265 C   0  0  0  0  0  0  0  0  0  0  0  0
    3.3960   -3.0999    2.0486 C   0  0  0  0  0  0  0  0  0  0  0  0
    2.8568   -1.8055    2.0984 C   0  0  0  0  0  0  0  0  0  0  0  0
    1.6310   -1.5217    1.4832 C   0  0  0  0  0  0  0  0  0  0  0  0
    0.9310   -2.5474    0.8307 C   0  0  0  0  0  0  0  0  0  0  0  0
    1.0477   -0.1347    1.5707 C   0  0  0  0  0  0  0  0  0  0  0  0
    0.5125    0.4587   -0.0746 S   0  0  0  0  0  0  0  0  0  0  0  0
    2.1331    1.1262   -0.6091 C   0  0  0  0  0  0  0  0  0  0  0  0
    2.1952    2.6490   -0.3731 C   0  0  2  0  0  0  0  0  0  0  0  0
    1.3372    3.3456   -1.3471 N   0  0  0  0  0  0  0  0  0  0  0  0
   -0.0812    3.4753   -1.1917 C   0  0  0  0  0  0  0  0  0  0  0  0
   -0.8376    2.8076   -1.9456 O   0  0  0  0  0  0  0  0  0  0  0  0
   -0.7035    4.4756   -0.2436 C   0  0  1  0  0  0  0  0  0  0  0  0
   -0.4006    4.1503    1.2227 C   0  0  0  0  0  0  0  0  0  0  0  0
   -0.2570    5.8362   -0.5729 N   0  0  0  0  0  0  0  0  0  0  0  0
   -1.0329    7.0292   -0.3616 C   0  0  0  0  0  0  0  0  0  0  0  0
   -0.6753    8.0885   -0.9394 O   0  0  0  0  0  0  0  0  0  0  0  0
   -2.2018    7.0885    0.5976 C   0  0  1  0  0  0  0  0  0  0  0  0
   -1.7533    7.6931    1.9303 C   0  0  0  0  0  0  0  0  0  0  0  0
   -3.2862    7.8977    0.0353 N   0  0  0  0  0  0  0  0  0  0  0  0
   -4.5613    7.3223   -0.2837 C   0  0  0  0  0  0  0  0  0  0  0  0
   -4.5997    6.2502   -0.9470 O   0  0  0  0  0  0  0  0  0  0  0  0
   -5.8480    7.9122    0.2552 C   0  0  1  0  0  0  0  0  0  0  0  0
   -5.7659    9.4345    0.4209 C   0  0  0  0  0  0  0  0  0  0  0  0
   -6.9828    7.5794   -0.6180 N   0  0  0  0  0  0  0  0  0  0  0  0
   -8.3703    7.6296   -0.2302 C   0  0  0  0  0  0  0  0  0  0  0  0
   -9.2505    7.5711   -1.1334 O   0  0  0  0  0  0  0  0  0  0  0  0
   -8.8116    7.6834    1.2204 C   0  0  1  0  0  0  0  0  0  0  0  0
   -9.9883    8.6497    1.4024 C   0  0  0  0  0  0  0  0  0  0  0  0
   -9.1696    6.3576    1.7548 N   0  0  0  0  0  0  0  0  0  0  0  0
   -9.7420    5.2954    0.9823 C   0  0  0  0  0  0  0  0  0  0  0  0
  -10.9562    4.9991    1.1455 O   0  0  0  0  0  0  0  0  0  0  0  0
   -8.8727    4.4287    0.1060 C   0  0  1  0  0  0  0  0  0  0  0  0
   -8.4343    3.1650    0.8660 C   0  0  0  0  0  0  0  0  0  0  0  0
   -9.5653    4.1491   -1.1624 N   0  0  0  0  0  0  0  0  0  0  0  0
   -9.9335    2.8523   -1.6477 C   0  0  0  0  0  0  0  0  0  0  0  0
   -9.3686    2.4055   -2.6863 O   0  0  0  0  0  0  0  0  0  0  0  0
  -11.0904    2.1078   -1.0413 C   0  0  1  0  0  0  0  0  0  0  0  0
  -12.4141    2.7300   -1.4847 C   0  0  0  0  0  0  0  0  0  0  0  0
  -11.0575    0.6939   -1.4184 N   0  0  0  0  0  0  0  0  0  0  0  0
  -10.3964   -0.2771   -0.6079 C   0  0  0  0  0  0  0  0  0  0  0  0
   -9.1412   -0.2106   -0.4544 O   0  0  0  0  0  0  0  0  0  0  0  0
  -11.1429   -1.4594   -0.0602 C   0  0  1  0  0  0  0  0  0  0  0  0
  -12.5074   -1.0401    0.4901 C   0  0  0  0  0  0  0  0  0  0  0  0
  -11.3251   -2.4682   -1.1035 N   0  0  0  0  0  0  0  0  0  0  0  0
  -10.7569   -3.7873   -1.0670 C   0  0  0  0  0  0  0  0  0  0  0  0
  -11.3446   -4.7109   -1.6985 O   0  0  0  0  0  0  0  0  0  0  0  0
   -9.5222   -4.1195   -0.2616 C   0  0  1  0  0  0  0  0  0  0  0  0
   -9.9034   -4.6817    1.1121 C   0  0  0  0  0  0  0  0  0  0  0  0
   -8.6487   -5.0295   -1.0172 N   0  0  0  0  0  0  0  0  0  0  0  0
   -8.8187   -6.4594   -1.0582 C   0  0  0  0  0  0  0  0  0  0  0  0
   -9.4624   -6.9653   -2.0126 O   0  0  0  0  0  0  0  0  0  0  0  0
   -8.2298   -7.3302    0.0310 C   0  0  1  0  0  0  0  0  0  0  0  0
   -8.0764   -8.7927   -0.4020 C   0  0  0  0  0  0  0  0  0  0  0  0
   -6.9300   -6.8079    0.4767 N   0  0  0  0  0  0  0  0  0  0  0  0
   -5.7835   -6.7229   -0.3899 C   0  0  0  0  0  0  0  0  0  0  0  0
   -5.9447   -6.4255   -1.6075 O   0  0  0  0  0  0  0  0  0  0  0  0
   -4.3767   -6.9938    0.0903 C   0  0  1  0  0  0  0  0  0  0  0  0
   -4.2979   -7.3236    1.5885 C   0  0  0  0  0  0  0  0  0  0  0  0
   -3.8160   -8.1101   -0.6805 N   0  0  0  0  0  0  0  0  0  0  0  0
   -2.4491   -8.2030   -1.1145 C   0  0  0  0  0  0  0  0  0  0  0  0
   -2.1498   -9.0613   -1.9912 O   0  0  0  0  0  0  0  0  0  0  0  0
    3.6063    3.1984   -0.4847 C   0  0  0  0  0  0  0  0  0  0  0  0
    4.6050    2.4423   -0.3277 O   0  0  0  0  0  0  0  0  0  0  0  0
    3.8035    4.6035   -0.6965 N   0  0  0  0  0  0  0  0  0  0  0  0
    4.9438    5.2065   -1.4094 C   0  0  2  0  0  0  0  0  0  0  0  0
    4.4419    6.4103   -2.2171 C   0  0  0  0  0  0  0  0  0  0  0  0
    5.6062    4.2260   -2.3507 C   0  0  0  0  0  0  0  0  0  0  0  0
    4.8931    3.6480   -3.2159 O   0  0  0  0  0  0  0  0  0  0  0  0
    7.0103    3.9025   -2.2868 N   0  0  0  0  0  0  0  0  0  0  0  0
    8.0636    4.7286   -1.6590 C   0  0  2  0  0  0  0  0  0  0  0  0
    8.1041    6.1267   -2.2978 C   0  0  0  0  0  0  0  0  0  0  0  0
    9.4151    4.0729   -1.8512 C   0  0  0  0  0  0  0  0  0  0  0  0
    9.7265    3.6767   -3.0082 O   0  0  0  0  0  0  0  0  0  0  0  0
   10.4001    3.9457   -0.8003 N   0  0  0  0  0  0  0  0  0  0  0  0
   10.1818    4.2368    0.6191 C   0  0  2  0  0  0  0  0  0  0  0  0
   10.3002    5.7536    0.8545 C   0  0  0  0  0  0  0  0  0  0  0  0
   11.1878    3.4678    1.4593 C   0  0  0  0  0  0  0  0  0  0  0  0
   12.1108    4.0901    2.0519 O   0  0  0  0  0  0  0  0  0  0  0  0
   11.1922    2.0273    1.5137 N   0  0  0  0  0  0  0  0  0  0  0  0
   10.1798    1.1518    0.9106 C   0  0  2  0  0  0  0  0  0  0  0  0
    9.5776    0.2428    1.9814 C   0  0  0  0  0  0  0  0  0  0  0  0
   10.7998    0.3295   -0.1860 C   0  0  0  0  0  0  0  0  0  0  0  0
   10.3771    0.4519   -1.3720 O   0  0  0  0  0  0  0  0  0  0  0  0
   11.8699   -0.5811    0.0947 N   0  0  0  0  0  0  0  0  0  0  0  0
   11.7068   -2.0225   -0.1333 C   0  0  2  0  0  0  0  0  0  0  0  0
   12.9047   -2.7902    0.4465 C   0  0  0  0  0  0  0  0  0  0  0  0
   11.5726   -2.3228   -1.6066 C   0  0  0  0  0  0  0  0  0  0  0  0
   12.4373   -1.8889   -2.4075 O   0  0  0  0  0  0  0  0  0  0  0  0
   10.4861   -3.1142   -2.0973 N   0  0  0  0  0  0  0  0  0  0  0  0
   10.1205   -4.3934   -1.4861 C   0  0  2  0  0  0  0  0  0  0  0  0
   10.8532   -5.5377   -2.1838 C   0  0  0  0  0  0  0  0  0  0  0  0
    8.6253   -4.5954   -1.5708 C   0  0  0  0  0  0  0  0  0  0  0  0
    8.0769   -4.5904   -2.7034 O   0  0  0  0  0  0  0  0  0  0  0  0
    7.7934   -4.7872   -0.4050 N   0  0  0  0  0  0  0  0  0  0  0  0
    8.2420   -4.6219    0.9853 C   0  0  2  0  0  0  0  0  0  0  0  0
    9.1216   -5.7762    1.3954 C   0  0  0  0  0  0  0  0  0  0  0  0
    8.6965   -7.1223    1.1955 N   0  0  0  0  0  0  0  0  0  0  0  0
   10.2544   -5.5447    1.8958 O   0  0  0  0  0  0  0  0  0  0  0  0
    7.0292   -4.5340    1.9310 C   0  0  0  0  0  0  0  0  0  0  0  0
    6.0767   -3.0083    1.6023 S   0  0  0  0  0  0  0  0  0  0  0  0
    4.6960   -3.4038    2.7276 C   0  0  0  0  0  0  0  0  0  0  0  0
    0.7416  -10.7886    1.2401 H   0  0  0  0  0  0  0  0  0  0  0  0
    1.7122   -9.4640    1.9956 H   0  0  0  0  0  0  0  0  0  0  0  0
    1.8065   -9.7454    0.2199 H   0  0  0  0  0  0  0  0  0  0  0  0
    0.5887   -8.1547   -1.0279 H   0  0  0  0  0  0  0  0  0  0  0  0
   -1.7006   -6.7999    0.3409 H   0  0  0  0  0  0  0  0  0  0  0  0
   -1.9355   -6.0309   -2.3022 H   0  0  0  0  0  0  0  0  0  0  0  0
   -0.2065   -6.4397   -2.2892 H   0  0  0  0  0  0  0  0  0  0  0  0
    1.5265   -5.3387   -0.8284 H   0  0  0  0  0  0  0  0  0  0  0  0
    0.6588   -5.7968    0.6779 H   0  0  0  0  0  0  0  0  0  0  0  0
    3.1617   -5.0931    1.2552 H   0  0  0  0  0  0  0  0  0  0  0  0
    3.3878   -1.0294    2.6249 H   0  0  0  0  0  0  0  0  0  0  0  0
   -0.0422   -2.3287    0.4176 H   0  0  0  0  0  0  0  0  0  0  0  0
    0.1662   -0.1658    2.2367 H   0  0  0  0  0  0  0  0  0  0  0  0
    1.7664    0.5838    2.0144 H   0  0  0  0  0  0  0  0  0  0  0  0
    2.2592    0.9107   -1.6883 H   0  0  0  0  0  0  0  0  0  0  0  0
    2.9524    0.6061   -0.0676 H   0  0  0  0  0  0  0  0  0  0  0  0
    1.8595    2.8595    0.6565 H   0  0  0  0  0  0  0  0  0  0  0  0
    1.6871    3.3629   -2.3340 H   0  0  0  0  0  0  0  0  0  0  0  0
   -1.8038    4.4026   -0.3955 H   0  0  0  0  0  0  0  0  0  0  0  0
   -1.1174    4.6653    1.8900 H   0  0  0  0  0  0  0  0  0  0  0  0
    0.6188    4.4936    1.4965 H   0  0  0  0  0  0  0  0  0  0  0  0
   -0.5008    3.0560    1.4140 H   0  0  0  0  0  0  0  0  0  0  0  0
    0.6829    5.9542   -1.0236 H   0  0  0  0  0  0  0  0  0  0  0  0
   -2.5913    6.0740    0.8097 H   0  0  0  0  0  0  0  0  0  0  0  0
   -2.6216    7.7643    2.6213 H   0  0  0  0  0  0  0  0  0  0  0  0
   -1.3435    8.7175    1.7788 H   0  0  0  0  0  0  0  0  0  0  0  0
   -0.9803    7.0529    2.4075 H   0  0  0  0  0  0  0  0  0  0  0  0
   -3.1540    8.9327   -0.0473 H   0  0  0  0  0  0  0  0  0  0  0  0
   -5.9952    7.4445    1.2498 H   0  0  0  0  0  0  0  0  0  0  0  0
   -6.7430    9.8437    0.7546 H   0  0  0  0  0  0  0  0  0  0  0  0
   -5.0118    9.7023    1.1906 H   0  0  0  0  0  0  0  0  0  0  0  0
   -5.4957    9.9198   -0.5440 H   0  0  0  0  0  0  0  0  0  0  0  0
   -6.7928    7.4494   -1.6403 H   0  0  0  0  0  0  0  0  0  0  0  0
   -7.9972    8.0861    1.8533 H   0  0  0  0  0  0  0  0  0  0  0  0
   -9.6936    9.6738    1.0929 H   0  0  0  0  0  0  0  0  0  0  0  0
  -10.8694    8.3327    0.8015 H   0  0  0  0  0  0  0  0  0  0  0  0
  -10.2907    8.6835    2.4725 H   0  0  0  0  0  0  0  0  0  0  0  0
   -9.3455    6.3169    2.7832 H   0  0  0  0  0  0  0  0  0  0  0  0
   -7.9400    4.9802   -0.1384 H   0  0  0  0  0  0  0  0  0  0  0  0
   -9.2935    2.6334    1.3220 H   0  0  0  0  0  0  0  0  0  0  0  0
   -7.7445    3.4534    1.6889 H   0  0  0  0  0  0  0  0  0  0  0  0
   -7.8831    2.4752    0.1892 H   0  0  0  0  0  0  0  0  0  0  0  0
   -9.6286    4.9363   -1.8432 H   0  0  0  0  0  0  0  0  0  0  0  0
  -11.0548    2.1838    0.0674 H   0  0  0  0  0  0  0  0  0  0  0  0
  -12.4915    3.7770   -1.1176 H   0  0  0  0  0  0  0  0  0  0  0  0
  -13.2677    2.1492   -1.0640 H   0  0  0  0  0  0  0  0  0  0  0  0
  -12.4964    2.7304   -2.5944 H   0  0  0  0  0  0  0  0  0  0  0  0
  -11.4805    0.3868   -2.3303 H   0  0  0  0  0  0  0  0  0  0  0  0
  -10.5703   -1.8631    0.7927 H   0  0  0  0  0  0  0  0  0  0  0  0
  -13.0134   -1.9173    0.9489 H   0  0  0  0  0  0  0  0  0  0  0  0
  -12.3884   -0.2525    1.2675 H   0  0  0  0  0  0  0  0  0  0  0  0
  -13.1588   -0.6452   -0.3193 H   0  0  0  0  0  0  0  0  0  0  0  0
  -11.9837   -2.2459   -1.8840 H   0  0  0  0  0  0  0  0  0  0  0  0
   -8.9407   -3.1848   -0.0948 H   0  0  0  0  0  0  0  0  0  0  0  0
   -8.9806   -4.9280    1.6840 H   0  0  0  0  0  0  0  0  0  0  0  0
  -10.4770   -3.9386    1.7005 H   0  0  0  0  0  0  0  0  0  0  0  0
  -10.5321   -5.5921    1.0073 H   0  0  0  0  0  0  0  0  0  0  0  0
   -8.1237   -4.6111   -1.8161 H   0  0  0  0  0  0  0  0  0  0  0  0
   -8.9277   -7.3205    0.8939 H   0  0  0  0  0  0  0  0  0  0  0  0
   -9.0724   -9.2340   -0.6403 H   0  0  0  0  0  0  0  0  0  0  0  0
   -7.4167   -8.8790   -1.2921 H   0  0  0  0  0  0  0  0  0  0  0  0
   -7.6250   -9.3764    0.4314 H   0  0  0  0  0  0  0  0  0  0  0  0
   -6.8179   -6.6614    1.5036 H   0  0  0  0  0  0  0  0  0  0  0  0
   -3.7945   -6.0676   -0.0998 H   0  0  0  0  0  0  0  0  0  0  0  0
   -4.5906   -6.4431    2.1905 H   0  0  0  0  0  0  0  0  0  0  0  0
   -4.9459   -8.1906    1.8300 H   0  0  0  0  0  0  0  0  0  0  0  0
   -3.2577   -7.5888    1.8657 H   0  0  0  0  0  0  0  0  0  0  0  0
   -4.4626   -8.8793   -0.9735 H   0  0  0  0  0  0  0  0  0  0  0  0
    3.0640    5.2426   -0.3268 H   0  0  0  0  0  0  0  0  0  0  0  0
    5.6658    5.5687   -0.6509 H   0  0  0  0  0  0  0  0  0  0  0  0
    5.2344    6.8108   -2.8794 H   0  0  0  0  0  0  0  0  0  0  0  0
    4.1128    7.2230   -1.5326 H   0  0  0  0  0  0  0  0  0  0  0  0
    3.5815    6.1107   -2.8554 H   0  0  0  0  0  0  0  0  0  0  0  0
    7.3004    3.0549   -2.8205 H   0  0  0  0  0  0  0  0  0  0  0  0
    7.8322    4.8371   -0.5835 H   0  0  0  0  0  0  0  0  0  0  0  0
    9.0572    6.6453   -2.0611 H   0  0  0  0  0  0  0  0  0  0  0  0
    7.2959    6.7645   -1.8951 H   0  0  0  0  0  0  0  0  0  0  0  0
    8.0105    6.0559   -3.4019 H   0  0  0  0  0  0  0  0  0  0  0  0
   11.3297    3.5554   -1.0855 H   0  0  0  0  0  0  0  0  0  0  0  0
    9.1685    3.9256    0.9396 H   0  0  0  0  0  0  0  0  0  0  0  0
   10.1621    5.9858    1.9321 H   0  0  0  0  0  0  0  0  0  0  0  0
    9.5182    6.3009    0.2904 H   0  0  0  0  0  0  0  0  0  0  0  0
   11.2974    6.1222    0.5275 H   0  0  0  0  0  0  0  0  0  0  0  0
   11.9630    1.5766    2.0553 H   0  0  0  0  0  0  0  0  0  0  0  0
    9.3506    1.7467    0.4800 H   0  0  0  0  0  0  0  0  0  0  0  0
    8.8102   -0.4240    1.5284 H   0  0  0  0  0  0  0  0  0  0  0  0
    9.0892    0.8625    2.7640 H   0  0  0  0  0  0  0  0  0  0  0  0
   10.3693   -0.3761    2.4603 H   0  0  0  0  0  0  0  0  0  0  0  0
   12.6611   -0.2300    0.6812 H   0  0  0  0  0  0  0  0  0  0  0  0
   10.7972   -2.3521    0.4075 H   0  0  0  0  0  0  0  0  0  0  0  0
   13.8440   -2.5224   -0.0923 H   0  0  0  0  0  0  0  0  0  0  0  0
   13.0298   -2.5516    1.5241 H   0  0  0  0  0  0  0  0  0  0  0  0
   12.7385   -3.8868    0.3484 H   0  0  0  0  0  0  0  0  0  0  0  0
   10.1963   -2.9505   -3.0879 H   0  0  0  0  0  0  0  0  0  0  0  0
   10.4486   -4.4079   -0.4332 H   0  0  0  0  0  0  0  0  0  0  0  0
   10.6414   -6.4972   -1.6544 H   0  0  0  0  0  0  0  0  0  0  0  0
   11.9459   -5.3558   -2.1612 H   0  0  0  0  0  0  0  0  0  0  0  0
   10.5313   -5.6290   -3.2428 H   0  0  0  0  0  0  0  0  0  0  0  0
    6.7822   -4.9943   -0.5829 H   0  0  0  0  0  0  0  0  0  0  0  0
    8.8087   -3.6693    1.0781 H   0  0  0  0  0  0  0  0  0  0  0  0
    7.7490   -7.3363    0.8116 H   0  0  0  0  0  0  0  0  0  0  0  0
    9.3198   -7.9146    1.4642 H   0  0  0  0  0  0  0  0  0  0  0  0
    7.3713   -4.5200    2.9889 H   0  0  0  0  0  0  0  0  0  0  0  0
    6.3779   -5.4226    1.7781 H   0  0  0  0  0  0  0  0  0  0  0  0
    4.7958   -2.7918    3.6438 H   0  0  0  0  0  0  0  0  0  0  0  0
    4.7041   -4.4675    3.0536 H   0  0  0  0  0  0  0  0  0  0  0  0
  1  2  1  0
  2  3  2  0
  2  4  1  0
  4  5  1  0
  5  6  1  0
  6  7  1  0
  7  8  1  0
  8  9  1  0
  9 10  2  0
 10 11  1  0
 11 12  2  0
 12 13  1  0
 13 14  2  0
 13 15  1  0
 15 16  1  0
 16 17  1  0
 17 18  1  0
 18 19  1  0
 19 20  1  0
 20 21  2  0
 20 22  1  0
 22 23  1  0
 22 24  1  0
 24 25  1  0
 25 26  2  0
 25 27  1  0
 27 28  1  0
 27 29  1  0
 29 30  1  0
 30 31  2  0
 30 32  1  0
 32 33  1  0
 32 34  1  0
 34 35  1  0
 35 36  2  0
 35 37  1  0
 37 38  1  0
 37 39  1  0
 39 40  1  0
 40 41  2  0
 40 42  1  0
 42 43  1  0
 42 44  1  0
 44 45  1  0
 45 46  2  0
 45 47  1  0
 47 48  1  0
 47 49  1  0
 49 50  1  0
 50 51  2  0
 50 52  1  0
 52 53  1  0
 52 54  1  0
 54 55  1  0
 55 56  2  0
 55 57  1  0
 57 58  1  0
 57 59  1  0
 59 60  1  0
 60 61  2  0
 60 62  1  0
 62 63  1  0
 62 64  1  0
 64 65  1  0
 65 66  2  0
 65 67  1  0
 67 68  1  0
 67 69  1  0
 69 70  1  0
 70 71  2  0
 18 72  1  0
 72 73  2  0
 72 74  1  0
 74 75  1  0
 75 76  1  0
 75 77  1  0
 77 78  2  0
 77 79  1  0
 79 80  1  0
 80 81  1  0
 80 82  1  0
 82 83  2  0
 82 84  1  0
 84 85  1  0
 85 86  1  0
 85 87  1  0
 87 88  2  0
 87 89  1  0
 89 90  1  0
 90 91  1  0
 90 92  1  0
 92 93  2  0
 92 94  1  0
 94 95  1  0
 95 96  1  0
 95 97  1  0
 97 98  2  0
 97 99  1  0
 99100  1  0
100101  1  0
100102  1  0
102103  2  0
102104  1  0
104105  1  0
105106  1  0
106107  1  0
106108  2  0
105109  1  0
109110  1  0
110111  1  0
 70  5  1  0
 14  9  1  0
111 11  1  0
  1112  1  0
  1113  1  0
  1114  1  0
  4115  1  0
  5116  1  1
  6117  1  0
  6118  1  0
  8119  1  0
  8120  1  0
 10121  1  0
 12122  1  0
 14123  1  0
 15124  1  0
 15125  1  0
 17126  1  0
 17127  1  0
 18128  1  1
 19129  1  0
 22130  1  1
 23131  1  0
 23132  1  0
 23133  1  0
 24134  1  0
 27135  1  1
 28136  1  0
 28137  1  0
 28138  1  0
 29139  1  0
 32140  1  1
 33141  1  0
 33142  1  0
 33143  1  0
 34144  1  0
 37145  1  1
 38146  1  0
 38147  1  0
 38148  1  0
 39149  1  0
 42150  1  6
 43151  1  0
 43152  1  0
 43153  1  0
 44154  1  0
 47155  1  1
 48156  1  0
 48157  1  0
 48158  1  0
 49159  1  0
 52160  1  1
 53161  1  0
 53162  1  0
 53163  1  0
 54164  1  0
 57165  1  1
 58166  1  0
 58167  1  0
 58168  1  0
 59169  1  0
 62170  1  1
 63171  1  0
 63172  1  0
 63173  1  0
 64174  1  0
 67175  1  1
 68176  1  0
 68177  1  0
 68178  1  0
 69179  1  0
 74180  1  0
 75181  1  1
 76182  1  0
 76183  1  0
 76184  1  0
 79185  1  0
 80186  1  1
 81187  1  0
 81188  1  0
 81189  1  0
 84190  1  0
 85191  1  1
 86192  1  0
 86193  1  0
 86194  1  0
 89195  1  0
 90196  1  6
 91197  1  0
 91198  1  0
 91199  1  0
 94200  1  0
 95201  1  1
 96202  1  0
 96203  1  0
 96204  1  0
 99205  1  0
100206  1  1
101207  1  0
101208  1  0
101209  1  0
104210  1  0
105211  1  6
107212  1  0
107213  1  0
109214  1  0
109215  1  0
111216  1  0
111217  1  0
M  END
