
     RDKit          3D

227229  0  0  0  0  0  0  0  0999 V2000
   -2.5811   -9.6172   -0.6060 C   0  0  0  0  0  0  0  0  0  0  0  0
   -2.9643   -9.1142    0.7518 C   0  0  0  0  0  0  0  0  0  0  0  0
   -3.0959   -9.9389    1.7002 O   0  0  0  0  0  0  0  0  0  0  0  0
   -3.1816   -7.7162    1.0102 N   0  0  0  0  0  0  0  0  0  0  0  0
   -2.7572   -6.6534    0.0920 C   0  0  2  0  0  0  0  0  0  0  0  0
   -2.3180   -5.4001    0.8694 C   0  0  0  0  0  0  0  0  0  0  0  0
   -0.9441   -5.8465    1.9901 S   0  0  0  0  0  0  0  0  0  0  0  0
   -0.2912   -4.1583    2.2446 C   0  0  0  0  0  0  0  0  0  0  0  0
    0.5718   -3.7018    1.0934 C   0  0  0  0  0  0  0  0  0  0  0  0
    1.5966   -4.5268    0.5958 C   0  0  0  0  0  0  0  0  0  0  0  0
    2.4164   -4.0959   -0.4583 C   0  0  0  0  0  0  0  0  0  0  0  0
    2.1946   -2.8311   -1.0207 C   0  0  0  0  0  0  0  0  0  0  0  0
    1.1793   -1.9931   -0.5343 C   0  0  0  0  0  0  0  0  0  0  0  0
    0.3767   -2.4294    0.5324 C   0  0  0  0  0  0  0  0  0  0  0  0
    0.9846   -0.6191   -1.1095 C   0  0  0  0  0  0  0  0  0  0  0  0
    2.0336    0.5625   -0.2018 S   0  0  0  0  0  0  0  0  0  0  0  0
    1.4822    2.0365   -1.1336 C   0  0  0  0  0  0  0  0  0  0  0  0
    2.3221    3.2707   -0.7522 C   0  0  2  0  0  0  0  0  0  0  0  0
    1.6667    4.4876   -1.2545 N   0  0  0  0  0  0  0  0  0  0  0  0
    0.8390    5.3723   -0.4740 C   0  0  0  0  0  0  0  0  0  0  0  0
    0.6686    6.5566   -0.8854 O   0  0  0  0  0  0  0  0  0  0  0  0
    0.0999    4.9086    0.7694 C   0  0  1  0  0  0  0  0  0  0  0  0
   -0.1578    6.0611    1.7555 C   0  0  0  0  0  0  0  0  0  0  0  0
   -1.1359    4.2032    0.4064 N   0  0  0  0  0  0  0  0  0  0  0  0
   -2.4384    4.8050    0.3721 C   0  0  0  0  0  0  0  0  0  0  0  0
   -3.2783    4.4629    1.2507 O   0  0  0  0  0  0  0  0  0  0  0  0
   -2.8389    5.7934   -0.6996 C   0  0  1  0  0  0  0  0  0  0  0  0
   -2.4161    5.3165   -2.0914 C   0  0  0  0  0  0  0  0  0  0  0  0
   -4.2949    5.9700   -0.6938 N   0  0  0  0  0  0  0  0  0  0  0  0
   -4.9033    7.2616   -0.7273 C   0  0  0  0  0  0  0  0  0  0  0  0
   -4.7380    8.0003   -1.7406 O   0  0  0  0  0  0  0  0  0  0  0  0
   -5.7255    7.7343    0.4324 C   0  0  1  0  0  0  0  0  0  0  0  0
   -4.9329    8.7820    1.2242 C   0  0  0  0  0  0  0  0  0  0  0  0
   -6.9995    8.3056   -0.0310 N   0  0  0  0  0  0  0  0  0  0  0  0
   -8.1600    7.5337   -0.3836 C   0  0  0  0  0  0  0  0  0  0  0  0
   -9.1780    8.1359   -0.8253 O   0  0  0  0  0  0  0  0  0  0  0  0
   -8.2362    6.0342   -0.1752 C   0  0  1  0  0  0  0  0  0  0  0  0
   -8.7738    5.7517    1.2339 C   0  0  0  0  0  0  0  0  0  0  0  0
   -9.0876    5.4247   -1.2082 N   0  0  0  0  0  0  0  0  0  0  0  0
   -9.5533    4.0728   -1.1131 C   0  0  0  0  0  0  0  0  0  0  0  0
   -8.7665    3.1307   -1.4051 O   0  0  0  0  0  0  0  0  0  0  0  0
  -10.9453    3.7758   -0.6099 C   0  0  1  0  0  0  0  0  0  0  0  0
  -11.9111    4.9155   -0.9596 C   0  0  0  0  0  0  0  0  0  0  0  0
  -11.4450    2.5211   -1.1921 N   0  0  0  0  0  0  0  0  0  0  0  0
  -12.3775    1.6476   -0.5303 C   0  0  0  0  0  0  0  0  0  0  0  0
  -13.1846    0.9837   -1.2368 O   0  0  0  0  0  0  0  0  0  0  0  0
  -12.4297    1.5039    0.9762 C   0  0  1  0  0  0  0  0  0  0  0  0
  -13.3710    2.5590    1.5797 C   0  0  0  0  0  0  0  0  0  0  0  0
  -12.9012    0.1646    1.3525 N   0  0  0  0  0  0  0  0  0  0  0  0
  -12.1629   -1.0617    1.1990 C   0  0  0  0  0  0  0  0  0  0  0  0
  -12.6659   -2.1211    1.6672 O   0  0  0  0  0  0  0  0  0  0  0  0
  -10.8541   -1.1446    0.4362 C   0  0  1  0  0  0  0  0  0  0  0  0
   -9.7926   -1.9242    1.2177 C   0  0  0  0  0  0  0  0  0  0  0  0
  -11.0609   -1.7127   -0.9045 N   0  0  0  0  0  0  0  0  0  0  0  0
  -11.8038   -2.9141   -1.1688 C   0  0  0  0  0  0  0  0  0  0  0  0
  -12.8925   -2.8293   -1.7990 O   0  0  0  0  0  0  0  0  0  0  0  0
  -11.2656   -4.2741   -0.7940 C   0  0  1  0  0  0  0  0  0  0  0  0
  -12.1691   -4.9515    0.2439 C   0  0  0  0  0  0  0  0  0  0  0  0
  -11.1851   -5.1218   -1.9894 N   0  0  0  0  0  0  0  0  0  0  0  0
  -10.1579   -6.1010   -2.2313 C   0  0  0  0  0  0  0  0  0  0  0  0
  -10.4566   -7.1308   -2.8974 O   0  0  0  0  0  0  0  0  0  0  0  0
   -8.7228   -5.9380   -1.7693 C   0  0  1  0  0  0  0  0  0  0  0  0
   -8.1522   -4.5838   -2.2153 C   0  0  0  0  0  0  0  0  0  0  0  0
   -8.6109   -6.1432   -0.3148 N   0  0  0  0  0  0  0  0  0  0  0  0
   -7.4068   -5.9168    0.4423 C   0  0  0  0  0  0  0  0  0  0  0  0
   -7.4341   -5.0642    1.3730 O   0  0  0  0  0  0  0  0  0  0  0  0
   -6.1194   -6.6878    0.2186 C   0  0  1  0  0  0  0  0  0  0  0  0
   -6.3470   -8.0182   -0.5195 C   0  0  0  0  0  0  0  0  0  0  0  0
   -5.1367   -5.8551   -0.4860 N   0  0  0  0  0  0  0  0  0  0  0  0
   -3.8492   -6.3273   -0.8966 C   0  0  0  0  0  0  0  0  0  0  0  0
   -3.5919   -6.3925   -2.1273 O   0  0  0  0  0  0  0  0  0  0  0  0
    3.7129    3.1512   -1.3482 C   0  0  0  0  0  0  0  0  0  0  0  0
    3.8198    3.1213   -2.6049 O   0  0  0  0  0  0  0  0  0  0  0  0
    4.9092    2.9737   -0.5605 N   0  0  0  0  0  0  0  0  0  0  0  0
    5.1486    3.3454    0.8462 C   0  0  2  0  0  0  0  0  0  0  0  0
    4.6106    2.2772    1.8041 C   0  0  0  0  0  0  0  0  0  0  0  0
    4.6640    4.7472    1.1670 C   0  0  0  0  0  0  0  0  0  0  0  0
    3.5936    4.8964    1.8159 O   0  0  0  0  0  0  0  0  0  0  0  0
    5.3858    5.9362    0.7756 N   0  0  0  0  0  0  0  0  0  0  0  0
    6.8072    6.0327    0.3918 C   0  0  2  0  0  0  0  0  0  0  0  0
    7.0825    5.3342   -0.9375 C   0  0  0  0  0  0  0  0  0  0  0  0
    7.7398    5.5759    1.4957 C   0  0  0  0  0  0  0  0  0  0  0  0
    7.2830    5.0137    2.5295 O   0  0  0  0  0  0  0  0  0  0  0  0
    9.1349    5.9103    1.4364 N   0  0  0  0  0  0  0  0  0  0  0  0
   10.2042    5.0280    0.9542 C   0  0  2  0  0  0  0  0  0  0  0  0
   10.6995    5.5232   -0.4126 C   0  0  0  0  0  0  0  0  0  0  0  0
    9.7938    3.5659    0.9560 C   0  0  0  0  0  0  0  0  0  0  0  0
    9.3154    3.0596    2.0052 O   0  0  0  0  0  0  0  0  0  0  0  0
    9.9720    2.7344   -0.1921 N   0  0  0  0  0  0  0  0  0  0  0  0
   11.2953    2.2198   -0.5552 C   0  0  2  0  0  0  0  0  0  0  0  0
   11.3829    2.0847   -2.0772 C   0  0  0  0  0  0  0  0  0  0  0  0
   11.5627    0.9070    0.1456 C   0  0  0  0  0  0  0  0  0  0  0  0
   10.6184    0.3071    0.7273 O   0  0  0  0  0  0  0  0  0  0  0  0
   12.8967    0.4127    0.3116 N   0  0  0  0  0  0  0  0  0  0  0  0
   13.7001   -0.2022   -0.7612 C   0  0  2  0  0  0  0  0  0  0  0  0
   12.8786   -1.0172   -1.7899 C   0  0  0  0  0  0  0  0  0  0  0  0
   14.7906   -1.0661   -0.1635 C   0  0  0  0  0  0  0  0  0  0  0  0
   15.9844   -0.6735   -0.2666 O   0  0  0  0  0  0  0  0  0  0  0  0
   14.5296   -2.3352    0.4744 N   0  0  0  0  0  0  0  0  0  0  0  0
   13.2678   -2.7150    1.1359 C   0  0  2  0  0  0  0  0  0  0  0  0
   13.5168   -2.8843    2.6316 C   0  0  0  0  0  0  0  0  0  0  0  0
   12.7041   -3.9935    0.5389 C   0  0  0  0  0  0  0  0  0  0  0  0
   13.3345   -4.5914   -0.3803 O   0  0  0  0  0  0  0  0  0  0  0  0
   11.5097   -4.5905    1.0616 N   0  0  0  0  0  0  0  0  0  0  0  0
   10.1513   -4.1839    0.6534 C   0  0  2  0  0  0  0  0  0  0  0  0
    9.9959   -2.6630    0.6555 C   0  0  0  0  0  0  0  0  0  0  0  0
    9.1037   -4.7756    1.5753 C   0  0  0  0  0  0  0  0  0  0  0  0
    9.4459   -5.4343    2.5969 O   0  0  0  0  0  0  0  0  0  0  0  0
    7.7218   -4.4521    1.3907 N   0  0  0  0  0  0  0  0  0  0  0  0
    6.8445   -5.2599    0.5335 C   0  0  2  0  0  0  0  0  0  0  0  0
    7.1671   -5.0056   -0.9182 C   0  0  0  0  0  0  0  0  0  0  0  0
    7.0958   -3.6888   -1.4690 N   0  0  0  0  0  0  0  0  0  0  0  0
    7.5025   -5.9714   -1.6559 O   0  0  0  0  0  0  0  0  0  0  0  0
    5.3706   -4.9372    0.8286 C   0  0  0  0  0  0  0  0  0  0  0  0
    4.2524   -6.1640    0.0554 S   0  0  0  0  0  0  0  0  0  0  0  0
    3.4167   -5.0266   -1.1148 C   0  0  0  0  0  0  0  0  0  0  0  0
   -1.5717   -9.2472   -0.8767 H   0  0  0  0  0  0  0  0  0  0  0  0
   -3.3201   -9.2728   -1.3606 H   0  0  0  0  0  0  0  0  0  0  0  0
   -2.5644  -10.7260   -0.6161 H   0  0  0  0  0  0  0  0  0  0  0  0
   -3.5320   -7.4492    1.9602 H   0  0  0  0  0  0  0  0  0  0  0  0
   -1.8598   -6.9930   -0.4740 H   0  0  0  0  0  0  0  0  0  0  0  0
   -1.9820   -4.6232    0.1475 H   0  0  0  0  0  0  0  0  0  0  0  0
   -3.1647   -4.9974    1.4649 H   0  0  0  0  0  0  0  0  0  0  0  0
   -1.1350   -3.4582    2.4306 H   0  0  0  0  0  0  0  0  0  0  0  0
    0.3330   -4.1747    3.1654 H   0  0  0  0  0  0  0  0  0  0  0  0
    1.7317   -5.5181    1.0145 H   0  0  0  0  0  0  0  0  0  0  0  0
    2.8063   -2.4917   -1.8503 H   0  0  0  0  0  0  0  0  0  0  0  0
   -0.3919   -1.7746    0.9325 H   0  0  0  0  0  0  0  0  0  0  0  0
    1.2695   -0.6120   -2.1843 H   0  0  0  0  0  0  0  0  0  0  0  0
   -0.0815   -0.3132   -1.0394 H   0  0  0  0  0  0  0  0  0  0  0  0
    1.5407    1.8468   -2.2293 H   0  0  0  0  0  0  0  0  0  0  0  0
    0.4157    2.2218   -0.8822 H   0  0  0  0  0  0  0  0  0  0  0  0
    2.3955    3.3166    0.3405 H   0  0  0  0  0  0  0  0  0  0  0  0
    1.8487    4.7745   -2.2430 H   0  0  0  0  0  0  0  0  0  0  0  0
    0.7341    4.1998    1.3302 H   0  0  0  0  0  0  0  0  0  0  0  0
    0.8083    6.5018    2.0801 H   0  0  0  0  0  0  0  0  0  0  0  0
   -0.6820    5.6720    2.6574 H   0  0  0  0  0  0  0  0  0  0  0  0
   -0.7770    6.8603    1.2972 H   0  0  0  0  0  0  0  0  0  0  0  0
   -1.1355    3.1698    0.5642 H   0  0  0  0  0  0  0  0  0  0  0  0
   -2.3486    6.7738   -0.4897 H   0  0  0  0  0  0  0  0  0  0  0  0
   -2.8449    4.3153   -2.3117 H   0  0  0  0  0  0  0  0  0  0  0  0
   -1.3134    5.2615   -2.1733 H   0  0  0  0  0  0  0  0  0  0  0  0
   -2.7715    6.0373   -2.8625 H   0  0  0  0  0  0  0  0  0  0  0  0
   -4.9149    5.1221   -0.7508 H   0  0  0  0  0  0  0  0  0  0  0  0
   -5.9262    6.8879    1.1258 H   0  0  0  0  0  0  0  0  0  0  0  0
   -4.7109    9.6644    0.5860 H   0  0  0  0  0  0  0  0  0  0  0  0
   -5.5232    9.1175    2.1059 H   0  0  0  0  0  0  0  0  0  0  0  0
   -3.9766    8.3423    1.5822 H   0  0  0  0  0  0  0  0  0  0  0  0
   -7.0592    9.3445   -0.1643 H   0  0  0  0  0  0  0  0  0  0  0  0
   -7.2266    5.5847   -0.2678 H   0  0  0  0  0  0  0  0  0  0  0  0
   -8.1644    6.2769    1.9960 H   0  0  0  0  0  0  0  0  0  0  0  0
   -9.8277    6.0921    1.3265 H   0  0  0  0  0  0  0  0  0  0  0  0
   -8.7247    4.6633    1.4543 H   0  0  0  0  0  0  0  0  0  0  0  0
   -9.0157    5.8083   -2.1782 H   0  0  0  0  0  0  0  0  0  0  0  0
  -10.8781    3.6894    0.4914 H   0  0  0  0  0  0  0  0  0  0  0  0
  -12.9518    4.6411   -0.6893 H   0  0  0  0  0  0  0  0  0  0  0  0
  -11.6438    5.8348   -0.3958 H   0  0  0  0  0  0  0  0  0  0  0  0
  -11.8791    5.1372   -2.0481 H   0  0  0  0  0  0  0  0  0  0  0  0
  -11.3529    2.4131   -2.2297 H   0  0  0  0  0  0  0  0  0  0  0  0
  -11.4170    1.6521    1.4116 H   0  0  0  0  0  0  0  0  0  0  0  0
  -12.9854    3.5807    1.4124 H   0  0  0  0  0  0  0  0  0  0  0  0
  -14.3846    2.4734    1.1326 H   0  0  0  0  0  0  0  0  0  0  0  0
  -13.4516    2.4045    2.6759 H   0  0  0  0  0  0  0  0  0  0  0  0
  -13.8488    0.0741    1.7878 H   0  0  0  0  0  0  0  0  0  0  0  0
  -10.4384   -0.1277    0.3081 H   0  0  0  0  0  0  0  0  0  0  0  0
  -10.1604   -2.9157    1.5426 H   0  0  0  0  0  0  0  0  0  0  0  0
   -9.5095   -1.3541    2.1281 H   0  0  0  0  0  0  0  0  0  0  0  0
   -8.8831   -2.0583    0.5929 H   0  0  0  0  0  0  0  0  0  0  0  0
  -10.9371   -1.0559   -1.7103 H   0  0  0  0  0  0  0  0  0  0  0  0
  -10.2640   -4.1511   -0.3564 H   0  0  0  0  0  0  0  0  0  0  0  0
  -11.9336   -6.0339    0.3082 H   0  0  0  0  0  0  0  0  0  0  0  0
  -12.0011   -4.5135    1.2471 H   0  0  0  0  0  0  0  0  0  0  0  0
  -13.2399   -4.8466   -0.0289 H   0  0  0  0  0  0  0  0  0  0  0  0
  -12.0652   -5.2305   -2.5458 H   0  0  0  0  0  0  0  0  0  0  0  0
   -8.1325   -6.7250   -2.2844 H   0  0  0  0  0  0  0  0  0  0  0  0
   -7.0591   -4.6696   -2.3716 H   0  0  0  0  0  0  0  0  0  0  0  0
   -8.5901   -4.2696   -3.1860 H   0  0  0  0  0  0  0  0  0  0  0  0
   -8.3392   -3.7842   -1.4643 H   0  0  0  0  0  0  0  0  0  0  0  0
   -9.4799   -6.2556    0.2459 H   0  0  0  0  0  0  0  0  0  0  0  0
   -5.7246   -6.9358    1.2249 H   0  0  0  0  0  0  0  0  0  0  0  0
   -5.5064   -8.7103   -0.3131 H   0  0  0  0  0  0  0  0  0  0  0  0
   -7.2791   -8.5141   -0.1730 H   0  0  0  0  0  0  0  0  0  0  0  0
   -6.3835   -7.8665   -1.6142 H   0  0  0  0  0  0  0  0  0  0  0  0
   -5.4199   -4.9111   -0.8330 H   0  0  0  0  0  0  0  0  0  0  0  0
    5.7443    2.6269   -1.0872 H   0  0  0  0  0  0  0  0  0  0  0  0
    6.2439    3.3255    1.0064 H   0  0  0  0  0  0  0  0  0  0  0  0
    4.9718    2.4860    2.8329 H   0  0  0  0  0  0  0  0  0  0  0  0
    4.9849    1.2785    1.5017 H   0  0  0  0  0  0  0  0  0  0  0  0
    3.5097    2.2410    1.8321 H   0  0  0  0  0  0  0  0  0  0  0  0
    4.8716    6.8390    0.8716 H   0  0  0  0  0  0  0  0  0  0  0  0
    7.0231    7.1150    0.2333 H   0  0  0  0  0  0  0  0  0  0  0  0
    7.4218    4.2892   -0.7917 H   0  0  0  0  0  0  0  0  0  0  0  0
    7.8750    5.8805   -1.4892 H   0  0  0  0  0  0  0  0  0  0  0  0
    6.1775    5.3359   -1.5822 H   0  0  0  0  0  0  0  0  0  0  0  0
    9.3991    6.8815    1.7357 H   0  0  0  0  0  0  0  0  0  0  0  0
   11.0523    5.1204    1.6700 H   0  0  0  0  0  0  0  0  0  0  0  0
   10.7466    6.6332   -0.4203 H   0  0  0  0  0  0  0  0  0  0  0  0
   11.7212    5.1484   -0.6155 H   0  0  0  0  0  0  0  0  0  0  0  0
   10.0297    5.1925   -1.2269 H   0  0  0  0  0  0  0  0  0  0  0  0
    9.1422    2.1797   -0.4977 H   0  0  0  0  0  0  0  0  0  0  0  0
   12.0744    2.9357   -0.2281 H   0  0  0  0  0  0  0  0  0  0  0  0
   11.1067    3.0511   -2.5569 H   0  0  0  0  0  0  0  0  0  0  0  0
   12.4222    1.8365   -2.3881 H   0  0  0  0  0  0  0  0  0  0  0  0
   10.6883    1.2973   -2.4466 H   0  0  0  0  0  0  0  0  0  0  0  0
   13.3373    0.5835    1.2429 H   0  0  0  0  0  0  0  0  0  0  0  0
   14.1839    0.6343   -1.3138 H   0  0  0  0  0  0  0  0  0  0  0  0
   13.3530   -0.9414   -2.7885 H   0  0  0  0  0  0  0  0  0  0  0  0
   11.8360   -0.6593   -1.8791 H   0  0  0  0  0  0  0  0  0  0  0  0
   12.8164   -2.0890   -1.5230 H   0  0  0  0  0  0  0  0  0  0  0  0
   15.3365   -2.9897    0.5698 H   0  0  0  0  0  0  0  0  0  0  0  0
   12.5263   -1.9147    1.0128 H   0  0  0  0  0  0  0  0  0  0  0  0
   12.5658   -3.1016    3.1629 H   0  0  0  0  0  0  0  0  0  0  0  0
   13.9386   -1.9449    3.0456 H   0  0  0  0  0  0  0  0  0  0  0  0
   14.2343   -3.7087    2.8218 H   0  0  0  0  0  0  0  0  0  0  0  0
   11.6222   -5.5953    1.3316 H   0  0  0  0  0  0  0  0  0  0  0  0
    9.9642   -4.5592   -0.3750 H   0  0  0  0  0  0  0  0  0  0  0  0
    8.9421   -2.3601    0.4640 H   0  0  0  0  0  0  0  0  0  0  0  0
   10.2988   -2.2667    1.6494 H   0  0  0  0  0  0  0  0  0  0  0  0
   10.6117   -2.2205   -0.1530 H   0  0  0  0  0  0  0  0  0  0  0  0
    7.3155   -3.7337    2.0278 H   0  0  0  0  0  0  0  0  0  0  0  0
    7.0150   -6.3312    0.7683 H   0  0  0  0  0  0  0  0  0  0  0  0
    6.8520   -2.8695   -0.8717 H   0  0  0  0  0  0  0  0  0  0  0  0
    7.2761   -3.5365   -2.4875 H   0  0  0  0  0  0  0  0  0  0  0  0
    5.1955   -5.0008    1.9248 H   0  0  0  0  0  0  0  0  0  0  0  0
    5.1186   -3.8981    0.5213 H   0  0  0  0  0  0  0  0  0  0  0  0
    4.1893   -4.4438   -1.6635 H   0  0  0  0  0  0  0  0  0  0  0  0
    2.8688   -5.6381   -1.8654 H   0  0  0  0  0  0  0  0  0  0  0  0
  1  2  1  0
  2  3  2  0
  2  4  1  0
  4  5  1  0
  5  6  1  0
  6  7  1  0
  7  8  1  0
  8  9  1  0
  9 10  2  0
 10 11  1  0
 11 12  2  0
 12 13  1  0
 13 14  2  0
 13 15  1  0
 15 16  1  0
 16 17  1  0
 17 18  1  0
 18 19  1  0
 19 20  1  0
 20 21  2  0
 20 22  1  0
 22 23  1  0
 22 24  1  0
 24 25  1  0
 25 26  2  0
 25 27  1  0
 27 28  1  0
 27 29  1  0
 29 30  1  0
 30 31  2  0
 30 32  1  0
 32 33  1  0
 32 34  1  0
 34 35  1  0
 35 36  2  0
 35 37  1  0
 37 38  1  0
 37 39  1  0
 39 40  1  0
 40 41  2  0
 40 42  1  0
 42 43  1  0
 42 44  1  0
 44 45  1  0
 45 46  2  0
 45 47  1  0
 47 48  1  0
 47 49  1  0
 49 50  1  0
 50 51  2  0
 50 52  1  0
 52 53  1  0
 52 54  1  0
 54 55  1  0
 55 56  2  0
 55 57  1  0
 57 58  1  0
 57 59  1  0
 59 60  1  0
 60 61  2  0
 60 62  1  0
 62 63  1  0
 62 64  1  0
 64 65  1  0
 65 66  2  0
 65 67  1  0
 67 68  1  0
 67 69  1  0
 69 70  1  0
 70 71  2  0
 18 72  1  0
 72 73  2  0
 72 74  1  0
 74 75  1  0
 75 76  1  0
 75 77  1  0
 77 78  2  0
 77 79  1  0
 79 80  1  0
 80 81  1  0
 80 82  1  0
 82 83  2  0
 82 84  1  0
 84 85  1  0
 85 86  1  0
 85 87  1  0
 87 88  2  0
 87 89  1  0
 89 90  1  0
 90 91  1  0
 90 92  1  0
 92 93  2  0
 92 94  1  0
 94 95  1  0
 95 96  1  0
 95 97  1  0
 97 98  2  0
 97 99  1  0
 99100  1  0
100101  1  0
100102  1  0
102103  2  0
102104  1  0
104105  1  0
105106  1  0
105107  1  0
107108  2  0
107109  1  0
109110  1  0
110111  1  0
111112  1  0
111113  2  0
110114  1  0
114115  1  0
115116  1  0
 70  5  1  0
 14  9  1  0
116 11  1  0
  1117  1  0
  1118  1  0
  1119  1  0
  4120  1  0
  5121  1  6
  6122  1  0
  6123  1  0
  8124  1  0
  8125  1  0
 10126  1  0
 12127  1  0
 14128  1  0
 15129  1  0
 15130  1  0
 17131  1  0
 17132  1  0
 18133  1  1
 19134  1  0
 22135  1  1
 23136  1  0
 23137  1  0
 23138  1  0
 24139  1  0
 27140  1  1
 28141  1  0
 28142  1  0
 28143  1  0
 29144  1  0
 32145  1  1
 33146  1  0
 33147  1  0
 33148  1  0
 34149  1  0
 37150  1  1
 38151  1  0
 38152  1  0
 38153  1  0
 39154  1  0
 42155  1  1
 43156  1  0
 43157  1  0
 43158  1  0
 44159  1  0
 47160  1  1
 48161  1  0
 48162  1  0
 48163  1  0
 49164  1  0
 52165  1  6
 53166  1  0
 53167  1  0
 53168  1  0
 54169  1  0
 57170  1  1
 58171  1  0
 58172  1  0
 58173  1  0
 59174  1  0
 62175  1  6
 63176  1  0
 63177  1  0
 63178  1  0
 64179  1  0
 67180  1  1
 68181  1  0
 68182  1  0
 68183  1  0
 69184  1  0
 74185  1  0
 75186  1  6
 76187  1  0
 76188  1  0
 76189  1  0
 79190  1  0
 80191  1  6
 81192  1  0
 81193  1  0
 81194  1  0
 84195  1  0
 85196  1  1
 86197  1  0
 86198  1  0
 86199  1  0
 89200  1  0
 90201  1  1
 91202  1  0
 91203  1  0
 91204  1  0
 94205  1  0
 95206  1  6
 96207  1  0
 96208  1  0
 96209  1  0
 99210  1  0
100211  1  1
101212  1  0
101213  1  0
101214  1  0
104215  1  0
105216  1  6
106217  1  0
106218  1  0
106219  1  0
109220  1  0
110221  1  1
112222  1  0
112223  1  0
114224  1  0
114225  1  0
116226  1  0
116227  1  0
M  END
