
     RDKit          3D

217219  0  0  0  0  0  0  0  0999 V2000
    1.8725  -10.9851    1.5017 C   0  0  0  0  0  0  0  0  0  0  0  0
    2.2390   -9.5527    1.2568 C   0  0  0  0  0  0  0  0  0  0  0  0
    3.2824   -9.0922    1.7956 O   0  0  0  0  0  0  0  0  0  0  0  0
    1.4184   -8.7283    0.4097 N   0  0  0  0  0  0  0  0  0  0  0  0
    1.6357   -7.2872    0.2323 C   0  0  2  0  0  0  0  0  0  0  0  0
    0.5242   -6.5057    0.9616 C   0  0  0  0  0  0  0  0  0  0  0  0
    0.9710   -4.7440    1.2069 S   0  0  0  0  0  0  0  0  0  0  0  0
    0.3120   -4.0902   -0.3727 C   0  0  0  0  0  0  0  0  0  0  0  0
   -0.8033   -3.1196   -0.1140 C   0  0  0  0  0  0  0  0  0  0  0  0
   -2.1225   -3.4441   -0.4734 C   0  0  0  0  0  0  0  0  0  0  0  0
   -3.1654   -2.5248   -0.2876 C   0  0  0  0  0  0  0  0  0  0  0  0
   -2.8865   -1.2679    0.2659 C   0  0  0  0  0  0  0  0  0  0  0  0
   -1.5717   -0.9237    0.6063 C   0  0  0  0  0  0  0  0  0  0  0  0
   -0.5388   -1.8584    0.4429 C   0  0  0  0  0  0  0  0  0  0  0  0
   -1.2441    0.4669    1.0582 C   0  0  0  0  0  0  0  0  0  0  0  0
   -0.3255    1.3505   -0.2539 S   0  0  0  0  0  0  0  0  0  0  0  0
   -1.7805    1.8631   -1.2532 C   0  0  0  0  0  0  0  0  0  0  0  0
   -1.9714    3.3897   -1.2879 C   0  0  2  0  0  0  0  0  0  0  0  0
   -0.8319    4.0465   -1.9451 N   0  0  0  0  0  0  0  0  0  0  0  0
    0.1718    4.8195   -1.2667 C   0  0  0  0  0  0  0  0  0  0  0  0
    1.1166    4.2268   -0.6850 O   0  0  0  0  0  0  0  0  0  0  0  0
    0.1299    6.3283   -1.2557 C   0  0  1  0  0  0  0  0  0  0  0  0
   -0.8811    6.8975   -2.2568 C   0  0  0  0  0  0  0  0  0  0  0  0
   -0.1911    6.7992    0.0943 N   0  0  0  0  0  0  0  0  0  0  0  0
    0.6425    7.7191    0.8074 C   0  0  0  0  0  0  0  0  0  0  0  0
    0.2205    8.8862    1.0359 O   0  0  0  0  0  0  0  0  0  0  0  0
    1.9783    7.2973    1.3767 C   0  0  1  0  0  0  0  0  0  0  0  0
    1.8274    6.0590    2.2618 C   0  0  0  0  0  0  0  0  0  0  0  0
    2.9614    7.0583    0.3192 N   0  0  0  0  0  0  0  0  0  0  0  0
    3.5985    8.1533   -0.3439 C   0  0  0  0  0  0  0  0  0  0  0  0
    2.9430    8.8554   -1.1610 O   0  0  0  0  0  0  0  0  0  0  0  0
    5.0261    8.5057   -0.0345 C   0  0  1  0  0  0  0  0  0  0  0  0
    5.1304    9.1570    1.3458 C   0  0  0  0  0  0  0  0  0  0  0  0
    5.8743    7.3153   -0.0906 N   0  0  0  0  0  0  0  0  0  0  0  0
    6.7786    7.1180   -1.1848 C   0  0  0  0  0  0  0  0  0  0  0  0
    6.3396    7.1792   -2.3664 O   0  0  0  0  0  0  0  0  0  0  0  0
    8.2624    6.9720   -0.9570 C   0  0  1  0  0  0  0  0  0  0  0  0
    8.8589    8.3354   -0.6054 C   0  0  0  0  0  0  0  0  0  0  0  0
    8.5419    6.0145    0.1157 N   0  0  0  0  0  0  0  0  0  0  0  0
    9.0038    4.6892   -0.1690 C   0  0  0  0  0  0  0  0  0  0  0  0
    8.1697    3.7475   -0.1881 O   0  0  0  0  0  0  0  0  0  0  0  0
   10.4702    4.3700   -0.3330 C   0  0  1  0  0  0  0  0  0  0  0  0
   11.3243    5.5893   -0.7130 C   0  0  0  0  0  0  0  0  0  0  0  0
   10.9853    3.7888    0.9102 N   0  0  0  0  0  0  0  0  0  0  0  0
   11.4054    2.4227    1.0865 C   0  0  0  0  0  0  0  0  0  0  0  0
   12.0741    2.1314    2.1143 O   0  0  0  0  0  0  0  0  0  0  0  0
   11.1046    1.3418    0.0637 C   0  0  1  0  0  0  0  0  0  0  0  0
   12.2118    1.2561   -0.9994 C   0  0  0  0  0  0  0  0  0  0  0  0
   10.8944    0.0368    0.7087 N   0  0  0  0  0  0  0  0  0  0  0  0
   11.9565   -0.8552    1.0559 C   0  0  0  0  0  0  0  0  0  0  0  0
   12.8958   -0.4610    1.8061 O   0  0  0  0  0  0  0  0  0  0  0  0
   11.9297   -2.2739    0.5548 C   0  0  1  0  0  0  0  0  0  0  0  0
   13.3419   -2.7881    0.2585 C   0  0  0  0  0  0  0  0  0  0  0  0
   11.2894   -3.1377    1.5470 N   0  0  0  0  0  0  0  0  0  0  0  0
   10.3342   -4.1561    1.2026 C   0  0  0  0  0  0  0  0  0  0  0  0
   10.4203   -5.2822    1.7686 O   0  0  0  0  0  0  0  0  0  0  0  0
    9.2490   -3.9150    0.1754 C   0  0  1  0  0  0  0  0  0  0  0  0
    9.4967   -4.7594   -1.0764 C   0  0  0  0  0  0  0  0  0  0  0  0
    7.9144   -4.1744    0.7320 N   0  0  0  0  0  0  0  0  0  0  0  0
    7.5174   -5.4227    1.3002 C   0  0  0  0  0  0  0  0  0  0  0  0
    7.6369   -5.5996    2.5431 O   0  0  0  0  0  0  0  0  0  0  0  0
    6.8147   -6.4546    0.4585 C   0  0  1  0  0  0  0  0  0  0  0  0
    7.2873   -7.8657    0.8216 C   0  0  0  0  0  0  0  0  0  0  0  0
    5.3702   -6.3383    0.6640 N   0  0  0  0  0  0  0  0  0  0  0  0
    4.5234   -5.7125   -0.3020 C   0  0  0  0  0  0  0  0  0  0  0  0
    4.0575   -4.5664   -0.0530 O   0  0  0  0  0  0  0  0  0  0  0  0
    4.1513   -6.3968   -1.5976 C   0  0  1  0  0  0  0  0  0  0  0  0
    4.5426   -7.8774   -1.6532 C   0  0  0  0  0  0  0  0  0  0  0  0
    2.7167   -6.2360   -1.8802 N   0  0  0  0  0  0  0  0  0  0  0  0
    1.6461   -6.9617   -1.2501 C   0  0  0  0  0  0  0  0  0  0  0  0
    0.6410   -7.2772   -1.9436 O   0  0  0  0  0  0  0  0  0  0  0  0
   -2.2884    3.9571    0.0894 C   0  0  0  0  0  0  0  0  0  0  0  0
   -1.4307    3.8609    1.0084 O   0  0  0  0  0  0  0  0  0  0  0  0
   -3.5477    4.5775    0.4016 N   0  0  0  0  0  0  0  0  0  0  0  0
   -4.4794    5.1371   -0.5853 C   0  0  2  0  0  0  0  0  0  0  0  0
   -5.0564    6.4583   -0.0590 C   0  0  0  0  0  0  0  0  0  0  0  0
   -5.5513    4.1260   -0.9170 C   0  0  0  0  0  0  0  0  0  0  0  0
   -5.2779    3.1610   -1.6862 O   0  0  0  0  0  0  0  0  0  0  0  0
   -6.8948    4.2584   -0.4430 N   0  0  0  0  0  0  0  0  0  0  0  0
   -7.2373    3.9989    0.9541 C   0  0  2  0  0  0  0  0  0  0  0  0
   -7.5882    2.5196    1.1733 C   0  0  0  0  0  0  0  0  0  0  0  0
   -8.3319    4.9367    1.4220 C   0  0  0  0  0  0  0  0  0  0  0  0
   -8.1081    5.6383    2.4504 O   0  0  0  0  0  0  0  0  0  0  0  0
   -9.5522    5.1629    0.6988 N   0  0  0  0  0  0  0  0  0  0  0  0
  -10.3135    4.1272   -0.0073 C   0  0  2  0  0  0  0  0  0  0  0  0
  -11.2561    4.7811   -1.0275 C   0  0  0  0  0  0  0  0  0  0  0  0
  -11.0970    3.3024    0.9872 C   0  0  0  0  0  0  0  0  0  0  0  0
  -11.8032    3.8911    1.8515 O   0  0  0  0  0  0  0  0  0  0  0  0
  -11.0313    1.8657    1.0120 N   0  0  0  0  0  0  0  0  0  0  0  0
  -11.0893    1.0469   -0.2038 C   0  0  2  0  0  0  0  0  0  0  0  0
  -12.5029    1.0551   -0.7875 C   0  0  0  0  0  0  0  0  0  0  0  0
  -10.6655   -0.3741    0.0859 C   0  0  0  0  0  0  0  0  0  0  0  0
   -9.6598   -0.8499   -0.4972 O   0  0  0  0  0  0  0  0  0  0  0  0
  -11.4882   -1.2194    0.8988 N   0  0  0  0  0  0  0  0  0  0  0  0
  -11.7150   -2.6327    0.5500 C   0  0  2  0  0  0  0  0  0  0  0  0
  -13.1476   -3.0270    0.9166 C   0  0  0  0  0  0  0  0  0  0  0  0
  -10.7313   -3.5271    1.2644 C   0  0  0  0  0  0  0  0  0  0  0  0
  -10.2038   -3.1246    2.3433 O   0  0  0  0  0  0  0  0  0  0  0  0
  -10.4227   -4.8570    0.8050 N   0  0  0  0  0  0  0  0  0  0  0  0
  -10.8255   -5.3987   -0.5028 C   0  0  2  0  0  0  0  0  0  0  0  0
  -10.8161   -6.9328   -0.4678 C   0  0  0  0  0  0  0  0  0  0  0  0
   -9.9322   -4.8837   -1.6033 C   0  0  0  0  0  0  0  0  0  0  0  0
  -10.2277   -5.1335   -2.8052 O   0  0  0  0  0  0  0  0  0  0  0  0
   -8.8487   -3.9876   -1.3279 N   0  0  0  0  0  0  0  0  0  0  0  0
   -7.4897   -4.4024   -0.9483 C   0  0  2  0  0  0  0  0  0  0  0  0
   -7.3757   -5.8983   -0.7645 C   0  0  0  0  0  0  0  0  0  0  0  0
   -7.3036   -6.7488   -1.9100 N   0  0  0  0  0  0  0  0  0  0  0  0
   -7.3668   -6.4123    0.3884 O   0  0  0  0  0  0  0  0  0  0  0  0
   -7.0517   -3.6116    0.3004 C   0  0  0  0  0  0  0  0  0  0  0  0
   -5.2922   -3.8872    0.7383 S   0  0  0  0  0  0  0  0  0  0  0  0
   -4.5752   -2.9065   -0.6295 C   0  0  0  0  0  0  0  0  0  0  0  0
    0.9146  -11.2427    1.0036 H   0  0  0  0  0  0  0  0  0  0  0  0
    2.6680  -11.6483    1.1067 H   0  0  0  0  0  0  0  0  0  0  0  0
    1.7634  -11.1502    2.5923 H   0  0  0  0  0  0  0  0  0  0  0  0
    0.6041   -9.1719   -0.0707 H   0  0  0  0  0  0  0  0  0  0  0  0
    2.5944   -7.0045    0.6922 H   0  0  0  0  0  0  0  0  0  0  0  0
    0.3981   -6.9472    1.9727 H   0  0  0  0  0  0  0  0  0  0  0  0
   -0.4541   -6.6105    0.4463 H   0  0  0  0  0  0  0  0  0  0  0  0
    1.1306   -3.5902   -0.9330 H   0  0  0  0  0  0  0  0  0  0  0  0
   -0.0580   -4.9083   -1.0230 H   0  0  0  0  0  0  0  0  0  0  0  0
   -2.3439   -4.4218   -0.8914 H   0  0  0  0  0  0  0  0  0  0  0  0
   -3.6870   -0.5580    0.4248 H   0  0  0  0  0  0  0  0  0  0  0  0
    0.4736   -1.5967    0.7290 H   0  0  0  0  0  0  0  0  0  0  0  0
   -2.1579    1.0282    1.3434 H   0  0  0  0  0  0  0  0  0  0  0  0
   -0.6048    0.4180    1.9606 H   0  0  0  0  0  0  0  0  0  0  0  0
   -1.6277    1.4889   -2.2902 H   0  0  0  0  0  0  0  0  0  0  0  0
   -2.7205    1.3904   -0.8888 H   0  0  0  0  0  0  0  0  0  0  0  0
   -2.8406    3.5522   -1.9508 H   0  0  0  0  0  0  0  0  0  0  0  0
   -0.7017    3.8971   -2.9697 H   0  0  0  0  0  0  0  0  0  0  0  0
    1.1297    6.6984   -1.5635 H   0  0  0  0  0  0  0  0  0  0  0  0
   -1.9141    6.5871   -1.9938 H   0  0  0  0  0  0  0  0  0  0  0  0
   -0.8331    8.0092   -2.2445 H   0  0  0  0  0  0  0  0  0  0  0  0
   -0.6500    6.5565   -3.2872 H   0  0  0  0  0  0  0  0  0  0  0  0
   -1.1710    6.6772    0.4386 H   0  0  0  0  0  0  0  0  0  0  0  0
    2.3582    8.1143    2.0310 H   0  0  0  0  0  0  0  0  0  0  0  0
    1.1674    6.2856    3.1280 H   0  0  0  0  0  0  0  0  0  0  0  0
    1.3847    5.2102    1.6943 H   0  0  0  0  0  0  0  0  0  0  0  0
    2.8251    5.7460    2.6455 H   0  0  0  0  0  0  0  0  0  0  0  0
    3.0178    6.1136   -0.1344 H   0  0  0  0  0  0  0  0  0  0  0  0
    5.3776    9.2485   -0.7872 H   0  0  0  0  0  0  0  0  0  0  0  0
    4.4916   10.0677    1.3899 H   0  0  0  0  0  0  0  0  0  0  0  0
    6.1850    9.4522    1.5453 H   0  0  0  0  0  0  0  0  0  0  0  0
    4.8058    8.4446    2.1368 H   0  0  0  0  0  0  0  0  0  0  0  0
    5.9404    6.6877    0.7431 H   0  0  0  0  0  0  0  0  0  0  0  0
    8.7241    6.6201   -1.9055 H   0  0  0  0  0  0  0  0  0  0  0  0
    8.5998    9.0826   -1.3881 H   0  0  0  0  0  0  0  0  0  0  0  0
    9.9662    8.2729   -0.5419 H   0  0  0  0  0  0  0  0  0  0  0  0
    8.4651    8.6919    0.3730 H   0  0  0  0  0  0  0  0  0  0  0  0
    8.2178    6.2203    1.0888 H   0  0  0  0  0  0  0  0  0  0  0  0
   10.5577    3.6560   -1.1725 H   0  0  0  0  0  0  0  0  0  0  0  0
   12.3810    5.2805   -0.8409 H   0  0  0  0  0  0  0  0  0  0  0  0
   10.9802    6.0220   -1.6743 H   0  0  0  0  0  0  0  0  0  0  0  0
   11.2838    6.3594    0.0835 H   0  0  0  0  0  0  0  0  0  0  0  0
   11.0924    4.4300    1.7320 H   0  0  0  0  0  0  0  0  0  0  0  0
   10.1564    1.6019   -0.4522 H   0  0  0  0  0  0  0  0  0  0  0  0
   13.1937    1.0407   -0.5330 H   0  0  0  0  0  0  0  0  0  0  0  0
   12.3025    2.2105   -1.5613 H   0  0  0  0  0  0  0  0  0  0  0  0
   11.9698    0.4522   -1.7243 H   0  0  0  0  0  0  0  0  0  0  0  0
    9.9108   -0.3165    0.7820 H   0  0  0  0  0  0  0  0  0  0  0  0
   11.3774   -2.2863   -0.4074 H   0  0  0  0  0  0  0  0  0  0  0  0
   13.9441   -2.8619    1.1891 H   0  0  0  0  0  0  0  0  0  0  0  0
   13.2792   -3.7969   -0.2082 H   0  0  0  0  0  0  0  0  0  0  0  0
   13.8607   -2.1091   -0.4514 H   0  0  0  0  0  0  0  0  0  0  0  0
   11.7397   -3.2154    2.4859 H   0  0  0  0  0  0  0  0  0  0  0  0
    9.2688   -2.8454   -0.1305 H   0  0  0  0  0  0  0  0  0  0  0  0
    9.5111   -5.8395   -0.8332 H   0  0  0  0  0  0  0  0  0  0  0  0
   10.4731   -4.4872   -1.5326 H   0  0  0  0  0  0  0  0  0  0  0  0
    8.6968   -4.5693   -1.8234 H   0  0  0  0  0  0  0  0  0  0  0  0
    7.2451   -3.3757    0.8143 H   0  0  0  0  0  0  0  0  0  0  0  0
    7.0581   -6.2696   -0.6091 H   0  0  0  0  0  0  0  0  0  0  0  0
    7.0375   -8.1097    1.8756 H   0  0  0  0  0  0  0  0  0  0  0  0
    6.8037   -8.6210    0.1673 H   0  0  0  0  0  0  0  0  0  0  0  0
    8.3850   -7.9491    0.6824 H   0  0  0  0  0  0  0  0  0  0  0  0
    5.0033   -6.4236    1.6424 H   0  0  0  0  0  0  0  0  0  0  0  0
    4.7193   -5.8799   -2.4044 H   0  0  0  0  0  0  0  0  0  0  0  0
    5.6428   -7.9756   -1.7624 H   0  0  0  0  0  0  0  0  0  0  0  0
    4.0690   -8.3596   -2.5359 H   0  0  0  0  0  0  0  0  0  0  0  0
    4.2167   -8.4163   -0.7386 H   0  0  0  0  0  0  0  0  0  0  0  0
    2.4780   -5.7216   -2.7582 H   0  0  0  0  0  0  0  0  0  0  0  0
   -3.7971    4.6586    1.4147 H   0  0  0  0  0  0  0  0  0  0  0  0
   -3.9434    5.3969   -1.5215 H   0  0  0  0  0  0  0  0  0  0  0  0
   -5.8078    6.8670   -0.7680 H   0  0  0  0  0  0  0  0  0  0  0  0
   -4.2374    7.2008    0.0457 H   0  0  0  0  0  0  0  0  0  0  0  0
   -5.5384    6.3318    0.9331 H   0  0  0  0  0  0  0  0  0  0  0  0
   -7.6423    4.1847   -1.1687 H   0  0  0  0  0  0  0  0  0  0  0  0
   -6.3447    4.1970    1.5873 H   0  0  0  0  0  0  0  0  0  0  0  0
   -8.2142    2.1120    0.3566 H   0  0  0  0  0  0  0  0  0  0  0  0
   -6.6501    1.9212    1.1944 H   0  0  0  0  0  0  0  0  0  0  0  0
   -8.1051    2.3704    2.1464 H   0  0  0  0  0  0  0  0  0  0  0  0
  -10.0645    6.0440    0.9361 H   0  0  0  0  0  0  0  0  0  0  0  0
   -9.6297    3.4914   -0.5873 H   0  0  0  0  0  0  0  0  0  0  0  0
  -11.7135    4.0114   -1.6829 H   0  0  0  0  0  0  0  0  0  0  0  0
  -12.0604    5.3518   -0.5186 H   0  0  0  0  0  0  0  0  0  0  0  0
  -10.6817    5.4743   -1.6769 H   0  0  0  0  0  0  0  0  0  0  0  0
  -11.2593    1.4032    1.9184 H   0  0  0  0  0  0  0  0  0  0  0  0
  -10.3950    1.4574   -0.9678 H   0  0  0  0  0  0  0  0  0  0  0  0
  -12.5432    0.4209   -1.6987 H   0  0  0  0  0  0  0  0  0  0  0  0
  -12.8107    2.0824   -1.0661 H   0  0  0  0  0  0  0  0  0  0  0  0
  -13.2367    0.6658   -0.0492 H   0  0  0  0  0  0  0  0  0  0  0  0
  -12.1363   -0.7613    1.5790 H   0  0  0  0  0  0  0  0  0  0  0  0
  -11.5988   -2.7522   -0.5490 H   0  0  0  0  0  0  0  0  0  0  0  0
  -13.3219   -2.8900    2.0062 H   0  0  0  0  0  0  0  0  0  0  0  0
  -13.3543   -4.0840    0.6514 H   0  0  0  0  0  0  0  0  0  0  0  0
  -13.8664   -2.3836    0.3592 H   0  0  0  0  0  0  0  0  0  0  0  0
   -9.8474   -5.4537    1.4402 H   0  0  0  0  0  0  0  0  0  0  0  0
  -11.8698   -5.1007   -0.7324 H   0  0  0  0  0  0  0  0  0  0  0  0
   -9.8114   -7.3322   -0.2127 H   0  0  0  0  0  0  0  0  0  0  0  0
  -11.5383   -7.2905    0.2987 H   0  0  0  0  0  0  0  0  0  0  0  0
  -11.1311   -7.3469   -1.4500 H   0  0  0  0  0  0  0  0  0  0  0  0
   -8.9846   -2.9980   -1.6207 H   0  0  0  0  0  0  0  0  0  0  0  0
   -6.8157   -4.1206   -1.7841 H   0  0  0  0  0  0  0  0  0  0  0  0
   -7.2902   -7.7888   -1.7998 H   0  0  0  0  0  0  0  0  0  0  0  0
   -7.3179   -6.3457   -2.8759 H   0  0  0  0  0  0  0  0  0  0  0  0
   -7.2226   -2.5254    0.1423 H   0  0  0  0  0  0  0  0  0  0  0  0
   -7.6761   -3.9043    1.1690 H   0  0  0  0  0  0  0  0  0  0  0  0
   -4.5814   -3.5053   -1.5645 H   0  0  0  0  0  0  0  0  0  0  0  0
   -5.1812   -1.9937   -0.8149 H   0  0  0  0  0  0  0  0  0  0  0  0
  1  2  1  0
  2  3  2  0
  2  4  1  0
  4  5  1  0
  5  6  1  0
  6  7  1  0
  7  8  1  0
  8  9  1  0
  9 10  2  0
 10 11  1  0
 11 12  2  0
 12 13  1  0
 13 14  2  0
 13 15  1  0
 15 16  1  0
 16 17  1  0
 17 18  1  0
 18 19  1  0
 19 20  1  0
 20 21  2  0
 20 22  1  0
 22 23  1  0
 22 24  1  0
 24 25  1  0
 25 26  2  0
 25 27  1  0
 27 28  1  0
 27 29  1  0
 29 30  1  0
 30 31  2  0
 30 32  1  0
 32 33  1  0
 32 34  1  0
 34 35  1  0
 35 36  2  0
 35 37  1  0
 37 38  1  0
 37 39  1  0
 39 40  1  0
 40 41  2  0
 40 42  1  0
 42 43  1  0
 42 44  1  0
 44 45  1  0
 45 46  2  0
 45 47  1  0
 47 48  1  0
 47 49  1  0
 49 50  1  0
 50 51  2  0
 50 52  1  0
 52 53  1  0
 52 54  1  0
 54 55  1  0
 55 56  2  0
 55 57  1  0
 57 58  1  0
 57 59  1  0
 59 60  1  0
 60 61  2  0
 60 62  1  0
 62 63  1  0
 62 64  1  0
 64 65  1  0
 65 66  2  0
 65 67  1  0
 67 68  1  0
 67 69  1  0
 69 70  1  0
 70 71  2  0
 18 72  1  0
 72 73  2  0
 72 74  1  0
 74 75  1  0
 75 76  1  0
 75 77  1  0
 77 78  2  0
 77 79  1  0
 79 80  1  0
 80 81  1  0
 80 82  1  0
 82 83  2  0
 82 84  1  0
 84 85  1  0
 85 86  1  0
 85 87  1  0
 87 88  2  0
 87 89  1  0
 89 90  1  0
 90 91  1  0
 90 92  1  0
 92 93  2  0
 92 94  1  0
 94 95  1  0
 95 96  1  0
 95 97  1  0
 97 98  2  0
 97 99  1  0
 99100  1  0
100101  1  0
100102  1  0
102103  2  0
102104  1  0
104105  1  0
105106  1  0
106107  1  0
106108  2  0
105109  1  0
109110  1  0
110111  1  0
 70  5  1  0
 14  9  1  0
111 11  1  0
  1112  1  0
  1113  1  0
  1114  1  0
  4115  1  0
  5116  1  1
  6117  1  0
  6118  1  0
  8119  1  0
  8120  1  0
 10121  1  0
 12122  1  0
 14123  1  0
 15124  1  0
 15125  1  0
 17126  1  0
 17127  1  0
 18128  1  6
 19129  1  0
 22130  1  6
 23131  1  0
 23132  1  0
 23133  1  0
 24134  1  0
 27135  1  1
 28136  1  0
 28137  1  0
 28138  1  0
 29139  1  0
 32140  1  6
 33141  1  0
 33142  1  0
 33143  1  0
 34144  1  0
 37145  1  6
 38146  1  0
 38147  1  0
 38148  1  0
 39149  1  0
 42150  1  6
 43151  1  0
 43152  1  0
 43153  1  0
 44154  1  0
 47155  1  6
 48156  1  0
 48157  1  0
 48158  1  0
 49159  1  0
 52160  1  6
 53161  1  0
 53162  1  0
 53163  1  0
 54164  1  0
 57165  1  6
 58166  1  0
 58167  1  0
 58168  1  0
 59169  1  0
 62170  1  6
 63171  1  0
 63172  1  0
 63173  1  0
 64174  1  0
 67175  1  6
 68176  1  0
 68177  1  0
 68178  1  0
 69179  1  0
 74180  1  0
 75181  1  6
 76182  1  0
 76183  1  0
 76184  1  0
 79185  1  0
 80186  1  1
 81187  1  0
 81188  1  0
 81189  1  0
 84190  1  0
 85191  1  6
 86192  1  0
 86193  1  0
 86194  1  0
 89195  1  0
 90196  1  6
 91197  1  0
 91198  1  0
 91199  1  0
 94200  1  0
 95201  1  6
 96202  1  0
 96203  1  0
 96204  1  0
 99205  1  0
100206  1  6
101207  1  0
101208  1  0
101209  1  0
104210  1  0
105211  1  6
107212  1  0
107213  1  0
109214  1  0
109215  1  0
111216  1  0
111217  1  0
M  END
