
     RDKit          3D

217219  0  0  0  0  0  0  0  0999 V2000
    0.4566    9.5092    0.2497 C   0  0  0  0  0  0  0  0  0  0  0  0
    0.7908    8.6889   -0.9604 C   0  0  0  0  0  0  0  0  0  0  0  0
    0.2588    8.9569   -2.0694 O   0  0  0  0  0  0  0  0  0  0  0  0
    1.7140    7.6035   -0.8479 N   0  0  0  0  0  0  0  0  0  0  0  0
    1.5084    6.4726    0.1221 C   0  0  1  0  0  0  0  0  0  0  0  0
    0.2448    5.7138   -0.3740 C   0  0  0  0  0  0  0  0  0  0  0  0
   -0.0380    3.9795    0.4967 S   0  0  0  0  0  0  0  0  0  0  0  0
   -0.9292    4.5851    2.0075 C   0  0  0  0  0  0  0  0  0  0  0  0
   -1.8141    3.3820    2.3893 C   0  0  0  0  0  0  0  0  0  0  0  0
   -3.1744    3.5336    2.3082 C   0  0  0  0  0  0  0  0  0  0  0  0
   -4.0623    2.4474    2.3576 C   0  0  0  0  0  0  0  0  0  0  0  0
   -3.4879    1.1262    2.4840 C   0  0  0  0  0  0  0  0  0  0  0  0
   -2.1803    0.8982    2.0462 C   0  0  0  0  0  0  0  0  0  0  0  0
   -1.3343    1.9808    2.4601 C   0  0  0  0  0  0  0  0  0  0  0  0
   -2.1971    0.7166    0.5387 C   0  0  0  0  0  0  0  0  0  0  0  0
   -1.2851   -0.7289    0.3134 S   0  0  0  0  0  0  0  0  0  0  0  0
   -2.6301   -2.0360    0.5349 C   0  0  0  0  0  0  0  0  0  0  0  0
   -2.3827   -3.3001   -0.4333 C   0  0  2  0  0  0  0  0  0  0  0  0
   -1.0159   -3.3168   -0.9917 N   0  0  0  0  0  0  0  0  0  0  0  0
   -0.1112   -4.3785   -1.2242 C   0  0  0  0  0  0  0  0  0  0  0  0
    0.7324   -4.2719   -2.1862 O   0  0  0  0  0  0  0  0  0  0  0  0
   -0.1801   -5.6269   -0.4786 C   0  0  1  0  0  0  0  0  0  0  0  0
   -0.2414   -6.8753   -1.4565 C   0  0  0  0  0  0  0  0  0  0  0  0
    1.0801   -5.6332    0.3170 N   0  0  0  0  0  0  0  0  0  0  0  0
    2.3429   -6.2225   -0.0035 C   0  0  0  0  0  0  0  0  0  0  0  0
    3.1543   -5.6450   -0.8001 O   0  0  0  0  0  0  0  0  0  0  0  0
    2.8158   -7.4060    0.8195 C   0  0  1  0  0  0  0  0  0  0  0  0
    1.8080   -7.6333    1.9626 C   0  0  0  0  0  0  0  0  0  0  0  0
    3.0249   -8.6618    0.0765 N   0  0  0  0  0  0  0  0  0  0  0  0
    4.2627   -9.3144   -0.1355 C   0  0  0  0  0  0  0  0  0  0  0  0
    4.3222  -10.5984   -0.0972 O   0  0  0  0  0  0  0  0  0  0  0  0
    5.5614   -8.6552   -0.4826 C   0  0  1  0  0  0  0  0  0  0  0  0
    5.3733   -7.9463   -1.8603 C   0  0  0  0  0  0  0  0  0  0  0  0
    6.0045   -7.6927    0.5449 N   0  0  0  0  0  0  0  0  0  0  0  0
    6.8362   -6.5637    0.2998 C   0  0  0  0  0  0  0  0  0  0  0  0
    6.6202   -5.4424    0.8671 O   0  0  0  0  0  0  0  0  0  0  0  0
    8.1163   -6.6947   -0.4903 C   0  0  1  0  0  0  0  0  0  0  0  0
    8.2431   -5.7292   -1.7393 C   0  0  0  0  0  0  0  0  0  0  0  0
    9.2188   -6.4313    0.4672 N   0  0  0  0  0  0  0  0  0  0  0  0
   10.3225   -5.5297    0.3940 C   0  0  0  0  0  0  0  0  0  0  0  0
   11.4777   -6.0051    0.5512 O   0  0  0  0  0  0  0  0  0  0  0  0
   10.1214   -4.0631    0.3347 C   0  0  1  0  0  0  0  0  0  0  0  0
    9.8746   -3.6196    1.7621 C   0  0  0  0  0  0  0  0  0  0  0  0
   11.3451   -3.4278   -0.2559 N   0  0  0  0  0  0  0  0  0  0  0  0
   12.2494   -2.4737    0.3203 C   0  0  0  0  0  0  0  0  0  0  0  0
   13.4552   -2.7768    0.5473 O   0  0  0  0  0  0  0  0  0  0  0  0
   11.7702   -1.0954    0.7458 C   0  0  1  0  0  0  0  0  0  0  0  0
   12.1091   -0.7491    2.1703 C   0  0  0  0  0  0  0  0  0  0  0  0
   12.4732   -0.2365   -0.2003 N   0  0  0  0  0  0  0  0  0  0  0  0
   12.0607    0.9915   -0.7381 C   0  0  0  0  0  0  0  0  0  0  0  0
   12.1620    1.2117   -1.9556 O   0  0  0  0  0  0  0  0  0  0  0  0
   11.5594    2.1097    0.1570 C   0  0  1  0  0  0  0  0  0  0  0  0
   12.6999    2.4991    1.1134 C   0  0  0  0  0  0  0  0  0  0  0  0
   11.2122    3.2880   -0.6662 N   0  0  0  0  0  0  0  0  0  0  0  0
    9.9476    3.5775   -1.2202 C   0  0  0  0  0  0  0  0  0  0  0  0
    9.9230    3.8381   -2.4520 O   0  0  0  0  0  0  0  0  0  0  0  0
    8.7245    3.5925   -0.3876 C   0  0  1  0  0  0  0  0  0  0  0  0
    9.0039    4.3383    0.9530 C   0  0  0  0  0  0  0  0  0  0  0  0
    7.6381    4.2658   -1.1464 N   0  0  0  0  0  0  0  0  0  0  0  0
    7.6691    5.5691   -1.7688 C   0  0  0  0  0  0  0  0  0  0  0  0
    7.3427    5.5936   -2.9922 O   0  0  0  0  0  0  0  0  0  0  0  0
    8.0234    6.8203   -1.0414 C   0  0  1  0  0  0  0  0  0  0  0  0
    9.3932    7.3566   -1.4065 C   0  0  0  0  0  0  0  0  0  0  0  0
    6.9890    7.8048   -1.3940 N   0  0  0  0  0  0  0  0  0  0  0  0
    5.5923    7.5750   -1.3604 C   0  0  0  0  0  0  0  0  0  0  0  0
    4.8644    8.0901   -2.2412 O   0  0  0  0  0  0  0  0  0  0  0  0
    5.0084    6.7602   -0.2054 C   0  0  1  0  0  0  0  0  0  0  0  0
    4.5126    7.7869    0.9203 C   0  0  0  0  0  0  0  0  0  0  0  0
    3.9059    5.9075   -0.7137 N   0  0  0  0  0  0  0  0  0  0  0  0
    2.7354    5.5491   -0.0111 C   0  0  0  0  0  0  0  0  0  0  0  0
    2.7504    4.3983    0.4939 O   0  0  0  0  0  0  0  0  0  0  0  0
   -3.1850   -3.3380   -1.7318 C   0  0  0  0  0  0  0  0  0  0  0  0
   -2.9608   -2.4940   -2.6613 O   0  0  0  0  0  0  0  0  0  0  0  0
   -4.2002   -4.3356   -1.9975 N   0  0  0  0  0  0  0  0  0  0  0  0
   -5.4728   -4.5481   -1.2842 C   0  0  2  0  0  0  0  0  0  0  0  0
   -6.0133   -3.1969   -0.8036 C   0  0  0  0  0  0  0  0  0  0  0  0
   -5.2264   -5.5040   -0.2146 C   0  0  0  0  0  0  0  0  0  0  0  0
   -4.4337   -6.4774   -0.3028 O   0  0  0  0  0  0  0  0  0  0  0  0
   -5.9503   -5.4108    1.0376 N   0  0  0  0  0  0  0  0  0  0  0  0
   -7.4393   -5.3481    1.2262 C   0  0  2  0  0  0  0  0  0  0  0  0
   -7.8545   -6.2245    2.3982 C   0  0  0  0  0  0  0  0  0  0  0  0
   -8.1142   -5.8743   -0.0272 C   0  0  0  0  0  0  0  0  0  0  0  0
   -7.7510   -6.9715   -0.5603 O   0  0  0  0  0  0  0  0  0  0  0  0
   -9.2957   -5.2663   -0.5319 N   0  0  0  0  0  0  0  0  0  0  0  0
  -10.0454   -4.1121    0.0243 C   0  0  2  0  0  0  0  0  0  0  0  0
  -10.6756   -4.4994    1.3938 C   0  0  0  0  0  0  0  0  0  0  0  0
  -11.0969   -3.7766   -0.9695 C   0  0  0  0  0  0  0  0  0  0  0  0
  -11.8506   -4.6746   -1.4429 O   0  0  0  0  0  0  0  0  0  0  0  0
  -11.2537   -2.4174   -1.4385 N   0  0  0  0  0  0  0  0  0  0  0  0
  -11.5645   -1.2156   -0.6824 C   0  0  2  0  0  0  0  0  0  0  0  0
  -13.0950   -1.1022   -0.5643 C   0  0  0  0  0  0  0  0  0  0  0  0
  -10.9257   -0.0278   -1.4169 C   0  0  0  0  0  0  0  0  0  0  0  0
  -10.6247   -0.2617   -2.6401 O   0  0  0  0  0  0  0  0  0  0  0  0
  -10.8604    1.3308   -0.9259 N   0  0  0  0  0  0  0  0  0  0  0  0
  -11.6435    1.8656    0.1463 C   0  0  2  0  0  0  0  0  0  0  0  0
  -12.9244    2.5845   -0.4431 C   0  0  0  0  0  0  0  0  0  0  0  0
  -10.7981    2.8641    0.9195 C   0  0  0  0  0  0  0  0  0  0  0  0
   -9.7480    2.4784    1.4909 O   0  0  0  0  0  0  0  0  0  0  0  0
  -11.2245    4.2405    1.1816 N   0  0  0  0  0  0  0  0  0  0  0  0
  -10.8536    5.5102    0.4889 C   0  0  2  0  0  0  0  0  0  0  0  0
  -10.7551    5.3543   -1.0641 C   0  0  0  0  0  0  0  0  0  0  0  0
   -9.5773    5.8961    1.1352 C   0  0  0  0  0  0  0  0  0  0  0  0
   -9.6057    6.7270    2.0881 O   0  0  0  0  0  0  0  0  0  0  0  0
   -8.3767    5.2693    0.8021 N   0  0  0  0  0  0  0  0  0  0  0  0
   -7.5229    5.4450   -0.4054 C   0  0  1  0  0  0  0  0  0  0  0  0
   -7.1432    6.8566   -0.6268 C   0  0  0  0  0  0  0  0  0  0  0  0
   -6.3215    7.2072   -1.7439 N   0  0  0  0  0  0  0  0  0  0  0  0
   -7.3463    7.7232    0.2893 O   0  0  0  0  0  0  0  0  0  0  0  0
   -6.1923    4.6184   -0.1712 C   0  0  0  0  0  0  0  0  0  0  0  0
   -5.8591    4.4682    1.6572 S   0  0  0  0  0  0  0  0  0  0  0  0
   -5.5368    2.6301    1.8308 C   0  0  0  0  0  0  0  0  0  0  0  0
   -0.4181    9.1329    0.8274 H   0  0  0  0  0  0  0  0  0  0  0  0
    1.3776    9.5654    0.8751 H   0  0  0  0  0  0  0  0  0  0  0  0
    0.2457   10.5239   -0.1156 H   0  0  0  0  0  0  0  0  0  0  0  0
    2.2328    7.3919   -1.7179 H   0  0  0  0  0  0  0  0  0  0  0  0
    1.3314    6.8589    1.1063 H   0  0  0  0  0  0  0  0  0  0  0  0
    0.3669    5.5028   -1.4351 H   0  0  0  0  0  0  0  0  0  0  0  0
   -0.6018    6.3556   -0.2542 H   0  0  0  0  0  0  0  0  0  0  0  0
   -1.5646    5.4022    1.6885 H   0  0  0  0  0  0  0  0  0  0  0  0
   -0.3523    4.8632    2.8844 H   0  0  0  0  0  0  0  0  0  0  0  0
   -3.4716    4.4740    2.0738 H   0  0  0  0  0  0  0  0  0  0  0  0
   -4.0351    0.3166    3.0886 H   0  0  0  0  0  0  0  0  0  0  0  0
   -0.3759    1.7206    3.0120 H   0  0  0  0  0  0  0  0  0  0  0  0
   -1.5992    1.5154   -0.0021 H   0  0  0  0  0  0  0  0  0  0  0  0
   -3.2151    0.7464    0.0321 H   0  0  0  0  0  0  0  0  0  0  0  0
   -3.6263   -1.6327    0.3092 H   0  0  0  0  0  0  0  0  0  0  0  0
   -2.5621   -2.4435    1.5146 H   0  0  0  0  0  0  0  0  0  0  0  0
   -2.5765   -4.2282    0.1348 H   0  0  0  0  0  0  0  0  0  0  0  0
   -0.7375   -2.5289   -1.5791 H   0  0  0  0  0  0  0  0  0  0  0  0
   -0.9864   -5.7081    0.2511 H   0  0  0  0  0  0  0  0  0  0  0  0
    0.7761   -7.3329   -1.5912 H   0  0  0  0  0  0  0  0  0  0  0  0
   -1.0412   -7.5923   -1.1511 H   0  0  0  0  0  0  0  0  0  0  0  0
   -0.5236   -6.4937   -2.4608 H   0  0  0  0  0  0  0  0  0  0  0  0
    1.1385   -4.7564    0.9135 H   0  0  0  0  0  0  0  0  0  0  0  0
    3.7616   -7.0208    1.2838 H   0  0  0  0  0  0  0  0  0  0  0  0
    2.0238   -8.6187    2.4383 H   0  0  0  0  0  0  0  0  0  0  0  0
    1.9295   -6.7363    2.6278 H   0  0  0  0  0  0  0  0  0  0  0  0
    0.7901   -7.5620    1.5471 H   0  0  0  0  0  0  0  0  0  0  0  0
    2.2100   -9.3378    0.2022 H   0  0  0  0  0  0  0  0  0  0  0  0
    6.3647   -9.4097   -0.5802 H   0  0  0  0  0  0  0  0  0  0  0  0
    6.3071   -8.1786   -2.4711 H   0  0  0  0  0  0  0  0  0  0  0  0
    5.2972   -6.8668   -1.7637 H   0  0  0  0  0  0  0  0  0  0  0  0
    4.4957   -8.3524   -2.3994 H   0  0  0  0  0  0  0  0  0  0  0  0
    5.9456   -7.9810    1.5357 H   0  0  0  0  0  0  0  0  0  0  0  0
    8.2869   -7.6964   -0.8765 H   0  0  0  0  0  0  0  0  0  0  0  0
    7.6327   -4.8040   -1.5748 H   0  0  0  0  0  0  0  0  0  0  0  0
    7.8587   -6.2540   -2.6015 H   0  0  0  0  0  0  0  0  0  0  0  0
    9.2904   -5.4987   -1.9452 H   0  0  0  0  0  0  0  0  0  0  0  0
    9.3300   -7.1857    1.1901 H   0  0  0  0  0  0  0  0  0  0  0  0
    9.2719   -3.7161   -0.2960 H   0  0  0  0  0  0  0  0  0  0  0  0
    9.2126   -4.3840    2.2331 H   0  0  0  0  0  0  0  0  0  0  0  0
    9.3863   -2.6248    1.7914 H   0  0  0  0  0  0  0  0  0  0  0  0
   10.8576   -3.6196    2.3409 H   0  0  0  0  0  0  0  0  0  0  0  0
   11.8169   -3.9524   -1.0209 H   0  0  0  0  0  0  0  0  0  0  0  0
   10.6412   -0.9712    0.5357 H   0  0  0  0  0  0  0  0  0  0  0  0
   13.1745   -0.4521    2.2056 H   0  0  0  0  0  0  0  0  0  0  0  0
   11.9557   -1.5888    2.8263 H   0  0  0  0  0  0  0  0  0  0  0  0
   11.4699    0.0950    2.5108 H   0  0  0  0  0  0  0  0  0  0  0  0
   13.3752   -0.5634   -0.6052 H   0  0  0  0  0  0  0  0  0  0  0  0
   10.6469    1.7853    0.7630 H   0  0  0  0  0  0  0  0  0  0  0  0
   13.5387    1.8136    1.0475 H   0  0  0  0  0  0  0  0  0  0  0  0
   12.3596    2.5584    2.1779 H   0  0  0  0  0  0  0  0  0  0  0  0
   13.1095    3.5544    0.8600 H   0  0  0  0  0  0  0  0  0  0  0  0
   12.0385    3.7332   -1.1411 H   0  0  0  0  0  0  0  0  0  0  0  0
    8.4185    2.5938   -0.1104 H   0  0  0  0  0  0  0  0  0  0  0  0
    8.0456    4.6710    1.3846 H   0  0  0  0  0  0  0  0  0  0  0  0
    9.7176    5.2371    0.7953 H   0  0  0  0  0  0  0  0  0  0  0  0
    9.4921    3.6546    1.6399 H   0  0  0  0  0  0  0  0  0  0  0  0
    6.8770    3.6414   -1.4587 H   0  0  0  0  0  0  0  0  0  0  0  0
    7.9701    6.6508    0.0620 H   0  0  0  0  0  0  0  0  0  0  0  0
    9.3332    7.8207   -2.4495 H   0  0  0  0  0  0  0  0  0  0  0  0
    9.6674    8.1329   -0.7427 H   0  0  0  0  0  0  0  0  0  0  0  0
   10.1559    6.5726   -1.4392 H   0  0  0  0  0  0  0  0  0  0  0  0
    7.2699    8.7197   -1.8292 H   0  0  0  0  0  0  0  0  0  0  0  0
    5.7274    6.0952    0.2188 H   0  0  0  0  0  0  0  0  0  0  0  0
    3.7315    7.2780    1.5383 H   0  0  0  0  0  0  0  0  0  0  0  0
    4.1538    8.7376    0.4851 H   0  0  0  0  0  0  0  0  0  0  0  0
    5.3893    7.9422    1.5598 H   0  0  0  0  0  0  0  0  0  0  0  0
    4.0934    5.3652   -1.5557 H   0  0  0  0  0  0  0  0  0  0  0  0
   -4.0978   -4.7562   -2.9355 H   0  0  0  0  0  0  0  0  0  0  0  0
   -6.1705   -4.9927   -2.0003 H   0  0  0  0  0  0  0  0  0  0  0  0
   -5.7129   -2.4302   -1.4790 H   0  0  0  0  0  0  0  0  0  0  0  0
   -5.6882   -3.0163    0.2334 H   0  0  0  0  0  0  0  0  0  0  0  0
   -7.1258   -3.2164   -0.8963 H   0  0  0  0  0  0  0  0  0  0  0  0
   -5.4154   -5.6784    1.9016 H   0  0  0  0  0  0  0  0  0  0  0  0
   -7.7155   -4.2692    1.3747 H   0  0  0  0  0  0  0  0  0  0  0  0
   -7.1349   -7.0444    2.4521 H   0  0  0  0  0  0  0  0  0  0  0  0
   -8.8497   -6.6672    2.1704 H   0  0  0  0  0  0  0  0  0  0  0  0
   -7.8353   -5.6034    3.3059 H   0  0  0  0  0  0  0  0  0  0  0  0
   -9.6159   -5.7256   -1.4186 H   0  0  0  0  0  0  0  0  0  0  0  0
   -9.3058   -3.2510    0.1689 H   0  0  0  0  0  0  0  0  0  0  0  0
  -10.0285   -4.1887    2.2022 H   0  0  0  0  0  0  0  0  0  0  0  0
  -11.6263   -3.9656    1.5130 H   0  0  0  0  0  0  0  0  0  0  0  0
  -10.8809   -5.6079    1.4072 H   0  0  0  0  0  0  0  0  0  0  0  0
  -11.6402   -2.4060   -2.4176 H   0  0  0  0  0  0  0  0  0  0  0  0
  -11.0980   -1.2731    0.3838 H   0  0  0  0  0  0  0  0  0  0  0  0
  -13.5382   -2.1230   -0.6169 H   0  0  0  0  0  0  0  0  0  0  0  0
  -13.3945   -0.6435    0.4026 H   0  0  0  0  0  0  0  0  0  0  0  0
  -13.4648   -0.5376   -1.4248 H   0  0  0  0  0  0  0  0  0  0  0  0
  -10.3934    1.9965   -1.6131 H   0  0  0  0  0  0  0  0  0  0  0  0
  -11.9578    1.1562    0.8868 H   0  0  0  0  0  0  0  0  0  0  0  0
  -13.6426    1.7771   -0.6225 H   0  0  0  0  0  0  0  0  0  0  0  0
  -12.6296    3.0150   -1.4153 H   0  0  0  0  0  0  0  0  0  0  0  0
  -13.3299    3.3000    0.2819 H   0  0  0  0  0  0  0  0  0  0  0  0
  -11.4290    4.3711    2.1730 H   0  0  0  0  0  0  0  0  0  0  0  0
  -11.6545    6.1931    0.6746 H   0  0  0  0  0  0  0  0  0  0  0  0
  -11.8075    5.3959   -1.4683 H   0  0  0  0  0  0  0  0  0  0  0  0
  -10.2025    6.1745   -1.4295 H   0  0  0  0  0  0  0  0  0  0  0  0
  -10.2214    4.3485   -1.3246 H   0  0  0  0  0  0  0  0  0  0  0  0
   -8.2884    4.5608    1.5668 H   0  0  0  0  0  0  0  0  0  0  0  0
   -8.0306    5.0518   -1.2700 H   0  0  0  0  0  0  0  0  0  0  0  0
   -5.2621    7.3637   -1.5811 H   0  0  0  0  0  0  0  0  0  0  0  0
   -6.6307    6.8810   -2.6686 H   0  0  0  0  0  0  0  0  0  0  0  0
   -6.2649    3.7273   -0.7557 H   0  0  0  0  0  0  0  0  0  0  0  0
   -5.2738    5.1228   -0.5454 H   0  0  0  0  0  0  0  0  0  0  0  0
   -6.2265    2.1831    2.5906 H   0  0  0  0  0  0  0  0  0  0  0  0
   -5.6429    2.1186    0.8277 H   0  0  0  0  0  0  0  0  0  0  0  0
  1  2  1  0
  2  3  2  0
  2  4  1  0
  4  5  1  0
  5  6  1  0
  6  7  1  0
  7  8  1  0
  8  9  1  0
  9 10  2  0
 10 11  1  0
 11 12  2  0
 12 13  1  0
 13 14  2  0
 13 15  1  0
 15 16  1  0
 16 17  1  0
 17 18  1  0
 18 19  1  0
 19 20  1  0
 20 21  2  0
 20 22  1  0
 22 23  1  0
 22 24  1  0
 24 25  1  0
 25 26  2  0
 25 27  1  0
 27 28  1  0
 27 29  1  0
 29 30  1  0
 30 31  2  0
 30 32  1  0
 32 33  1  0
 32 34  1  0
 34 35  1  0
 35 36  2  0
 35 37  1  0
 37 38  1  0
 37 39  1  0
 39 40  1  0
 40 41  2  0
 40 42  1  0
 42 43  1  0
 42 44  1  0
 44 45  1  0
 45 46  2  0
 45 47  1  0
 47 48  1  0
 47 49  1  0
 49 50  1  0
 50 51  2  0
 50 52  1  0
 52 53  1  0
 52 54  1  0
 54 55  1  0
 55 56  2  0
 55 57  1  0
 57 58  1  0
 57 59  1  0
 59 60  1  0
 60 61  2  0
 60 62  1  0
 62 63  1  0
 62 64  1  0
 64 65  1  0
 65 66  2  0
 65 67  1  0
 67 68  1  0
 67 69  1  0
 69 70  1  0
 70 71  2  0
 18 72  1  0
 72 73  2  0
 72 74  1  0
 74 75  1  0
 75 76  1  0
 75 77  1  0
 77 78  2  0
 77 79  1  0
 79 80  1  0
 80 81  1  0
 80 82  1  0
 82 83  2  0
 82 84  1  0
 84 85  1  0
 85 86  1  0
 85 87  1  0
 87 88  2  0
 87 89  1  0
 89 90  1  0
 90 91  1  0
 90 92  1  0
 92 93  2  0
 92 94  1  0
 94 95  1  0
 95 96  1  0
 95 97  1  0
 97 98  2  0
 97 99  1  0
 99100  1  0
100101  1  0
100102  1  0
102103  2  0
102104  1  0
104105  1  0
105106  1  0
106107  1  0
106108  2  0
105109  1  0
109110  1  0
110111  1  0
 70  5  1  0
 14  9  1  0
111 11  1  0
  1112  1  0
  1113  1  0
  1114  1  0
  4115  1  0
  5116  1  1
  6117  1  0
  6118  1  0
  8119  1  0
  8120  1  0
 10121  1  0
 12122  1  0
 14123  1  0
 15124  1  0
 15125  1  0
 17126  1  0
 17127  1  0
 18128  1  1
 19129  1  0
 22130  1  1
 23131  1  0
 23132  1  0
 23133  1  0
 24134  1  0
 27135  1  1
 28136  1  0
 28137  1  0
 28138  1  0
 29139  1  0
 32140  1  6
 33141  1  0
 33142  1  0
 33143  1  0
 34144  1  0
 37145  1  6
 38146  1  0
 38147  1  0
 38148  1  0
 39149  1  0
 42150  1  6
 43151  1  0
 43152  1  0
 43153  1  0
 44154  1  0
 47155  1  1
 48156  1  0
 48157  1  0
 48158  1  0
 49159  1  0
 52160  1  1
 53161  1  0
 53162  1  0
 53163  1  0
 54164  1  0
 57165  1  1
 58166  1  0
 58167  1  0
 58168  1  0
 59169  1  0
 62170  1  1
 63171  1  0
 63172  1  0
 63173  1  0
 64174  1  0
 67175  1  1
 68176  1  0
 68177  1  0
 68178  1  0
 69179  1  0
 74180  1  0
 75181  1  6
 76182  1  0
 76183  1  0
 76184  1  0
 79185  1  0
 80186  1  1
 81187  1  0
 81188  1  0
 81189  1  0
 84190  1  0
 85191  1  1
 86192  1  0
 86193  1  0
 86194  1  0
 89195  1  0
 90196  1  1
 91197  1  0
 91198  1  0
 91199  1  0
 94200  1  0
 95201  1  1
 96202  1  0
 96203  1  0
 96204  1  0
 99205  1  0
100206  1  6
101207  1  0
101208  1  0
101209  1  0
104210  1  0
105211  1  6
107212  1  0
107213  1  0
109214  1  0
109215  1  0
111216  1  0
111217  1  0
M  END
