
     RDKit          3D

227229  0  0  0  0  0  0  0  0999 V2000
   -3.3664   -5.6205   -2.7762 C   0  0  0  0  0  0  0  0  0  0  0  0
   -4.3393   -5.0464   -1.7903 C   0  0  0  0  0  0  0  0  0  0  0  0
   -5.3326   -4.3979   -2.2210 O   0  0  0  0  0  0  0  0  0  0  0  0
   -4.1746   -5.2259   -0.3735 N   0  0  0  0  0  0  0  0  0  0  0  0
   -2.9311   -5.7173    0.2266 C   0  0  1  0  0  0  0  0  0  0  0  0
   -2.7807   -5.2522    1.6939 C   0  0  0  0  0  0  0  0  0  0  0  0
   -1.0096   -4.9919    2.1000 S   0  0  0  0  0  0  0  0  0  0  0  0
   -0.8788   -3.3134    1.3519 C   0  0  0  0  0  0  0  0  0  0  0  0
    0.2741   -3.1476    0.3853 C   0  0  0  0  0  0  0  0  0  0  0  0
    0.7544   -4.2112   -0.4120 C   0  0  0  0  0  0  0  0  0  0  0  0
    1.7304   -3.9852   -1.3972 C   0  0  0  0  0  0  0  0  0  0  0  0
    2.2196   -2.6859   -1.5991 C   0  0  0  0  0  0  0  0  0  0  0  0
    1.7051   -1.6133   -0.8628 C   0  0  0  0  0  0  0  0  0  0  0  0
    0.7617   -1.8547    0.1455 C   0  0  0  0  0  0  0  0  0  0  0  0
    2.1588   -0.2103   -1.1575 C   0  0  0  0  0  0  0  0  0  0  0  0
    3.5779    0.2179   -0.0853 S   0  0  0  0  0  0  0  0  0  0  0  0
    2.7706    1.5625    0.8742 C   0  0  0  0  0  0  0  0  0  0  0  0
    3.0039    2.9578    0.2663 C   0  0  2  0  0  0  0  0  0  0  0  0
    2.3688    3.0363   -1.0565 N   0  0  0  0  0  0  0  0  0  0  0  0
    1.1620    3.7630   -1.3683 C   0  0  0  0  0  0  0  0  0  0  0  0
    0.7984    3.8308   -2.5725 O   0  0  0  0  0  0  0  0  0  0  0  0
    0.3435    4.4906   -0.3209 C   0  0  1  0  0  0  0  0  0  0  0  0
    0.8858    5.9131   -0.1397 C   0  0  0  0  0  0  0  0  0  0  0  0
   -1.0850    4.4547   -0.6805 N   0  0  0  0  0  0  0  0  0  0  0  0
   -1.8643    5.6137   -0.9978 C   0  0  0  0  0  0  0  0  0  0  0  0
   -1.6335    6.2263   -2.0789 O   0  0  0  0  0  0  0  0  0  0  0  0
   -3.0318    6.0289   -0.1352 C   0  0  1  0  0  0  0  0  0  0  0  0
   -2.7960    5.6549    1.3329 C   0  0  0  0  0  0  0  0  0  0  0  0
   -3.2245    7.4763   -0.2375 N   0  0  0  0  0  0  0  0  0  0  0  0
   -4.2678    8.1341   -0.9840 C   0  0  0  0  0  0  0  0  0  0  0  0
   -4.0143    9.2525   -1.5087 O   0  0  0  0  0  0  0  0  0  0  0  0
   -5.6457    7.5456   -1.2087 C   0  0  1  0  0  0  0  0  0  0  0  0
   -5.6685    6.6775   -2.4770 C   0  0  0  0  0  0  0  0  0  0  0  0
   -6.1298    6.8188   -0.0268 N   0  0  0  0  0  0  0  0  0  0  0  0
   -7.2904    5.9796   -0.0434 C   0  0  0  0  0  0  0  0  0  0  0  0
   -7.1298    4.7281   -0.0175 O   0  0  0  0  0  0  0  0  0  0  0  0
   -8.6900    6.5283    0.0851 C   0  0  1  0  0  0  0  0  0  0  0  0
   -8.7786    8.0523   -0.0550 C   0  0  0  0  0  0  0  0  0  0  0  0
   -9.5564    5.8991   -0.9125 N   0  0  0  0  0  0  0  0  0  0  0  0
  -10.9220    5.6044   -0.6108 C   0  0  0  0  0  0  0  0  0  0  0  0
  -11.8213    6.3933   -0.9991 O   0  0  0  0  0  0  0  0  0  0  0  0
  -11.2774    4.3637    0.1668 C   0  0  1  0  0  0  0  0  0  0  0  0
  -11.7851    4.7356    1.5640 C   0  0  0  0  0  0  0  0  0  0  0  0
  -12.3078    3.6085   -0.5560 N   0  0  0  0  0  0  0  0  0  0  0  0
  -12.5801    2.2217   -0.3088 C   0  0  0  0  0  0  0  0  0  0  0  0
  -13.7451    1.8942    0.0431 O   0  0  0  0  0  0  0  0  0  0  0  0
  -11.5548    1.1339   -0.5255 C   0  0  1  0  0  0  0  0  0  0  0  0
  -10.5850    1.4489   -1.6667 C   0  0  0  0  0  0  0  0  0  0  0  0
  -10.8139    0.8695    0.7149 N   0  0  0  0  0  0  0  0  0  0  0  0
  -10.6122   -0.4307    1.3040 C   0  0  0  0  0  0  0  0  0  0  0  0
   -9.5879   -0.6071    2.0115 O   0  0  0  0  0  0  0  0  0  0  0  0
  -11.6044   -1.5720    1.1967 C   0  0  1  0  0  0  0  0  0  0  0  0
  -13.0235   -1.1343    1.5783 C   0  0  0  0  0  0  0  0  0  0  0  0
  -11.5752   -2.1843   -0.1393 N   0  0  0  0  0  0  0  0  0  0  0  0
  -10.5288   -3.0400   -0.6295 C   0  0  0  0  0  0  0  0  0  0  0  0
  -10.4315   -3.2075   -1.8743 O   0  0  0  0  0  0  0  0  0  0  0  0
   -9.6338   -3.8319    0.3040 C   0  0  1  0  0  0  0  0  0  0  0  0
  -10.4097   -5.0115    0.9043 C   0  0  0  0  0  0  0  0  0  0  0  0
   -8.4127   -4.2891   -0.3748 N   0  0  0  0  0  0  0  0  0  0  0  0
   -8.3671   -5.4251   -1.2484 C   0  0  0  0  0  0  0  0  0  0  0  0
   -8.6342   -5.2789   -2.4749 O   0  0  0  0  0  0  0  0  0  0  0  0
   -7.8930   -6.7646   -0.7424 C   0  0  1  0  0  0  0  0  0  0  0  0
   -8.9580   -7.8401   -0.9797 C   0  0  0  0  0  0  0  0  0  0  0  0
   -6.6634   -7.1547   -1.4436 N   0  0  0  0  0  0  0  0  0  0  0  0
   -5.6628   -8.0147   -0.8742 C   0  0  0  0  0  0  0  0  0  0  0  0
   -5.1003   -8.8662   -1.6142 O   0  0  0  0  0  0  0  0  0  0  0  0
   -5.2507   -7.9237    0.5783 C   0  0  1  0  0  0  0  0  0  0  0  0
   -5.9914   -8.9893    1.3852 C   0  0  0  0  0  0  0  0  0  0  0  0
   -3.7965   -8.1158    0.6969 N   0  0  0  0  0  0  0  0  0  0  0  0
   -2.8170   -7.2209    0.1322 C   0  0  0  0  0  0  0  0  0  0  0  0
   -1.7715   -7.7154   -0.3654 O   0  0  0  0  0  0  0  0  0  0  0  0
    4.4822    3.2615    0.1742 C   0  0  0  0  0  0  0  0  0  0  0  0
    5.0271    3.3981   -0.9543 O   0  0  0  0  0  0  0  0  0  0  0  0
    5.3075    3.3314    1.3482 N   0  0  0  0  0  0  0  0  0  0  0  0
    5.0792    4.2445    2.4759 C   0  0  2  0  0  0  0  0  0  0  0  0
    4.1359    3.6172    3.5118 C   0  0  0  0  0  0  0  0  0  0  0  0
    4.6235    5.6122    2.0038 C   0  0  0  0  0  0  0  0  0  0  0  0
    3.4687    6.0151    2.3064 O   0  0  0  0  0  0  0  0  0  0  0  0
    5.4704    6.4684    1.2195 N   0  0  0  0  0  0  0  0  0  0  0  0
    6.9189    6.2750    1.0493 C   0  0  2  0  0  0  0  0  0  0  0  0
    7.6613    7.0087    2.1687 C   0  0  0  0  0  0  0  0  0  0  0  0
    7.3625    6.7947   -0.2973 C   0  0  0  0  0  0  0  0  0  0  0  0
    6.8323    7.8409   -0.7635 O   0  0  0  0  0  0  0  0  0  0  0  0
    8.3736    6.1283   -1.0751 N   0  0  0  0  0  0  0  0  0  0  0  0
    9.5637    5.4941   -0.4869 C   0  0  2  0  0  0  0  0  0  0  0  0
   10.6286    6.5798   -0.2630 C   0  0  0  0  0  0  0  0  0  0  0  0
   10.0856    4.3990   -1.3980 C   0  0  0  0  0  0  0  0  0  0  0  0
    9.4521    4.1202   -2.4495 O   0  0  0  0  0  0  0  0  0  0  0  0
   11.3018    3.6827   -1.1305 N   0  0  0  0  0  0  0  0  0  0  0  0
   11.8707    3.4394    0.2003 C   0  0  2  0  0  0  0  0  0  0  0  0
   13.2811    4.0325    0.2589 C   0  0  0  0  0  0  0  0  0  0  0  0
   11.9395    1.9596    0.5096 C   0  0  0  0  0  0  0  0  0  0  0  0
   12.3418    1.5978    1.6478 O   0  0  0  0  0  0  0  0  0  0  0  0
   11.6244    0.9638   -0.4761 N   0  0  0  0  0  0  0  0  0  0  0  0
   12.3785   -0.2905   -0.5537 C   0  0  2  0  0  0  0  0  0  0  0  0
   13.7983   -0.0149   -1.0595 C   0  0  0  0  0  0  0  0  0  0  0  0
   11.6758   -1.2626   -1.4793 C   0  0  0  0  0  0  0  0  0  0  0  0
   11.5698   -0.9613   -2.7002 O   0  0  0  0  0  0  0  0  0  0  0  0
   11.1701   -2.5359   -1.0413 N   0  0  0  0  0  0  0  0  0  0  0  0
   10.9600   -2.9139    0.3642 C   0  0  2  0  0  0  0  0  0  0  0  0
   12.2012   -3.6218    0.9096 C   0  0  0  0  0  0  0  0  0  0  0  0
    9.7572   -3.8152    0.5207 C   0  0  0  0  0  0  0  0  0  0  0  0
    8.9135   -3.5711    1.4232 O   0  0  0  0  0  0  0  0  0  0  0  0
    9.6084   -4.9974   -0.2792 N   0  0  0  0  0  0  0  0  0  0  0  0
    9.3997   -6.3069    0.3416 C   0  0  2  0  0  0  0  0  0  0  0  0
   10.2724   -7.3509   -0.3606 C   0  0  0  0  0  0  0  0  0  0  0  0
    7.9510   -6.7401    0.3062 C   0  0  0  0  0  0  0  0  0  0  0  0
    7.6202   -7.7494    0.9826 O   0  0  0  0  0  0  0  0  0  0  0  0
    6.9662   -6.0699   -0.4952 N   0  0  0  0  0  0  0  0  0  0  0  0
    5.6710   -6.6961   -0.7739 C   0  0  2  0  0  0  0  0  0  0  0  0
    5.8655   -7.8125   -1.7659 C   0  0  0  0  0  0  0  0  0  0  0  0
    6.4880   -7.5621   -3.0312 N   0  0  0  0  0  0  0  0  0  0  0  0
    5.4647   -8.9757   -1.4898 O   0  0  0  0  0  0  0  0  0  0  0  0
    4.6478   -5.6781   -1.3058 C   0  0  0  0  0  0  0  0  0  0  0  0
    2.9836   -6.4453   -1.3792 S   0  0  0  0  0  0  0  0  0  0  0  0
    2.1649   -5.1058   -2.3053 C   0  0  0  0  0  0  0  0  0  0  0  0
   -3.2989   -6.7209   -2.6392 H   0  0  0  0  0  0  0  0  0  0  0  0
   -3.7082   -5.4277   -3.8135 H   0  0  0  0  0  0  0  0  0  0  0  0
   -2.3680   -5.1599   -2.6456 H   0  0  0  0  0  0  0  0  0  0  0  0
   -4.9175   -4.8246    0.2434 H   0  0  0  0  0  0  0  0  0  0  0  0
   -2.0925   -5.2693   -0.3429 H   0  0  0  0  0  0  0  0  0  0  0  0
   -3.2096   -5.9991    2.3944 H   0  0  0  0  0  0  0  0  0  0  0  0
   -3.3388   -4.3094    1.8723 H   0  0  0  0  0  0  0  0  0  0  0  0
   -1.8040   -3.0254    0.8150 H   0  0  0  0  0  0  0  0  0  0  0  0
   -0.7568   -2.6014    2.1943 H   0  0  0  0  0  0  0  0  0  0  0  0
    0.3411   -5.2009   -0.3061 H   0  0  0  0  0  0  0  0  0  0  0  0
    2.9709   -2.5089   -2.3611 H   0  0  0  0  0  0  0  0  0  0  0  0
    0.3628   -1.0159    0.7053 H   0  0  0  0  0  0  0  0  0  0  0  0
    1.3019    0.4892   -1.0400 H   0  0  0  0  0  0  0  0  0  0  0  0
    2.4872   -0.1290   -2.2180 H   0  0  0  0  0  0  0  0  0  0  0  0
    1.6806    1.3754    0.9900 H   0  0  0  0  0  0  0  0  0  0  0  0
    3.2020    1.5224    1.8936 H   0  0  0  0  0  0  0  0  0  0  0  0
    2.5651    3.7105    0.9399 H   0  0  0  0  0  0  0  0  0  0  0  0
    2.8059    2.5023   -1.8420 H   0  0  0  0  0  0  0  0  0  0  0  0
    0.4319    3.9599    0.6515 H   0  0  0  0  0  0  0  0  0  0  0  0
    1.9483    5.8809    0.1749 H   0  0  0  0  0  0  0  0  0  0  0  0
    0.3105    6.4532    0.6441 H   0  0  0  0  0  0  0  0  0  0  0  0
    0.8353    6.4809   -1.0921 H   0  0  0  0  0  0  0  0  0  0  0  0
   -1.5848    3.5418   -0.5881 H   0  0  0  0  0  0  0  0  0  0  0  0
   -3.9267    5.4750   -0.4808 H   0  0  0  0  0  0  0  0  0  0  0  0
   -1.8902    6.1680    1.7227 H   0  0  0  0  0  0  0  0  0  0  0  0
   -2.6692    4.5576    1.4439 H   0  0  0  0  0  0  0  0  0  0  0  0
   -3.6656    5.9602    1.9521 H   0  0  0  0  0  0  0  0  0  0  0  0
   -2.4229    8.0783    0.0698 H   0  0  0  0  0  0  0  0  0  0  0  0
   -6.3322    8.4013   -1.3935 H   0  0  0  0  0  0  0  0  0  0  0  0
   -5.2762    7.2577   -3.3410 H   0  0  0  0  0  0  0  0  0  0  0  0
   -6.7156    6.3911   -2.7152 H   0  0  0  0  0  0  0  0  0  0  0  0
   -5.0692    5.7549   -2.3541 H   0  0  0  0  0  0  0  0  0  0  0  0
   -5.5779    6.8468    0.8643 H   0  0  0  0  0  0  0  0  0  0  0  0
   -9.0474    6.2710    1.1064 H   0  0  0  0  0  0  0  0  0  0  0  0
   -8.0607    8.5587    0.6256 H   0  0  0  0  0  0  0  0  0  0  0  0
   -8.5849    8.3590   -1.1035 H   0  0  0  0  0  0  0  0  0  0  0  0
   -9.8023    8.3887    0.2107 H   0  0  0  0  0  0  0  0  0  0  0  0
   -9.2990    6.0069   -1.9213 H   0  0  0  0  0  0  0  0  0  0  0  0
  -10.3630    3.7509    0.2821 H   0  0  0  0  0  0  0  0  0  0  0  0
  -12.0436    3.8157    2.1289 H   0  0  0  0  0  0  0  0  0  0  0  0
  -12.6909    5.3724    1.4904 H   0  0  0  0  0  0  0  0  0  0  0  0
  -10.9990    5.2822    2.1268 H   0  0  0  0  0  0  0  0  0  0  0  0
  -13.1188    4.1640   -0.9198 H   0  0  0  0  0  0  0  0  0  0  0  0
  -12.1085    0.2339   -0.8488 H   0  0  0  0  0  0  0  0  0  0  0  0
  -11.1493    1.6489   -2.6061 H   0  0  0  0  0  0  0  0  0  0  0  0
   -9.9452    2.3247   -1.4345 H   0  0  0  0  0  0  0  0  0  0  0  0
   -9.9230    0.5742   -1.8379 H   0  0  0  0  0  0  0  0  0  0  0  0
  -10.2295    1.6445    1.0987 H   0  0  0  0  0  0  0  0  0  0  0  0
  -11.3253   -2.3422    1.9503 H   0  0  0  0  0  0  0  0  0  0  0  0
  -13.0067   -0.4878    2.4842 H   0  0  0  0  0  0  0  0  0  0  0  0
  -13.6405   -2.0314    1.7983 H   0  0  0  0  0  0  0  0  0  0  0  0
  -13.5176   -0.5888    0.7532 H   0  0  0  0  0  0  0  0  0  0  0  0
  -12.3631   -1.9868   -0.7999 H   0  0  0  0  0  0  0  0  0  0  0  0
   -9.3187   -3.1768    1.1391 H   0  0  0  0  0  0  0  0  0  0  0  0
  -11.2235   -4.6469    1.5662 H   0  0  0  0  0  0  0  0  0  0  0  0
  -10.8734   -5.6202    0.1039 H   0  0  0  0  0  0  0  0  0  0  0  0
   -9.7339   -5.6416    1.5164 H   0  0  0  0  0  0  0  0  0  0  0  0
   -7.6546   -3.5758   -0.5006 H   0  0  0  0  0  0  0  0  0  0  0  0
   -7.7086   -6.6853    0.3469 H   0  0  0  0  0  0  0  0  0  0  0  0
   -8.5695   -8.8389   -0.6879 H   0  0  0  0  0  0  0  0  0  0  0  0
   -9.2442   -7.8754   -2.0536 H   0  0  0  0  0  0  0  0  0  0  0  0
   -9.8653   -7.6343   -0.3781 H   0  0  0  0  0  0  0  0  0  0  0  0
   -6.6700   -7.0842   -2.4836 H   0  0  0  0  0  0  0  0  0  0  0  0
   -5.5217   -6.9348    1.0032 H   0  0  0  0  0  0  0  0  0  0  0  0
   -5.7802  -10.0105    0.9880 H   0  0  0  0  0  0  0  0  0  0  0  0
   -7.0898   -8.8174    1.3486 H   0  0  0  0  0  0  0  0  0  0  0  0
   -5.6755   -8.9506    2.4503 H   0  0  0  0  0  0  0  0  0  0  0  0
   -3.4533   -9.0578    0.9899 H   0  0  0  0  0  0  0  0  0  0  0  0
    6.2645    2.9111    1.2679 H   0  0  0  0  0  0  0  0  0  0  0  0
    6.0482    4.3840    3.0133 H   0  0  0  0  0  0  0  0  0  0  0  0
    3.1024    3.5113    3.1259 H   0  0  0  0  0  0  0  0  0  0  0  0
    4.0944    4.2547    4.4185 H   0  0  0  0  0  0  0  0  0  0  0  0
    4.5111    2.6110    3.8072 H   0  0  0  0  0  0  0  0  0  0  0  0
    5.0731    7.4033    0.9639 H   0  0  0  0  0  0  0  0  0  0  0  0
    7.1645    5.1975    1.1084 H   0  0  0  0  0  0  0  0  0  0  0  0
    7.3333    6.6230    3.1583 H   0  0  0  0  0  0  0  0  0  0  0  0
    7.4577    8.1003    2.1194 H   0  0  0  0  0  0  0  0  0  0  0  0
    8.7558    6.8490    2.0833 H   0  0  0  0  0  0  0  0  0  0  0  0
    8.4522    6.4377   -2.0730 H   0  0  0  0  0  0  0  0  0  0  0  0
    9.3073    5.0400    0.4912 H   0  0  0  0  0  0  0  0  0  0  0  0
   10.1567    7.5223    0.0912 H   0  0  0  0  0  0  0  0  0  0  0  0
   11.3462    6.2648    0.5188 H   0  0  0  0  0  0  0  0  0  0  0  0
   11.1794    6.7920   -1.2043 H   0  0  0  0  0  0  0  0  0  0  0  0
   11.7861    3.2504   -1.9538 H   0  0  0  0  0  0  0  0  0  0  0  0
   11.2454    3.9139    0.9825 H   0  0  0  0  0  0  0  0  0  0  0  0
   13.9512    3.4943   -0.4428 H   0  0  0  0  0  0  0  0  0  0  0  0
   13.6960    3.9560    1.2901 H   0  0  0  0  0  0  0  0  0  0  0  0
   13.2663    5.0998   -0.0403 H   0  0  0  0  0  0  0  0  0  0  0  0
   10.8979    1.1774   -1.1947 H   0  0  0  0  0  0  0  0  0  0  0  0
   12.4707   -0.7186    0.4618 H   0  0  0  0  0  0  0  0  0  0  0  0
   13.7662    0.5102   -2.0407 H   0  0  0  0  0  0  0  0  0  0  0  0
   14.3403    0.6291   -0.3359 H   0  0  0  0  0  0  0  0  0  0  0  0
   14.3597   -0.9636   -1.1697 H   0  0  0  0  0  0  0  0  0  0  0  0
   11.0644   -3.2664   -1.7761 H   0  0  0  0  0  0  0  0  0  0  0  0
   10.7666   -2.0072    0.9792 H   0  0  0  0  0  0  0  0  0  0  0  0
   12.0669   -3.8474    1.9900 H   0  0  0  0  0  0  0  0  0  0  0  0
   13.0996   -2.9771    0.8052 H   0  0  0  0  0  0  0  0  0  0  0  0
   12.3864   -4.5723    0.3696 H   0  0  0  0  0  0  0  0  0  0  0  0
    9.6538   -4.9282   -1.3191 H   0  0  0  0  0  0  0  0  0  0  0  0
    9.7182   -6.2604    1.4048 H   0  0  0  0  0  0  0  0  0  0  0  0
   10.0066   -7.4133   -1.4398 H   0  0  0  0  0  0  0  0  0  0  0  0
   11.3446   -7.0680   -0.2734 H   0  0  0  0  0  0  0  0  0  0  0  0
   10.1349   -8.3508    0.1024 H   0  0  0  0  0  0  0  0  0  0  0  0
    7.1784   -5.1315   -0.9065 H   0  0  0  0  0  0  0  0  0  0  0  0
    5.2630   -7.1106    0.1774 H   0  0  0  0  0  0  0  0  0  0  0  0
    6.6085   -8.3393   -3.7183 H   0  0  0  0  0  0  0  0  0  0  0  0
    6.8645   -6.6136   -3.2622 H   0  0  0  0  0  0  0  0  0  0  0  0
    4.6017   -4.8086   -0.6173 H   0  0  0  0  0  0  0  0  0  0  0  0
    4.9577   -5.3248   -2.3146 H   0  0  0  0  0  0  0  0  0  0  0  0
    2.8333   -4.7360   -3.1137 H   0  0  0  0  0  0  0  0  0  0  0  0
    1.2690   -5.5322   -2.8034 H   0  0  0  0  0  0  0  0  0  0  0  0
  1  2  1  0
  2  3  2  0
  2  4  1  0
  4  5  1  0
  5  6  1  0
  6  7  1  0
  7  8  1  0
  8  9  1  0
  9 10  2  0
 10 11  1  0
 11 12  2  0
 12 13  1  0
 13 14  2  0
 13 15  1  0
 15 16  1  0
 16 17  1  0
 17 18  1  0
 18 19  1  0
 19 20  1  0
 20 21  2  0
 20 22  1  0
 22 23  1  0
 22 24  1  0
 24 25  1  0
 25 26  2  0
 25 27  1  0
 27 28  1  0
 27 29  1  0
 29 30  1  0
 30 31  2  0
 30 32  1  0
 32 33  1  0
 32 34  1  0
 34 35  1  0
 35 36  2  0
 35 37  1  0
 37 38  1  0
 37 39  1  0
 39 40  1  0
 40 41  2  0
 40 42  1  0
 42 43  1  0
 42 44  1  0
 44 45  1  0
 45 46  2  0
 45 47  1  0
 47 48  1  0
 47 49  1  0
 49 50  1  0
 50 51  2  0
 50 52  1  0
 52 53  1  0
 52 54  1  0
 54 55  1  0
 55 56  2  0
 55 57  1  0
 57 58  1  0
 57 59  1  0
 59 60  1  0
 60 61  2  0
 60 62  1  0
 62 63  1  0
 62 64  1  0
 64 65  1  0
 65 66  2  0
 65 67  1  0
 67 68  1  0
 67 69  1  0
 69 70  1  0
 70 71  2  0
 18 72  1  0
 72 73  2  0
 72 74  1  0
 74 75  1  0
 75 76  1  0
 75 77  1  0
 77 78  2  0
 77 79  1  0
 79 80  1  0
 80 81  1  0
 80 82  1  0
 82 83  2  0
 82 84  1  0
 84 85  1  0
 85 86  1  0
 85 87  1  0
 87 88  2  0
 87 89  1  0
 89 90  1  0
 90 91  1  0
 90 92  1  0
 92 93  2  0
 92 94  1  0
 94 95  1  0
 95 96  1  0
 95 97  1  0
 97 98  2  0
 97 99  1  0
 99100  1  0
100101  1  0
100102  1  0
102103  2  0
102104  1  0
104105  1  0
105106  1  0
105107  1  0
107108  2  0
107109  1  0
109110  1  0
110111  1  0
111112  1  0
111113  2  0
110114  1  0
114115  1  0
115116  1  0
 70  5  1  0
 14  9  1  0
116 11  1  0
  1117  1  0
  1118  1  0
  1119  1  0
  4120  1  0
  5121  1  6
  6122  1  0
  6123  1  0
  8124  1  0
  8125  1  0
 10126  1  0
 12127  1  0
 14128  1  0
 15129  1  0
 15130  1  0
 17131  1  0
 17132  1  0
 18133  1  1
 19134  1  0
 22135  1  1
 23136  1  0
 23137  1  0
 23138  1  0
 24139  1  0
 27140  1  6
 28141  1  0
 28142  1  0
 28143  1  0
 29144  1  0
 32145  1  6
 33146  1  0
 33147  1  0
 33148  1  0
 34149  1  0
 37150  1  1
 38151  1  0
 38152  1  0
 38153  1  0
 39154  1  0
 42155  1  1
 43156  1  0
 43157  1  0
 43158  1  0
 44159  1  0
 47160  1  6
 48161  1  0
 48162  1  0
 48163  1  0
 49164  1  0
 52165  1  1
 53166  1  0
 53167  1  0
 53168  1  0
 54169  1  0
 57170  1  1
 58171  1  0
 58172  1  0
 58173  1  0
 59174  1  0
 62175  1  1
 63176  1  0
 63177  1  0
 63178  1  0
 64179  1  0
 67180  1  1
 68181  1  0
 68182  1  0
 68183  1  0
 69184  1  0
 74185  1  0
 75186  1  1
 76187  1  0
 76188  1  0
 76189  1  0
 79190  1  0
 80191  1  6
 81192  1  0
 81193  1  0
 81194  1  0
 84195  1  0
 85196  1  1
 86197  1  0
 86198  1  0
 86199  1  0
 89200  1  0
 90201  1  1
 91202  1  0
 91203  1  0
 91204  1  0
 94205  1  0
 95206  1  1
 96207  1  0
 96208  1  0
 96209  1  0
 99210  1  0
100211  1  1
101212  1  0
101213  1  0
101214  1  0
104215  1  0
105216  1  1
106217  1  0
106218  1  0
106219  1  0
109220  1  0
110221  1  1
112222  1  0
112223  1  0
114224  1  0
114225  1  0
116226  1  0
116227  1  0
M  END
