
     RDKit          3D

237239  0  0  0  0  0  0  0  0999 V2000
   -3.0868    9.2940    0.1916 C   0  0  0  0  0  0  0  0  0  0  0  0
   -1.8762    9.1119    1.0519 C   0  0  0  0  0  0  0  0  0  0  0  0
   -1.4450   10.1074    1.6860 O   0  0  0  0  0  0  0  0  0  0  0  0
   -1.1520    7.8717    1.1133 N   0  0  0  0  0  0  0  0  0  0  0  0
   -1.7381    6.5624    1.4451 C   0  0  2  0  0  0  0  0  0  0  0  0
   -2.4449    5.9267    0.2262 C   0  0  0  0  0  0  0  0  0  0  0  0
   -2.5756    4.1062    0.4146 S   0  0  0  0  0  0  0  0  0  0  0  0
   -1.7084    3.6049   -1.1254 C   0  0  0  0  0  0  0  0  0  0  0  0
   -0.3053    3.1491   -0.8051 C   0  0  0  0  0  0  0  0  0  0  0  0
    0.6057    4.0358   -0.2207 C   0  0  0  0  0  0  0  0  0  0  0  0
    1.9030    3.6193    0.1110 C   0  0  0  0  0  0  0  0  0  0  0  0
    2.2809    2.2955   -0.1443 C   0  0  0  0  0  0  0  0  0  0  0  0
    1.3782    1.3912   -0.7271 C   0  0  0  0  0  0  0  0  0  0  0  0
    0.1001    1.8388   -1.0957 C   0  0  0  0  0  0  0  0  0  0  0  0
    1.7985   -0.0298   -0.9940 C   0  0  0  0  0  0  0  0  0  0  0  0
    0.5792   -1.2059   -0.2888 S   0  0  0  0  0  0  0  0  0  0  0  0
    1.7847   -2.2132    0.6519 C   0  0  0  0  0  0  0  0  0  0  0  0
    1.1174   -3.5047    1.1404 C   0  0  2  0  0  0  0  0  0  0  0  0
   -0.0393   -3.1891    1.9959 N   0  0  0  0  0  0  0  0  0  0  0  0
   -1.3556   -3.7736    1.8841 C   0  0  0  0  0  0  0  0  0  0  0  0
   -2.2115   -3.4814    2.7663 O   0  0  0  0  0  0  0  0  0  0  0  0
   -1.7215   -4.7989    0.8337 C   0  0  1  0  0  0  0  0  0  0  0  0
   -1.2245   -6.1812    1.2739 C   0  0  0  0  0  0  0  0  0  0  0  0
   -3.1710   -4.7655    0.5785 N   0  0  0  0  0  0  0  0  0  0  0  0
   -3.9607   -5.9367    0.3595 C   0  0  0  0  0  0  0  0  0  0  0  0
   -4.3373   -6.6183    1.3557 O   0  0  0  0  0  0  0  0  0  0  0  0
   -4.4400   -6.2892   -1.0262 C   0  0  1  0  0  0  0  0  0  0  0  0
   -3.2915   -6.1953   -2.0363 C   0  0  0  0  0  0  0  0  0  0  0  0
   -4.9793   -7.6581   -1.0427 N   0  0  0  0  0  0  0  0  0  0  0  0
   -6.2846   -8.0483   -1.5104 C   0  0  0  0  0  0  0  0  0  0  0  0
   -6.5519   -9.2798   -1.5808 O   0  0  0  0  0  0  0  0  0  0  0  0
   -7.3292   -7.0467   -1.9476 C   0  0  1  0  0  0  0  0  0  0  0  0
   -7.0813   -6.6234   -3.3971 C   0  0  0  0  0  0  0  0  0  0  0  0
   -8.6721   -7.6335   -1.8476 N   0  0  0  0  0  0  0  0  0  0  0  0
   -9.7779   -7.1278   -1.0741 C   0  0  0  0  0  0  0  0  0  0  0  0
  -10.9373   -7.5425   -1.3588 O   0  0  0  0  0  0  0  0  0  0  0  0
   -9.6375   -6.1480    0.0701 C   0  0  1  0  0  0  0  0  0  0  0  0
   -8.6930   -6.6762    1.1582 C   0  0  0  0  0  0  0  0  0  0  0  0
   -9.2324   -4.8222   -0.4066 N   0  0  0  0  0  0  0  0  0  0  0  0
   -9.3115   -3.6579    0.4224 C   0  0  0  0  0  0  0  0  0  0  0  0
   -8.2812   -2.9553    0.6009 O   0  0  0  0  0  0  0  0  0  0  0  0
  -10.6257   -3.2216    1.0167 C   0  0  1  0  0  0  0  0  0  0  0  0
  -10.6820   -3.5390    2.5101 C   0  0  0  0  0  0  0  0  0  0  0  0
  -10.8331   -1.7858    0.7909 N   0  0  0  0  0  0  0  0  0  0  0  0
  -11.0241   -1.2682   -0.5312 C   0  0  0  0  0  0  0  0  0  0  0  0
  -10.0194   -0.9089   -1.1992 O   0  0  0  0  0  0  0  0  0  0  0  0
  -12.4031   -1.0436   -1.0899 C   0  0  1  0  0  0  0  0  0  0  0  0
  -13.2799   -2.2937   -0.9904 C   0  0  0  0  0  0  0  0  0  0  0  0
  -13.0434    0.0630   -0.3763 N   0  0  0  0  0  0  0  0  0  0  0  0
  -13.4727    1.2726   -1.0130 C   0  0  0  0  0  0  0  0  0  0  0  0
  -14.5293    1.8340   -0.6056 O   0  0  0  0  0  0  0  0  0  0  0  0
  -12.6876    1.9146   -2.1293 C   0  0  1  0  0  0  0  0  0  0  0  0
  -13.4020    1.7418   -3.4721 C   0  0  0  0  0  0  0  0  0  0  0  0
  -12.5105    3.3361   -1.8359 N   0  0  0  0  0  0  0  0  0  0  0  0
  -11.2378    3.8674   -1.4426 C   0  0  0  0  0  0  0  0  0  0  0  0
  -10.2136    3.5974   -2.1301 O   0  0  0  0  0  0  0  0  0  0  0  0
  -11.0789    4.7340   -0.2141 C   0  0  1  0  0  0  0  0  0  0  0  0
  -12.4098    5.1021    0.4454 C   0  0  0  0  0  0  0  0  0  0  0  0
  -10.2455    4.0227    0.7600 N   0  0  0  0  0  0  0  0  0  0  0  0
   -8.9810    4.4734    1.2926 C   0  0  0  0  0  0  0  0  0  0  0  0
   -8.3966    3.7374    2.1392 O   0  0  0  0  0  0  0  0  0  0  0  0
   -8.3890    5.8153    0.9526 C   0  0  1  0  0  0  0  0  0  0  0  0
   -9.0731    6.9397    1.7482 C   0  0  0  0  0  0  0  0  0  0  0  0
   -6.9309    5.8403    1.1482 N   0  0  0  0  0  0  0  0  0  0  0  0
   -6.2945    6.0797    2.4094 C   0  0  0  0  0  0  0  0  0  0  0  0
   -6.7498    5.5536    3.4668 O   0  0  0  0  0  0  0  0  0  0  0  0
   -5.0555    6.9298    2.4704 C   0  0  1  0  0  0  0  0  0  0  0  0
   -5.2205    8.0536    3.4962 C   0  0  0  0  0  0  0  0  0  0  0  0
   -3.8918    6.1027    2.7931 N   0  0  0  0  0  0  0  0  0  0  0  0
   -2.5672    6.6434    2.7089 C   0  0  0  0  0  0  0  0  0  0  0  0
   -2.0364    7.1064    3.7532 O   0  0  0  0  0  0  0  0  0  0  0  0
    2.0943   -4.3616    1.9087 C   0  0  0  0  0  0  0  0  0  0  0  0
    2.3858   -4.0735    3.1014 O   0  0  0  0  0  0  0  0  0  0  0  0
    2.6576   -5.5365    1.3140 N   0  0  0  0  0  0  0  0  0  0  0  0
    3.5592   -5.4610    0.1621 C   0  0  2  0  0  0  0  0  0  0  0  0
    2.8190   -5.9051   -1.1083 C   0  0  0  0  0  0  0  0  0  0  0  0
    4.8037   -6.2772    0.4152 C   0  0  0  0  0  0  0  0  0  0  0  0
    5.2188   -7.0853   -0.4592 O   0  0  0  0  0  0  0  0  0  0  0  0
    5.5201   -6.1426    1.6545 N   0  0  0  0  0  0  0  0  0  0  0  0
    6.9557   -5.8498    1.7244 C   0  0  2  0  0  0  0  0  0  0  0  0
    7.1997   -4.4327    1.1963 C   0  0  0  0  0  0  0  0  0  0  0  0
    7.7805   -6.9314    1.0436 C   0  0  0  0  0  0  0  0  0  0  0  0
    7.3386   -8.1067    1.0154 O   0  0  0  0  0  0  0  0  0  0  0  0
    9.1030   -6.6877    0.5337 N   0  0  0  0  0  0  0  0  0  0  0  0
    9.3775   -5.9375   -0.7019 C   0  0  2  0  0  0  0  0  0  0  0  0
    8.4170   -6.3480   -1.8238 C   0  0  0  0  0  0  0  0  0  0  0  0
   10.8066   -6.1682   -1.1509 C   0  0  0  0  0  0  0  0  0  0  0  0
   11.1415   -7.3264   -1.5197 O   0  0  0  0  0  0  0  0  0  0  0  0
   11.7893   -5.1152   -1.2112 N   0  0  0  0  0  0  0  0  0  0  0  0
   12.0055   -4.0601   -0.2045 C   0  0  2  0  0  0  0  0  0  0  0  0
   11.6803   -4.5442    1.2201 C   0  0  0  0  0  0  0  0  0  0  0  0
   11.2566   -2.7934   -0.5569 C   0  0  0  0  0  0  0  0  0  0  0  0
   10.2987   -2.8445   -1.3776 O   0  0  0  0  0  0  0  0  0  0  0  0
   11.6032   -1.5192    0.0130 N   0  0  0  0  0  0  0  0  0  0  0  0
   12.9888   -1.0686    0.2400 C   0  0  2  0  0  0  0  0  0  0  0  0
   13.5155   -1.5461    1.6024 C   0  0  0  0  0  0  0  0  0  0  0  0
   13.0689    0.4406    0.1944 C   0  0  0  0  0  0  0  0  0  0  0  0
   13.8109    0.9960   -0.6574 O   0  0  0  0  0  0  0  0  0  0  0  0
   12.3679    1.2319    1.1644 N   0  0  0  0  0  0  0  0  0  0  0  0
   12.8608    2.5478    1.5941 C   0  0  2  0  0  0  0  0  0  0  0  0
   12.6489    2.7178    3.1052 C   0  0  0  0  0  0  0  0  0  0  0  0
   12.1707    3.6290    0.7968 C   0  0  0  0  0  0  0  0  0  0  0  0
   11.1986    4.2620    1.2937 O   0  0  0  0  0  0  0  0  0  0  0  0
   12.6266    3.9337   -0.5262 N   0  0  0  0  0  0  0  0  0  0  0  0
   11.6993    4.0678   -1.6586 C   0  0  2  0  0  0  0  0  0  0  0  0
   12.4776    4.2521   -2.9685 C   0  0  0  0  0  0  0  0  0  0  0  0
   10.7454    5.2219   -1.4692 C   0  0  0  0  0  0  0  0  0  0  0  0
   11.1243    6.2600   -0.8642 O   0  0  0  0  0  0  0  0  0  0  0  0
    9.4735    5.2213   -2.1292 N   0  0  0  0  0  0  0  0  0  0  0  0
    8.2630    4.5906   -1.5846 C   0  0  2  0  0  0  0  0  0  0  0  0
    8.5327    3.2216   -0.9457 C   0  0  0  0  0  0  0  0  0  0  0  0
    7.2566    4.4185   -2.6999 C   0  0  0  0  0  0  0  0  0  0  0  0
    7.6122    3.7992   -3.7401 O   0  0  0  0  0  0  0  0  0  0  0  0
    5.9149    4.9338   -2.6321 N   0  0  0  0  0  0  0  0  0  0  0  0
    5.3201    5.5691   -1.4519 C   0  0  1  0  0  0  0  0  0  0  0  0
    5.8505    6.9723   -1.3112 C   0  0  0  0  0  0  0  0  0  0  0  0
    6.2884    7.4580   -0.0402 N   0  0  0  0  0  0  0  0  0  0  0  0
    5.8987    7.7309   -2.3141 O   0  0  0  0  0  0  0  0  0  0  0  0
    3.7842    5.5890   -1.5958 C   0  0  0  0  0  0  0  0  0  0  0  0
    2.9638    6.1834   -0.0726 S   0  0  0  0  0  0  0  0  0  0  0  0
    2.8676    4.5657    0.7867 C   0  0  0  0  0  0  0  0  0  0  0  0
   -2.9384   10.1803   -0.4634 H   0  0  0  0  0  0  0  0  0  0  0  0
   -3.2626    8.4257   -0.4691 H   0  0  0  0  0  0  0  0  0  0  0  0
   -3.9755    9.4757    0.8331 H   0  0  0  0  0  0  0  0  0  0  0  0
   -0.1187    7.9556    1.2450 H   0  0  0  0  0  0  0  0  0  0  0  0
   -0.8941    5.8876    1.7058 H   0  0  0  0  0  0  0  0  0  0  0  0
   -1.8875    6.2130   -0.6873 H   0  0  0  0  0  0  0  0  0  0  0  0
   -3.4745    6.3092    0.1152 H   0  0  0  0  0  0  0  0  0  0  0  0
   -1.6788    4.4127   -1.8854 H   0  0  0  0  0  0  0  0  0  0  0  0
   -2.2869    2.7704   -1.5698 H   0  0  0  0  0  0  0  0  0  0  0  0
    0.3197    5.0646   -0.0444 H   0  0  0  0  0  0  0  0  0  0  0  0
    3.2829    1.9673    0.1033 H   0  0  0  0  0  0  0  0  0  0  0  0
   -0.5908    1.1544   -1.5795 H   0  0  0  0  0  0  0  0  0  0  0  0
    2.8175   -0.2117   -0.5914 H   0  0  0  0  0  0  0  0  0  0  0  0
    1.8403   -0.1933   -2.0889 H   0  0  0  0  0  0  0  0  0  0  0  0
    2.6375   -2.4690   -0.0145 H   0  0  0  0  0  0  0  0  0  0  0  0
    2.1660   -1.6258    1.5155 H   0  0  0  0  0  0  0  0  0  0  0  0
    0.8046   -4.0657    0.2451 H   0  0  0  0  0  0  0  0  0  0  0  0
    0.1202   -2.5276    2.7891 H   0  0  0  0  0  0  0  0  0  0  0  0
   -1.2373   -4.5363   -0.1265 H   0  0  0  0  0  0  0  0  0  0  0  0
   -1.7293   -6.4962    2.2111 H   0  0  0  0  0  0  0  0  0  0  0  0
   -1.4208   -6.9342    0.4807 H   0  0  0  0  0  0  0  0  0  0  0  0
   -0.1317   -6.1639    1.4551 H   0  0  0  0  0  0  0  0  0  0  0  0
   -3.5790   -3.8556    0.2656 H   0  0  0  0  0  0  0  0  0  0  0  0
   -5.1963   -5.5386   -1.3203 H   0  0  0  0  0  0  0  0  0  0  0  0
   -3.6404   -6.5145   -3.0391 H   0  0  0  0  0  0  0  0  0  0  0  0
   -2.4481   -6.8538   -1.7342 H   0  0  0  0  0  0  0  0  0  0  0  0
   -2.9255   -5.1476   -2.1138 H   0  0  0  0  0  0  0  0  0  0  0  0
   -4.3319   -8.4270   -0.7497 H   0  0  0  0  0  0  0  0  0  0  0  0
   -7.2553   -6.1551   -1.3070 H   0  0  0  0  0  0  0  0  0  0  0  0
   -6.0705   -6.1809   -3.5145 H   0  0  0  0  0  0  0  0  0  0  0  0
   -7.8298   -5.8573   -3.6956 H   0  0  0  0  0  0  0  0  0  0  0  0
   -7.1697   -7.4979   -4.0776 H   0  0  0  0  0  0  0  0  0  0  0  0
   -8.8839   -8.4372   -2.4863 H   0  0  0  0  0  0  0  0  0  0  0  0
  -10.6449   -6.0481    0.5418 H   0  0  0  0  0  0  0  0  0  0  0  0
   -8.6247   -5.9523    1.9964 H   0  0  0  0  0  0  0  0  0  0  0  0
   -7.6680   -6.8564    0.7775 H   0  0  0  0  0  0  0  0  0  0  0  0
   -9.0874   -7.6324    1.5660 H   0  0  0  0  0  0  0  0  0  0  0  0
   -8.8982   -4.6840   -1.3882 H   0  0  0  0  0  0  0  0  0  0  0  0
  -11.4437   -3.7786    0.5193 H   0  0  0  0  0  0  0  0  0  0  0  0
   -9.8381   -3.0518    3.0465 H   0  0  0  0  0  0  0  0  0  0  0  0
  -11.6395   -3.1693    2.9368 H   0  0  0  0  0  0  0  0  0  0  0  0
  -10.6332   -4.6376    2.6719 H   0  0  0  0  0  0  0  0  0  0  0  0
  -10.4312   -1.1226    1.4914 H   0  0  0  0  0  0  0  0  0  0  0  0
  -12.3101   -0.8049   -2.1712 H   0  0  0  0  0  0  0  0  0  0  0  0
  -14.2590   -2.1056   -1.4842 H   0  0  0  0  0  0  0  0  0  0  0  0
  -12.7887   -3.1515   -1.4974 H   0  0  0  0  0  0  0  0  0  0  0  0
  -13.4775   -2.5577    0.0727 H   0  0  0  0  0  0  0  0  0  0  0  0
  -13.3311   -0.0889    0.6176 H   0  0  0  0  0  0  0  0  0  0  0  0
  -11.6898    1.4306   -2.2014 H   0  0  0  0  0  0  0  0  0  0  0  0
  -14.4238    2.1776   -3.4378 H   0  0  0  0  0  0  0  0  0  0  0  0
  -13.4765    0.6633   -3.7298 H   0  0  0  0  0  0  0  0  0  0  0  0
  -12.8245    2.2566   -4.2744 H   0  0  0  0  0  0  0  0  0  0  0  0
  -13.3616    3.9416   -1.7585 H   0  0  0  0  0  0  0  0  0  0  0  0
  -10.6171    5.6899   -0.5396 H   0  0  0  0  0  0  0  0  0  0  0  0
  -12.9740    4.1873    0.7340 H   0  0  0  0  0  0  0  0  0  0  0  0
  -13.0271    5.7182   -0.2427 H   0  0  0  0  0  0  0  0  0  0  0  0
  -12.2247    5.7008    1.3628 H   0  0  0  0  0  0  0  0  0  0  0  0
  -10.5993    3.1028    1.1058 H   0  0  0  0  0  0  0  0  0  0  0  0
   -8.5566    6.0154   -0.1256 H   0  0  0  0  0  0  0  0  0  0  0  0
   -9.0199    6.7454    2.8404 H   0  0  0  0  0  0  0  0  0  0  0  0
  -10.1414    7.0180    1.4663 H   0  0  0  0  0  0  0  0  0  0  0  0
   -8.5848    7.9122    1.5303 H   0  0  0  0  0  0  0  0  0  0  0  0
   -6.3310    5.8617    0.2907 H   0  0  0  0  0  0  0  0  0  0  0  0
   -4.9089    7.3988    1.4778 H   0  0  0  0  0  0  0  0  0  0  0  0
   -4.3443    8.7368    3.4605 H   0  0  0  0  0  0  0  0  0  0  0  0
   -6.1303    8.6525    3.2644 H   0  0  0  0  0  0  0  0  0  0  0  0
   -5.3022    7.6415    4.5256 H   0  0  0  0  0  0  0  0  0  0  0  0
   -4.0242    5.3385    3.4926 H   0  0  0  0  0  0  0  0  0  0  0  0
    2.6072   -6.4301    1.8565 H   0  0  0  0  0  0  0  0  0  0  0  0
    3.8969   -4.4121    0.0186 H   0  0  0  0  0  0  0  0  0  0  0  0
    1.9807   -5.2131   -1.3304 H   0  0  0  0  0  0  0  0  0  0  0  0
    2.4129   -6.9316   -0.9760 H   0  0  0  0  0  0  0  0  0  0  0  0
    3.5018   -5.8975   -1.9845 H   0  0  0  0  0  0  0  0  0  0  0  0
    4.9675   -6.0106    2.5340 H   0  0  0  0  0  0  0  0  0  0  0  0
    7.2543   -5.8484    2.7935 H   0  0  0  0  0  0  0  0  0  0  0  0
    8.2383   -4.1139    1.4147 H   0  0  0  0  0  0  0  0  0  0  0  0
    6.5215   -3.7227    1.7149 H   0  0  0  0  0  0  0  0  0  0  0  0
    6.9970   -4.3710    0.1083 H   0  0  0  0  0  0  0  0  0  0  0  0
    9.8581   -7.2968    0.9255 H   0  0  0  0  0  0  0  0  0  0  0  0
    9.2331   -4.8591   -0.5162 H   0  0  0  0  0  0  0  0  0  0  0  0
    8.6771   -5.8237   -2.7684 H   0  0  0  0  0  0  0  0  0  0  0  0
    7.3765   -6.0736   -1.5575 H   0  0  0  0  0  0  0  0  0  0  0  0
    8.4610   -7.4441   -1.9924 H   0  0  0  0  0  0  0  0  0  0  0  0
   12.5720   -5.2626   -1.8893 H   0  0  0  0  0  0  0  0  0  0  0  0
   13.0870   -3.8220   -0.2317 H   0  0  0  0  0  0  0  0  0  0  0  0
   10.5898   -4.6444    1.3762 H   0  0  0  0  0  0  0  0  0  0  0  0
   12.0374   -3.8218    1.9762 H   0  0  0  0  0  0  0  0  0  0  0  0
   12.1713   -5.5204    1.4136 H   0  0  0  0  0  0  0  0  0  0  0  0
   10.8482   -0.7952   -0.0193 H   0  0  0  0  0  0  0  0  0  0  0  0
   13.6418   -1.4761   -0.5626 H   0  0  0  0  0  0  0  0  0  0  0  0
   13.8952   -2.5837    1.5326 H   0  0  0  0  0  0  0  0  0  0  0  0
   14.3701   -0.9189    1.9321 H   0  0  0  0  0  0  0  0  0  0  0  0
   12.7208   -1.4860    2.3696 H   0  0  0  0  0  0  0  0  0  0  0  0
   11.6248    0.7676    1.7337 H   0  0  0  0  0  0  0  0  0  0  0  0
   13.9606    2.6163    1.4220 H   0  0  0  0  0  0  0  0  0  0  0  0
   13.1749    1.8965    3.6488 H   0  0  0  0  0  0  0  0  0  0  0  0
   13.0663    3.6923    3.4521 H   0  0  0  0  0  0  0  0  0  0  0  0
   11.5677    2.6785    3.3718 H   0  0  0  0  0  0  0  0  0  0  0  0
   13.6518    3.8319   -0.7196 H   0  0  0  0  0  0  0  0  0  0  0  0
   11.1283    3.1250   -1.7459 H   0  0  0  0  0  0  0  0  0  0  0  0
   13.1195    3.3637   -3.1495 H   0  0  0  0  0  0  0  0  0  0  0  0
   13.1159    5.1563   -2.9169 H   0  0  0  0  0  0  0  0  0  0  0  0
   11.7737    4.3524   -3.8197 H   0  0  0  0  0  0  0  0  0  0  0  0
    9.3043    6.0469   -2.7510 H   0  0  0  0  0  0  0  0  0  0  0  0
    7.8669    5.2501   -0.7910 H   0  0  0  0  0  0  0  0  0  0  0  0
    8.9339    2.5033   -1.6906 H   0  0  0  0  0  0  0  0  0  0  0  0
    7.5862    2.8071   -0.5340 H   0  0  0  0  0  0  0  0  0  0  0  0
    9.2438    3.3169   -0.1009 H   0  0  0  0  0  0  0  0  0  0  0  0
    5.3194    4.8023   -3.4838 H   0  0  0  0  0  0  0  0  0  0  0  0
    5.5723    4.9669   -0.5525 H   0  0  0  0  0  0  0  0  0  0  0  0
    6.1702    6.8879    0.8205 H   0  0  0  0  0  0  0  0  0  0  0  0
    6.6520    8.4332    0.0449 H   0  0  0  0  0  0  0  0  0  0  0  0
    3.4181    4.5750   -1.8606 H   0  0  0  0  0  0  0  0  0  0  0  0
    3.4952    6.2667   -2.4248 H   0  0  0  0  0  0  0  0  0  0  0  0
    2.5087    4.7442    1.8209 H   0  0  0  0  0  0  0  0  0  0  0  0
    3.8821    4.1188    0.8649 H   0  0  0  0  0  0  0  0  0  0  0  0
  1  2  1  0
  2  3  2  0
  2  4  1  0
  4  5  1  0
  5  6  1  0
  6  7  1  0
  7  8  1  0
  8  9  1  0
  9 10  2  0
 10 11  1  0
 11 12  2  0
 12 13  1  0
 13 14  2  0
 13 15  1  0
 15 16  1  0
 16 17  1  0
 17 18  1  0
 18 19  1  0
 19 20  1  0
 20 21  2  0
 20 22  1  0
 22 23  1  0
 22 24  1  0
 24 25  1  0
 25 26  2  0
 25 27  1  0
 27 28  1  0
 27 29  1  0
 29 30  1  0
 30 31  2  0
 30 32  1  0
 32 33  1  0
 32 34  1  0
 34 35  1  0
 35 36  2  0
 35 37  1  0
 37 38  1  0
 37 39  1  0
 39 40  1  0
 40 41  2  0
 40 42  1  0
 42 43  1  0
 42 44  1  0
 44 45  1  0
 45 46  2  0
 45 47  1  0
 47 48  1  0
 47 49  1  0
 49 50  1  0
 50 51  2  0
 50 52  1  0
 52 53  1  0
 52 54  1  0
 54 55  1  0
 55 56  2  0
 55 57  1  0
 57 58  1  0
 57 59  1  0
 59 60  1  0
 60 61  2  0
 60 62  1  0
 62 63  1  0
 62 64  1  0
 64 65  1  0
 65 66  2  0
 65 67  1  0
 67 68  1  0
 67 69  1  0
 69 70  1  0
 70 71  2  0
 18 72  1  0
 72 73  2  0
 72 74  1  0
 74 75  1  0
 75 76  1  0
 75 77  1  0
 77 78  2  0
 77 79  1  0
 79 80  1  0
 80 81  1  0
 80 82  1  0
 82 83  2  0
 82 84  1  0
 84 85  1  0
 85 86  1  0
 85 87  1  0
 87 88  2  0
 87 89  1  0
 89 90  1  0
 90 91  1  0
 90 92  1  0
 92 93  2  0
 92 94  1  0
 94 95  1  0
 95 96  1  0
 95 97  1  0
 97 98  2  0
 97 99  1  0
 99100  1  0
100101  1  0
100102  1  0
102103  2  0
102104  1  0
104105  1  0
105106  1  0
105107  1  0
107108  2  0
107109  1  0
109110  1  0
110111  1  0
110112  1  0
112113  2  0
112114  1  0
114115  1  0
115116  1  0
116117  1  0
116118  2  0
115119  1  0
119120  1  0
120121  1  0
 70  5  1  0
 14  9  1  0
121 11  1  0
  1122  1  0
  1123  1  0
  1124  1  0
  4125  1  0
  5126  1  1
  6127  1  0
  6128  1  0
  8129  1  0
  8130  1  0
 10131  1  0
 12132  1  0
 14133  1  0
 15134  1  0
 15135  1  0
 17136  1  0
 17137  1  0
 18138  1  6
 19139  1  0
 22140  1  6
 23141  1  0
 23142  1  0
 23143  1  0
 24144  1  0
 27145  1  6
 28146  1  0
 28147  1  0
 28148  1  0
 29149  1  0
 32150  1  1
 33151  1  0
 33152  1  0
 33153  1  0
 34154  1  0
 37155  1  1
 38156  1  0
 38157  1  0
 38158  1  0
 39159  1  0
 42160  1  6
 43161  1  0
 43162  1  0
 43163  1  0
 44164  1  0
 47165  1  6
 48166  1  0
 48167  1  0
 48168  1  0
 49169  1  0
 52170  1  6
 53171  1  0
 53172  1  0
 53173  1  0
 54174  1  0
 57175  1  6
 58176  1  0
 58177  1  0
 58178  1  0
 59179  1  0
 62180  1  6
 63181  1  0
 63182  1  0
 63183  1  0
 64184  1  0
 67185  1  6
 68186  1  0
 68187  1  0
 68188  1  0
 69189  1  0
 74190  1  0
 75191  1  6
 76192  1  0
 76193  1  0
 76194  1  0
 79195  1  0
 80196  1  1
 81197  1  0
 81198  1  0
 81199  1  0
 84200  1  0
 85201  1  1
 86202  1  0
 86203  1  0
 86204  1  0
 89205  1  0
 90206  1  1
 91207  1  0
 91208  1  0
 91209  1  0
 94210  1  0
 95211  1  6
 96212  1  0
 96213  1  0
 96214  1  0
 99215  1  0
100216  1  1
101217  1  0
101218  1  0
101219  1  0
104220  1  0
105221  1  6
106222  1  0
106223  1  0
106224  1  0
109225  1  0
110226  1  1
111227  1  0
111228  1  0
111229  1  0
114230  1  0
115231  1  1
117232  1  0
117233  1  0
119234  1  0
119235  1  0
121236  1  0
121237  1  0
M  END
