
     RDKit          3D

247249  0  0  0  0  0  0  0  0999 V2000
   -2.9906   -9.9805   -1.2345 C   0  0  0  0  0  0  0  0  0  0  0  0
   -2.9844   -8.6425   -0.5767 C   0  0  0  0  0  0  0  0  0  0  0  0
   -2.4951   -8.5126    0.5779 O   0  0  0  0  0  0  0  0  0  0  0  0
   -3.5521   -7.5171   -1.2593 N   0  0  0  0  0  0  0  0  0  0  0  0
   -3.9904   -6.2901   -0.5762 C   0  0  2  0  0  0  0  0  0  0  0  0
   -2.7603   -5.4686   -0.1415 C   0  0  0  0  0  0  0  0  0  0  0  0
   -3.2418   -3.7511    0.3221 S   0  0  0  0  0  0  0  0  0  0  0  0
   -1.8167   -2.8690   -0.4230 C   0  0  0  0  0  0  0  0  0  0  0  0
   -0.6609   -2.7741    0.5442 C   0  0  0  0  0  0  0  0  0  0  0  0
    0.1070   -3.9092    0.8378 C   0  0  0  0  0  0  0  0  0  0  0  0
    1.1710   -3.8405    1.7476 C   0  0  0  0  0  0  0  0  0  0  0  0
    1.4859   -2.6090    2.3419 C   0  0  0  0  0  0  0  0  0  0  0  0
    0.7763   -1.4450    2.0103 C   0  0  0  0  0  0  0  0  0  0  0  0
   -0.3099   -1.5386    1.1147 C   0  0  0  0  0  0  0  0  0  0  0  0
    1.2506   -0.1449    2.6289 C   0  0  0  0  0  0  0  0  0  0  0  0
    0.1627    1.3088    2.3787 S   0  0  0  0  0  0  0  0  0  0  0  0
    0.7321    1.7676    0.6981 C   0  0  0  0  0  0  0  0  0  0  0  0
    0.6812    3.3016    0.5156 C   0  0  2  0  0  0  0  0  0  0  0  0
   -0.7069    3.7666    0.4810 N   0  0  0  0  0  0  0  0  0  0  0  0
   -1.3223    4.3794    1.6246 C   0  0  0  0  0  0  0  0  0  0  0  0
   -2.0554    3.6804    2.3750 O   0  0  0  0  0  0  0  0  0  0  0  0
   -1.2091    5.8606    1.8756 C   0  0  1  0  0  0  0  0  0  0  0  0
    0.2155    6.2533    2.2708 C   0  0  0  0  0  0  0  0  0  0  0  0
   -1.6470    6.6248    0.6969 N   0  0  0  0  0  0  0  0  0  0  0  0
   -3.0252    6.7776    0.2836 C   0  0  0  0  0  0  0  0  0  0  0  0
   -3.2764    7.5142   -0.7012 O   0  0  0  0  0  0  0  0  0  0  0  0
   -4.1636    6.0515    0.9682 C   0  0  1  0  0  0  0  0  0  0  0  0
   -5.2855    7.0152    1.3628 C   0  0  0  0  0  0  0  0  0  0  0  0
   -4.6075    4.9163    0.1439 N   0  0  0  0  0  0  0  0  0  0  0  0
   -5.8250    4.8014   -0.6182 C   0  0  0  0  0  0  0  0  0  0  0  0
   -6.4140    3.6850   -0.6347 O   0  0  0  0  0  0  0  0  0  0  0  0
   -6.3459    5.9213   -1.4934 C   0  0  1  0  0  0  0  0  0  0  0  0
   -6.7565    5.4042   -2.8709 C   0  0  0  0  0  0  0  0  0  0  0  0
   -7.4751    6.6459   -0.8947 N   0  0  0  0  0  0  0  0  0  0  0  0
   -8.5074    6.0422   -0.1005 C   0  0  0  0  0  0  0  0  0  0  0  0
   -8.2104    5.2301    0.8138 O   0  0  0  0  0  0  0  0  0  0  0  0
   -9.9707    6.3676   -0.2986 C   0  0  1  0  0  0  0  0  0  0  0  0
  -10.2273    7.5103   -1.2827 C   0  0  0  0  0  0  0  0  0  0  0  0
  -10.6688    5.1664   -0.7579 N   0  0  0  0  0  0  0  0  0  0  0  0
  -11.5430    4.4467    0.1177 C   0  0  0  0  0  0  0  0  0  0  0  0
  -11.0674    3.8691    1.1369 O   0  0  0  0  0  0  0  0  0  0  0  0
  -13.0145    4.3477   -0.1710 C   0  0  1  0  0  0  0  0  0  0  0  0
  -13.5381    5.6270   -0.8332 C   0  0  0  0  0  0  0  0  0  0  0  0
  -13.2715    3.2031   -1.0434 N   0  0  0  0  0  0  0  0  0  0  0  0
  -14.1454    2.1071   -0.7198 C   0  0  0  0  0  0  0  0  0  0  0  0
  -14.5757    1.3855   -1.6604 O   0  0  0  0  0  0  0  0  0  0  0  0
  -14.5578    1.8057    0.7084 C   0  0  1  0  0  0  0  0  0  0  0  0
  -15.4984    0.5976    0.8308 C   0  0  0  0  0  0  0  0  0  0  0  0
  -13.3911    1.6385    1.5925 N   0  0  0  0  0  0  0  0  0  0  0  0
  -12.4626    0.5342    1.5847 C   0  0  0  0  0  0  0  0  0  0  0  0
  -11.8413    0.2661    2.6491 O   0  0  0  0  0  0  0  0  0  0  0  0
  -12.0861   -0.2061    0.3250 C   0  0  1  0  0  0  0  0  0  0  0  0
  -10.8138    0.4081   -0.2832 C   0  0  0  0  0  0  0  0  0  0  0  0
  -11.9748   -1.6464    0.6029 N   0  0  0  0  0  0  0  0  0  0  0  0
  -10.7647   -2.4134    0.4781 C   0  0  0  0  0  0  0  0  0  0  0  0
   -9.7018   -1.9939    0.9977 O   0  0  0  0  0  0  0  0  0  0  0  0
  -10.7610   -3.6878   -0.3260 C   0  0  1  0  0  0  0  0  0  0  0  0
   -9.7660   -3.5276   -1.4867 C   0  0  0  0  0  0  0  0  0  0  0  0
  -10.3935   -4.8242    0.5230 N   0  0  0  0  0  0  0  0  0  0  0  0
  -10.2503   -6.1634   -0.0023 C   0  0  0  0  0  0  0  0  0  0  0  0
  -10.7811   -6.4625   -1.1026 O   0  0  0  0  0  0  0  0  0  0  0  0
   -9.4002   -7.1694    0.7332 C   0  0  1  0  0  0  0  0  0  0  0  0
  -10.0511   -7.6177    2.0426 C   0  0  0  0  0  0  0  0  0  0  0  0
   -9.1468   -8.3408   -0.1157 N   0  0  0  0  0  0  0  0  0  0  0  0
   -7.9069   -8.6542   -0.7771 C   0  0  0  0  0  0  0  0  0  0  0  0
   -7.7820   -9.7903   -1.3074 O   0  0  0  0  0  0  0  0  0  0  0  0
   -6.7684   -7.6654   -0.9357 C   0  0  1  0  0  0  0  0  0  0  0  0
   -7.2545   -6.3596   -1.5909 C   0  0  0  0  0  0  0  0  0  0  0  0
   -6.1107   -7.4302    0.3658 N   0  0  0  0  0  0  0  0  0  0  0  0
   -4.9295   -6.6374    0.5669 C   0  0  0  0  0  0  0  0  0  0  0  0
   -4.6503   -6.2725    1.7432 O   0  0  0  0  0  0  0  0  0  0  0  0
    1.3864    3.7553   -0.7444 C   0  0  0  0  0  0  0  0  0  0  0  0
    1.9043    2.9178   -1.5397 O   0  0  0  0  0  0  0  0  0  0  0  0
    1.4962    5.1533   -1.0348 N   0  0  0  0  0  0  0  0  0  0  0  0
    2.7781    5.8500   -0.9148 C   0  0  2  0  0  0  0  0  0  0  0  0
    2.5943    7.3505   -1.1404 C   0  0  0  0  0  0  0  0  0  0  0  0
    3.7750    5.3007   -1.9071 C   0  0  0  0  0  0  0  0  0  0  0  0
    3.4525    5.3051   -3.1258 O   0  0  0  0  0  0  0  0  0  0  0  0
    5.0777    4.7809   -1.5564 N   0  0  0  0  0  0  0  0  0  0  0  0
    5.6926    4.6029   -0.2313 C   0  0  2  0  0  0  0  0  0  0  0  0
    4.8964    3.6531    0.6703 C   0  0  0  0  0  0  0  0  0  0  0  0
    6.0401    5.9153    0.4375 C   0  0  0  0  0  0  0  0  0  0  0  0
    5.1396    6.6698    0.8895 O   0  0  0  0  0  0  0  0  0  0  0  0
    7.4047    6.2748    0.6523 N   0  0  0  0  0  0  0  0  0  0  0  0
    8.1533    7.0717   -0.3234 C   0  0  2  0  0  0  0  0  0  0  0  0
    8.0657    6.5013   -1.7444 C   0  0  0  0  0  0  0  0  0  0  0  0
    9.6008    7.2280    0.0975 C   0  0  0  0  0  0  0  0  0  0  0  0
   10.0274    8.3844    0.3623 O   0  0  0  0  0  0  0  0  0  0  0  0
   10.5289    6.1264    0.1469 N   0  0  0  0  0  0  0  0  0  0  0  0
   10.1800    4.7512    0.5213 C   0  0  2  0  0  0  0  0  0  0  0  0
   10.2816    4.6009    2.0440 C   0  0  0  0  0  0  0  0  0  0  0  0
   11.0883    3.8026   -0.2273 C   0  0  0  0  0  0  0  0  0  0  0  0
   11.0011    3.7621   -1.4853 O   0  0  0  0  0  0  0  0  0  0  0  0
   12.0550    2.9798    0.4552 N   0  0  0  0  0  0  0  0  0  0  0  0
   13.3785    2.6417   -0.0831 C   0  0  2  0  0  0  0  0  0  0  0  0
   14.0147    3.8117   -0.8446 C   0  0  0  0  0  0  0  0  0  0  0  0
   13.3075    1.4014   -0.9293 C   0  0  0  0  0  0  0  0  0  0  0  0
   12.4094    1.2791   -1.8107 O   0  0  0  0  0  0  0  0  0  0  0  0
   14.3116    0.3964   -0.8097 N   0  0  0  0  0  0  0  0  0  0  0  0
   13.9802   -0.9647   -0.3867 C   0  0  2  0  0  0  0  0  0  0  0  0
   14.4001   -1.1380    1.0768 C   0  0  0  0  0  0  0  0  0  0  0  0
   14.6687   -1.9738   -1.2820 C   0  0  0  0  0  0  0  0  0  0  0  0
   15.7459   -1.6587   -1.8490 O   0  0  0  0  0  0  0  0  0  0  0  0
   14.0921   -3.2641   -1.5634 N   0  0  0  0  0  0  0  0  0  0  0  0
   13.3555   -4.0562   -0.5602 C   0  0  2  0  0  0  0  0  0  0  0  0
   14.3647   -4.8470    0.2821 C   0  0  0  0  0  0  0  0  0  0  0  0
   12.3769   -5.0119   -1.2046 C   0  0  0  0  0  0  0  0  0  0  0  0
   12.4557   -5.2515   -2.4423 O   0  0  0  0  0  0  0  0  0  0  0  0
   11.3914   -5.7157   -0.4280 N   0  0  0  0  0  0  0  0  0  0  0  0
   10.5247   -5.0818    0.5752 C   0  0  2  0  0  0  0  0  0  0  0  0
   11.2325   -4.9678    1.9359 C   0  0  0  0  0  0  0  0  0  0  0  0
    9.2462   -5.8935    0.7283 C   0  0  0  0  0  0  0  0  0  0  0  0
    9.1390   -6.6984    1.6925 O   0  0  0  0  0  0  0  0  0  0  0  0
    8.1972   -5.8667   -0.2465 N   0  0  0  0  0  0  0  0  0  0  0  0
    7.8064   -4.6941   -1.0400 C   0  0  2  0  0  0  0  0  0  0  0  0
    7.4250   -3.4973   -0.1510 C   0  0  0  0  0  0  0  0  0  0  0  0
    6.6687   -5.0454   -1.9826 C   0  0  0  0  0  0  0  0  0  0  0  0
    6.9035   -5.0293   -3.2221 O   0  0  0  0  0  0  0  0  0  0  0  0
    5.3303   -5.3742   -1.5503 N   0  0  0  0  0  0  0  0  0  0  0  0
    4.9219   -5.7305   -0.1820 C   0  0  2  0  0  0  0  0  0  0  0  0
    4.2829   -7.0958   -0.1784 C   0  0  0  0  0  0  0  0  0  0  0  0
    4.7160   -8.0963    0.7459 N   0  0  0  0  0  0  0  0  0  0  0  0
    3.3375   -7.3564   -0.9727 O   0  0  0  0  0  0  0  0  0  0  0  0
    3.9369   -4.6827    0.3537 C   0  0  0  0  0  0  0  0  0  0  0  0
    3.7108   -4.8968    2.1575 S   0  0  0  0  0  0  0  0  0  0  0  0
    1.8934   -5.1039    2.1472 C   0  0  0  0  0  0  0  0  0  0  0  0
   -4.0428  -10.2755   -1.4337 H   0  0  0  0  0  0  0  0  0  0  0  0
   -2.4393   -9.9419   -2.1951 H   0  0  0  0  0  0  0  0  0  0  0  0
   -2.5245  -10.7361   -0.5698 H   0  0  0  0  0  0  0  0  0  0  0  0
   -3.7787   -7.6158   -2.2731 H   0  0  0  0  0  0  0  0  0  0  0  0
   -4.5427   -5.6628   -1.2997 H   0  0  0  0  0  0  0  0  0  0  0  0
   -2.2543   -5.9466    0.7239 H   0  0  0  0  0  0  0  0  0  0  0  0
   -2.0414   -5.4596   -0.9908 H   0  0  0  0  0  0  0  0  0  0  0  0
   -2.1723   -1.8528   -0.6846 H   0  0  0  0  0  0  0  0  0  0  0  0
   -1.4913   -3.3325   -1.3794 H   0  0  0  0  0  0  0  0  0  0  0  0
   -0.1365   -4.8602    0.3804 H   0  0  0  0  0  0  0  0  0  0  0  0
    2.3019   -2.5517    3.0562 H   0  0  0  0  0  0  0  0  0  0  0  0
   -0.9015   -0.6671    0.8748 H   0  0  0  0  0  0  0  0  0  0  0  0
    2.2858    0.0773    2.2843 H   0  0  0  0  0  0  0  0  0  0  0  0
    1.3250   -0.2946    3.7267 H   0  0  0  0  0  0  0  0  0  0  0  0
    0.0807    1.2800   -0.0520 H   0  0  0  0  0  0  0  0  0  0  0  0
    1.7694    1.4186    0.5377 H   0  0  0  0  0  0  0  0  0  0  0  0
    1.2197    3.7594    1.3721 H   0  0  0  0  0  0  0  0  0  0  0  0
   -1.3433    3.3588   -0.2373 H   0  0  0  0  0  0  0  0  0  0  0  0
   -1.8452    6.1420    2.7463 H   0  0  0  0  0  0  0  0  0  0  0  0
    0.2445    7.3339    2.5375 H   0  0  0  0  0  0  0  0  0  0  0  0
    0.5423    5.6673    3.1581 H   0  0  0  0  0  0  0  0  0  0  0  0
    0.9236    6.0810    1.4430 H   0  0  0  0  0  0  0  0  0  0  0  0
   -0.9358    7.1549    0.1478 H   0  0  0  0  0  0  0  0  0  0  0  0
   -3.8253    5.6271    1.9331 H   0  0  0  0  0  0  0  0  0  0  0  0
   -6.1499    6.4538    1.7747 H   0  0  0  0  0  0  0  0  0  0  0  0
   -4.9169    7.6980    2.1595 H   0  0  0  0  0  0  0  0  0  0  0  0
   -5.6040    7.6536    0.5156 H   0  0  0  0  0  0  0  0  0  0  0  0
   -4.0717    4.0238    0.2725 H   0  0  0  0  0  0  0  0  0  0  0  0
   -5.5137    6.6422   -1.6581 H   0  0  0  0  0  0  0  0  0  0  0  0
   -5.9082    4.8743   -3.3571 H   0  0  0  0  0  0  0  0  0  0  0  0
   -7.6215    4.7065   -2.7882 H   0  0  0  0  0  0  0  0  0  0  0  0
   -7.0555    6.2540   -3.5233 H   0  0  0  0  0  0  0  0  0  0  0  0
   -7.6188    7.6137   -1.2461 H   0  0  0  0  0  0  0  0  0  0  0  0
  -10.3834    6.6818    0.6851 H   0  0  0  0  0  0  0  0  0  0  0  0
   -9.7911    7.2788   -2.2784 H   0  0  0  0  0  0  0  0  0  0  0  0
  -11.3220    7.6616   -1.4141 H   0  0  0  0  0  0  0  0  0  0  0  0
   -9.7962    8.4552   -0.8965 H   0  0  0  0  0  0  0  0  0  0  0  0
  -10.4785    4.7811   -1.7127 H   0  0  0  0  0  0  0  0  0  0  0  0
  -13.5460    4.2497    0.7980 H   0  0  0  0  0  0  0  0  0  0  0  0
  -13.3045    6.5078   -0.2007 H   0  0  0  0  0  0  0  0  0  0  0  0
  -14.6369    5.5621   -0.9530 H   0  0  0  0  0  0  0  0  0  0  0  0
  -13.0794    5.7694   -1.8346 H   0  0  0  0  0  0  0  0  0  0  0  0
  -12.8529    3.2134   -1.9994 H   0  0  0  0  0  0  0  0  0  0  0  0
  -15.1454    2.6753    1.0710 H   0  0  0  0  0  0  0  0  0  0  0  0
  -16.4413    0.7882    0.2672 H   0  0  0  0  0  0  0  0  0  0  0  0
  -15.0343   -0.3304    0.4378 H   0  0  0  0  0  0  0  0  0  0  0  0
  -15.7634    0.4313    1.9002 H   0  0  0  0  0  0  0  0  0  0  0  0
  -13.3266    2.2983    2.4044 H   0  0  0  0  0  0  0  0  0  0  0  0
  -12.8791   -0.0963   -0.4314 H   0  0  0  0  0  0  0  0  0  0  0  0
   -9.9978    0.4556    0.4655 H   0  0  0  0  0  0  0  0  0  0  0  0
  -10.4813   -0.1795   -1.1625 H   0  0  0  0  0  0  0  0  0  0  0  0
  -11.0266    1.4432   -0.6223 H   0  0  0  0  0  0  0  0  0  0  0  0
  -12.8758   -2.1746    0.6799 H   0  0  0  0  0  0  0  0  0  0  0  0
  -11.7716   -3.8600   -0.7527 H   0  0  0  0  0  0  0  0  0  0  0  0
  -10.0083   -2.6138   -2.0747 H   0  0  0  0  0  0  0  0  0  0  0  0
   -9.8159   -4.3950   -2.1783 H   0  0  0  0  0  0  0  0  0  0  0  0
   -8.7279   -3.4411   -1.1012 H   0  0  0  0  0  0  0  0  0  0  0  0
  -10.4607   -4.7218    1.5680 H   0  0  0  0  0  0  0  0  0  0  0  0
   -8.4563   -6.6607    1.0037 H   0  0  0  0  0  0  0  0  0  0  0  0
  -11.0232   -8.1268    1.8519 H   0  0  0  0  0  0  0  0  0  0  0  0
  -10.2164   -6.7544    2.7236 H   0  0  0  0  0  0  0  0  0  0  0  0
   -9.3682   -8.3285    2.5635 H   0  0  0  0  0  0  0  0  0  0  0  0
   -9.9428   -9.0003   -0.2675 H   0  0  0  0  0  0  0  0  0  0  0  0
   -6.0326   -8.1363   -1.6243 H   0  0  0  0  0  0  0  0  0  0  0  0
   -7.4487   -5.5767   -0.8284 H   0  0  0  0  0  0  0  0  0  0  0  0
   -8.1790   -6.5202   -2.1891 H   0  0  0  0  0  0  0  0  0  0  0  0
   -6.4896   -5.9759   -2.3005 H   0  0  0  0  0  0  0  0  0  0  0  0
   -6.5283   -7.8639    1.2203 H   0  0  0  0  0  0  0  0  0  0  0  0
    0.6111    5.7084   -1.0466 H   0  0  0  0  0  0  0  0  0  0  0  0
    3.1248    5.7223    0.1185 H   0  0  0  0  0  0  0  0  0  0  0  0
    1.8978    7.7674   -0.3800 H   0  0  0  0  0  0  0  0  0  0  0  0
    3.5643    7.8839   -1.0516 H   0  0  0  0  0  0  0  0  0  0  0  0
    2.1624    7.5478   -2.1462 H   0  0  0  0  0  0  0  0  0  0  0  0
    5.6482    4.4362   -2.3617 H   0  0  0  0  0  0  0  0  0  0  0  0
    6.6647    4.0837   -0.4027 H   0  0  0  0  0  0  0  0  0  0  0  0
    4.4554    2.8291    0.0663 H   0  0  0  0  0  0  0  0  0  0  0  0
    4.0900    4.1606    1.2343 H   0  0  0  0  0  0  0  0  0  0  0  0
    5.5756    3.1979    1.4214 H   0  0  0  0  0  0  0  0  0  0  0  0
    7.6664    6.4113    1.6555 H   0  0  0  0  0  0  0  0  0  0  0  0
    7.6947    8.0870   -0.3507 H   0  0  0  0  0  0  0  0  0  0  0  0
    7.0282    6.5816   -2.1223 H   0  0  0  0  0  0  0  0  0  0  0  0
    8.3807    5.4390   -1.7803 H   0  0  0  0  0  0  0  0  0  0  0  0
    8.7133    7.0913   -2.4321 H   0  0  0  0  0  0  0  0  0  0  0  0
   11.5435    6.3766    0.1756 H   0  0  0  0  0  0  0  0  0  0  0  0
    9.1409    4.5144    0.2239 H   0  0  0  0  0  0  0  0  0  0  0  0
   11.3279    4.7630    2.3834 H   0  0  0  0  0  0  0  0  0  0  0  0
    9.9400    3.5923    2.3592 H   0  0  0  0  0  0  0  0  0  0  0  0
    9.6322    5.3515    2.5454 H   0  0  0  0  0  0  0  0  0  0  0  0
   11.7419    2.4539    1.3071 H   0  0  0  0  0  0  0  0  0  0  0  0
   14.0449    2.4274    0.7816 H   0  0  0  0  0  0  0  0  0  0  0  0
   15.0728    3.5710   -1.0765 H   0  0  0  0  0  0  0  0  0  0  0  0
   13.9979    4.7299   -0.2175 H   0  0  0  0  0  0  0  0  0  0  0  0
   13.4876    4.0078   -1.8002 H   0  0  0  0  0  0  0  0  0  0  0  0
   15.3082    0.7118   -0.7132 H   0  0  0  0  0  0  0  0  0  0  0  0
   12.8808   -1.1126   -0.4647 H   0  0  0  0  0  0  0  0  0  0  0  0
   15.5003   -1.0520    1.1762 H   0  0  0  0  0  0  0  0  0  0  0  0
   13.9232   -0.3518    1.6939 H   0  0  0  0  0  0  0  0  0  0  0  0
   14.0722   -2.1127    1.4800 H   0  0  0  0  0  0  0  0  0  0  0  0
   14.5031   -3.7854   -2.3725 H   0  0  0  0  0  0  0  0  0  0  0  0
   12.7747   -3.3678    0.0737 H   0  0  0  0  0  0  0  0  0  0  0  0
   15.0739   -5.3962   -0.3744 H   0  0  0  0  0  0  0  0  0  0  0  0
   14.9527   -4.1640    0.9291 H   0  0  0  0  0  0  0  0  0  0  0  0
   13.8555   -5.5815    0.9417 H   0  0  0  0  0  0  0  0  0  0  0  0
   11.1186   -6.6588   -0.7877 H   0  0  0  0  0  0  0  0  0  0  0  0
   10.2779   -4.0570    0.2359 H   0  0  0  0  0  0  0  0  0  0  0  0
   12.0572   -4.2312    1.9235 H   0  0  0  0  0  0  0  0  0  0  0  0
   11.6431   -5.9548    2.2477 H   0  0  0  0  0  0  0  0  0  0  0  0
   10.5148   -4.6144    2.7085 H   0  0  0  0  0  0  0  0  0  0  0  0
    7.6636   -6.7564   -0.3712 H   0  0  0  0  0  0  0  0  0  0  0  0
    8.6814   -4.3872   -1.6594 H   0  0  0  0  0  0  0  0  0  0  0  0
    8.3305   -2.9687    0.2091 H   0  0  0  0  0  0  0  0  0  0  0  0
    6.8228   -2.7588   -0.7258 H   0  0  0  0  0  0  0  0  0  0  0  0
    6.8451   -3.8129    0.7361 H   0  0  0  0  0  0  0  0  0  0  0  0
    4.5889   -5.3716   -2.2845 H   0  0  0  0  0  0  0  0  0  0  0  0
    5.7897   -5.7581    0.4913 H   0  0  0  0  0  0  0  0  0  0  0  0
    4.2409   -9.0245    0.7778 H   0  0  0  0  0  0  0  0  0  0  0  0
    5.4849   -7.9011    1.4253 H   0  0  0  0  0  0  0  0  0  0  0  0
    4.3580   -3.6699    0.2006 H   0  0  0  0  0  0  0  0  0  0  0  0
    2.9781   -4.7307   -0.2017 H   0  0  0  0  0  0  0  0  0  0  0  0
    1.5685   -5.3853    3.1695 H   0  0  0  0  0  0  0  0  0  0  0  0
    1.6325   -5.9499    1.4763 H   0  0  0  0  0  0  0  0  0  0  0  0
  1  2  1  0
  2  3  2  0
  2  4  1  0
  4  5  1  0
  5  6  1  0
  6  7  1  0
  7  8  1  0
  8  9  1  0
  9 10  2  0
 10 11  1  0
 11 12  2  0
 12 13  1  0
 13 14  2  0
 13 15  1  0
 15 16  1  0
 16 17  1  0
 17 18  1  0
 18 19  1  0
 19 20  1  0
 20 21  2  0
 20 22  1  0
 22 23  1  0
 22 24  1  0
 24 25  1  0
 25 26  2  0
 25 27  1  0
 27 28  1  0
 27 29  1  0
 29 30  1  0
 30 31  2  0
 30 32  1  0
 32 33  1  0
 32 34  1  0
 34 35  1  0
 35 36  2  0
 35 37  1  0
 37 38  1  0
 37 39  1  0
 39 40  1  0
 40 41  2  0
 40 42  1  0
 42 43  1  0
 42 44  1  0
 44 45  1  0
 45 46  2  0
 45 47  1  0
 47 48  1  0
 47 49  1  0
 49 50  1  0
 50 51  2  0
 50 52  1  0
 52 53  1  0
 52 54  1  0
 54 55  1  0
 55 56  2  0
 55 57  1  0
 57 58  1  0
 57 59  1  0
 59 60  1  0
 60 61  2  0
 60 62  1  0
 62 63  1  0
 62 64  1  0
 64 65  1  0
 65 66  2  0
 65 67  1  0
 67 68  1  0
 67 69  1  0
 69 70  1  0
 70 71  2  0
 18 72  1  0
 72 73  2  0
 72 74  1  0
 74 75  1  0
 75 76  1  0
 75 77  1  0
 77 78  2  0
 77 79  1  0
 79 80  1  0
 80 81  1  0
 80 82  1  0
 82 83  2  0
 82 84  1  0
 84 85  1  0
 85 86  1  0
 85 87  1  0
 87 88  2  0
 87 89  1  0
 89 90  1  0
 90 91  1  0
 90 92  1  0
 92 93  2  0
 92 94  1  0
 94 95  1  0
 95 96  1  0
 95 97  1  0
 97 98  2  0
 97 99  1  0
 99100  1  0
100101  1  0
100102  1  0
102103  2  0
102104  1  0
104105  1  0
105106  1  0
105107  1  0
107108  2  0
107109  1  0
109110  1  0
110111  1  0
110112  1  0
112113  2  0
112114  1  0
114115  1  0
115116  1  0
115117  1  0
117118  2  0
117119  1  0
119120  1  0
120121  1  0
121122  1  0
121123  2  0
120124  1  0
124125  1  0
125126  1  0
 70  5  1  0
 14  9  1  0
126 11  1  0
  1127  1  0
  1128  1  0
  1129  1  0
  4130  1  0
  5131  1  6
  6132  1  0
  6133  1  0
  8134  1  0
  8135  1  0
 10136  1  0
 12137  1  0
 14138  1  0
 15139  1  0
 15140  1  0
 17141  1  0
 17142  1  0
 18143  1  1
 19144  1  0
 22145  1  1
 23146  1  0
 23147  1  0
 23148  1  0
 24149  1  0
 27150  1  1
 28151  1  0
 28152  1  0
 28153  1  0
 29154  1  0
 32155  1  6
 33156  1  0
 33157  1  0
 33158  1  0
 34159  1  0
 37160  1  1
 38161  1  0
 38162  1  0
 38163  1  0
 39164  1  0
 42165  1  1
 43166  1  0
 43167  1  0
 43168  1  0
 44169  1  0
 47170  1  1
 48171  1  0
 48172  1  0
 48173  1  0
 49174  1  0
 52175  1  6
 53176  1  0
 53177  1  0
 53178  1  0
 54179  1  0
 57180  1  6
 58181  1  0
 58182  1  0
 58183  1  0
 59184  1  0
 62185  1  1
 63186  1  0
 63187  1  0
 63188  1  0
 64189  1  0
 67190  1  6
 68191  1  0
 68192  1  0
 68193  1  0
 69194  1  0
 74195  1  0
 75196  1  1
 76197  1  0
 76198  1  0
 76199  1  0
 79200  1  0
 80201  1  6
 81202  1  0
 81203  1  0
 81204  1  0
 84205  1  0
 85206  1  6
 86207  1  0
 86208  1  0
 86209  1  0
 89210  1  0
 90211  1  6
 91212  1  0
 91213  1  0
 91214  1  0
 94215  1  0
 95216  1  1
 96217  1  0
 96218  1  0
 96219  1  0
 99220  1  0
100221  1  1
101222  1  0
101223  1  0
101224  1  0
104225  1  0
105226  1  1
106227  1  0
106228  1  0
106229  1  0
109230  1  0
110231  1  6
111232  1  0
111233  1  0
111234  1  0
114235  1  0
115236  1  6
116237  1  0
116238  1  0
116239  1  0
119240  1  0
120241  1  1
122242  1  0
122243  1  0
124244  1  0
124245  1  0
126246  1  0
126247  1  0
M  END
