
     RDKit          3D

237239  0  0  0  0  0  0  0  0999 V2000
    2.8834   -9.1820    1.9843 C   0  0  0  0  0  0  0  0  0  0  0  0
    1.9198   -9.0166    0.8436 C   0  0  0  0  0  0  0  0  0  0  0  0
    0.8100   -9.6036    0.9312 O   0  0  0  0  0  0  0  0  0  0  0  0
    2.2047   -8.2344   -0.3364 N   0  0  0  0  0  0  0  0  0  0  0  0
    3.2968   -7.2576   -0.5106 C   0  0  1  0  0  0  0  0  0  0  0  0
    3.3178   -6.2152    0.6283 C   0  0  0  0  0  0  0  0  0  0  0  0
    1.6637   -5.6025    1.1074 S   0  0  0  0  0  0  0  0  0  0  0  0
    1.2256   -4.8472   -0.5069 C   0  0  0  0  0  0  0  0  0  0  0  0
    0.3074   -3.6699   -0.3154 C   0  0  0  0  0  0  0  0  0  0  0  0
   -0.9246   -3.8385    0.3347 C   0  0  0  0  0  0  0  0  0  0  0  0
   -1.7912   -2.7488    0.5044 C   0  0  0  0  0  0  0  0  0  0  0  0
   -1.4403   -1.4958   -0.0187 C   0  0  0  0  0  0  0  0  0  0  0  0
   -0.1990   -1.3128   -0.6580 C   0  0  0  0  0  0  0  0  0  0  0  0
    0.6622   -2.4064   -0.8084 C   0  0  0  0  0  0  0  0  0  0  0  0
    0.2020    0.0360   -1.1936 C   0  0  0  0  0  0  0  0  0  0  0  0
    0.3713    1.2509    0.1709 S   0  0  0  0  0  0  0  0  0  0  0  0
   -1.2127    2.1441   -0.0880 C   0  0  0  0  0  0  0  0  0  0  0  0
   -0.9616    3.6088   -0.5161 C   0  0  2  0  0  0  0  0  0  0  0  0
   -0.8257    4.4838    0.6574 N   0  0  0  0  0  0  0  0  0  0  0  0
    0.3906    5.1528    1.0199 C   0  0  0  0  0  0  0  0  0  0  0  0
    0.8258    5.0070    2.1951 O   0  0  0  0  0  0  0  0  0  0  0  0
    1.1712    6.0248    0.0539 C   0  0  1  0  0  0  0  0  0  0  0  0
    0.2819    6.6860   -1.0051 C   0  0  0  0  0  0  0  0  0  0  0  0
    1.8534    7.0865    0.8035 N   0  0  0  0  0  0  0  0  0  0  0  0
    3.2384    7.1275    1.2152 C   0  0  0  0  0  0  0  0  0  0  0  0
    3.5311    7.8199    2.2288 O   0  0  0  0  0  0  0  0  0  0  0  0
    4.3666    6.3996    0.5221 C   0  0  1  0  0  0  0  0  0  0  0  0
    4.3993    4.9063    0.8625 C   0  0  0  0  0  0  0  0  0  0  0  0
    4.3495    6.6176   -0.9285 N   0  0  0  0  0  0  0  0  0  0  0  0
    5.4050    7.2298   -1.7018 C   0  0  0  0  0  0  0  0  0  0  0  0
    5.4768    6.9550   -2.9302 O   0  0  0  0  0  0  0  0  0  0  0  0
    6.3938    8.2299   -1.1410 C   0  0  1  0  0  0  0  0  0  0  0  0
    5.6942    9.4344   -0.5031 C   0  0  0  0  0  0  0  0  0  0  0  0
    7.3389    7.5972   -0.2043 N   0  0  0  0  0  0  0  0  0  0  0  0
    8.2019    6.5319   -0.6351 C   0  0  0  0  0  0  0  0  0  0  0  0
    8.4329    6.3850   -1.8695 O   0  0  0  0  0  0  0  0  0  0  0  0
    8.8763    5.5856    0.3349 C   0  0  1  0  0  0  0  0  0  0  0  0
    8.3996    5.7371    1.7836 C   0  0  0  0  0  0  0  0  0  0  0  0
    8.6224    4.2102   -0.0976 N   0  0  0  0  0  0  0  0  0  0  0  0
    9.6117    3.1739   -0.0416 C   0  0  0  0  0  0  0  0  0  0  0  0
    9.3633    2.1364    0.6304 O   0  0  0  0  0  0  0  0  0  0  0  0
   10.9171    3.2434   -0.7985 C   0  0  1  0  0  0  0  0  0  0  0  0
   10.8542    4.1542   -2.0275 C   0  0  0  0  0  0  0  0  0  0  0  0
   11.9994    3.6676    0.0971 N   0  0  0  0  0  0  0  0  0  0  0  0
   13.1841    2.9021    0.3938 C   0  0  0  0  0  0  0  0  0  0  0  0
   14.1602    3.4999    0.9228 O   0  0  0  0  0  0  0  0  0  0  0  0
   13.3164    1.4320    0.0403 C   0  0  1  0  0  0  0  0  0  0  0  0
   13.8501    1.3053   -1.3903 C   0  0  0  0  0  0  0  0  0  0  0  0
   14.2149    0.7358    0.9836 N   0  0  0  0  0  0  0  0  0  0  0  0
   14.4829   -0.6797    0.9814 C   0  0  0  0  0  0  0  0  0  0  0  0
   15.5181   -1.0905    1.5767 O   0  0  0  0  0  0  0  0  0  0  0  0
   13.5683   -1.7036    0.3387 C   0  0  1  0  0  0  0  0  0  0  0  0
   14.3470   -2.4527   -0.7516 C   0  0  0  0  0  0  0  0  0  0  0  0
   13.0841   -2.6493    1.3587 N   0  0  0  0  0  0  0  0  0  0  0  0
   12.2472   -3.7914    1.0831 C   0  0  0  0  0  0  0  0  0  0  0  0
   12.3341   -4.7977    1.8432 O   0  0  0  0  0  0  0  0  0  0  0  0
   11.1938   -3.7855    0.0003 C   0  0  1  0  0  0  0  0  0  0  0  0
   11.3156   -5.0181   -0.9028 C   0  0  0  0  0  0  0  0  0  0  0  0
    9.8538   -3.6778    0.5902 N   0  0  0  0  0  0  0  0  0  0  0  0
    9.2788   -4.7020    1.4142 C   0  0  0  0  0  0  0  0  0  0  0  0
    9.3078   -4.5701    2.6695 O   0  0  0  0  0  0  0  0  0  0  0  0
    8.5032   -5.8367    0.7972 C   0  0  1  0  0  0  0  0  0  0  0  0
    8.7623   -7.1578    1.5228 C   0  0  0  0  0  0  0  0  0  0  0  0
    7.0794   -5.5149    0.8434 N   0  0  0  0  0  0  0  0  0  0  0  0
    6.4143   -4.9730   -0.3036 C   0  0  0  0  0  0  0  0  0  0  0  0
    6.1585   -3.7383   -0.3361 O   0  0  0  0  0  0  0  0  0  0  0  0
    5.9563   -5.8555   -1.4342 C   0  0  1  0  0  0  0  0  0  0  0  0
    6.9104   -5.7496   -2.6240 C   0  0  0  0  0  0  0  0  0  0  0  0
    5.8559   -7.2527   -0.9961 N   0  0  0  0  0  0  0  0  0  0  0  0
    4.6338   -7.9579   -0.6989 C   0  0  0  0  0  0  0  0  0  0  0  0
    4.6817   -9.2195   -0.6306 O   0  0  0  0  0  0  0  0  0  0  0  0
   -2.0620    4.1130   -1.4323 C   0  0  0  0  0  0  0  0  0  0  0  0
   -1.8457    4.1199   -2.6724 O   0  0  0  0  0  0  0  0  0  0  0  0
   -3.3018    4.6517   -0.9502 N   0  0  0  0  0  0  0  0  0  0  0  0
   -4.1086    4.0596    0.1196 C   0  0  2  0  0  0  0  0  0  0  0  0
   -5.2055    3.1758   -0.4815 C   0  0  0  0  0  0  0  0  0  0  0  0
   -4.6334    5.1492    1.0187 C   0  0  0  0  0  0  0  0  0  0  0  0
   -3.8391    5.7214    1.8140 O   0  0  0  0  0  0  0  0  0  0  0  0
   -6.0150    5.5260    1.0406 N   0  0  0  0  0  0  0  0  0  0  0  0
   -6.6075    6.3693   -0.0031 C   0  0  2  0  0  0  0  0  0  0  0  0
   -5.8309    7.6866   -0.1462 C   0  0  0  0  0  0  0  0  0  0  0  0
   -8.0558    6.6536    0.3345 C   0  0  0  0  0  0  0  0  0  0  0  0
   -8.3070    7.3827    1.3316 O   0  0  0  0  0  0  0  0  0  0  0  0
   -9.1596    6.1105   -0.4082 N   0  0  0  0  0  0  0  0  0  0  0  0
   -9.0586    5.0865   -1.4584 C   0  0  2  0  0  0  0  0  0  0  0  0
   -8.9125    5.7574   -2.8219 C   0  0  0  0  0  0  0  0  0  0  0  0
  -10.2721    4.1981   -1.4255 C   0  0  0  0  0  0  0  0  0  0  0  0
  -11.4205    4.6708   -1.6601 O   0  0  0  0  0  0  0  0  0  0  0  0
  -10.1310    2.8185   -1.0774 N   0  0  0  0  0  0  0  0  0  0  0  0
  -10.5831    2.3030    0.2179 C   0  0  2  0  0  0  0  0  0  0  0  0
  -10.0274    3.1779    1.3592 C   0  0  0  0  0  0  0  0  0  0  0  0
  -10.1004    0.8853    0.4216 C   0  0  0  0  0  0  0  0  0  0  0  0
   -8.9022    0.6194    0.1327 O   0  0  0  0  0  0  0  0  0  0  0  0
  -10.9132   -0.1552    1.0057 N   0  0  0  0  0  0  0  0  0  0  0  0
  -12.3583   -0.0889    1.2694 C   0  0  2  0  0  0  0  0  0  0  0  0
  -12.6614    0.8030    2.4857 C   0  0  0  0  0  0  0  0  0  0  0  0
  -12.8829   -1.4824    1.5570 C   0  0  0  0  0  0  0  0  0  0  0  0
  -12.4068   -2.1081    2.5431 O   0  0  0  0  0  0  0  0  0  0  0  0
  -13.9085   -2.1170    0.7796 N   0  0  0  0  0  0  0  0  0  0  0  0
  -14.3074   -1.7333   -0.5772 C   0  0  2  0  0  0  0  0  0  0  0  0
  -15.5153   -0.7908   -0.5017 C   0  0  0  0  0  0  0  0  0  0  0  0
  -14.6156   -2.9878   -1.3766 C   0  0  0  0  0  0  0  0  0  0  0  0
  -15.8094   -3.2565   -1.6742 O   0  0  0  0  0  0  0  0  0  0  0  0
  -13.5906   -3.9410   -1.7268 N   0  0  0  0  0  0  0  0  0  0  0  0
  -12.1516   -3.7463   -1.5108 C   0  0  2  0  0  0  0  0  0  0  0  0
  -11.4489   -3.6322   -2.8637 C   0  0  0  0  0  0  0  0  0  0  0  0
  -11.5677   -4.8778   -0.7032 C   0  0  0  0  0  0  0  0  0  0  0  0
  -12.2397   -5.9204   -0.4687 O   0  0  0  0  0  0  0  0  0  0  0  0
  -10.2557   -4.7480   -0.1403 N   0  0  0  0  0  0  0  0  0  0  0  0
   -9.0952   -5.3416   -0.8002 C   0  0  2  0  0  0  0  0  0  0  0  0
   -8.8680   -6.7652   -0.2828 C   0  0  0  0  0  0  0  0  0  0  0  0
   -7.8833   -4.4652   -0.5956 C   0  0  0  0  0  0  0  0  0  0  0  0
   -7.3140   -3.9489   -1.5968 O   0  0  0  0  0  0  0  0  0  0  0  0
   -7.4276   -4.1210    0.7193 N   0  0  0  0  0  0  0  0  0  0  0  0
   -6.5856   -5.0256    1.5075 C   0  0  2  0  0  0  0  0  0  0  0  0
   -7.3133   -5.4661    2.7499 C   0  0  0  0  0  0  0  0  0  0  0  0
   -6.8370   -6.5868    3.5002 N   0  0  0  0  0  0  0  0  0  0  0  0
   -8.3451   -4.8535    3.1422 O   0  0  0  0  0  0  0  0  0  0  0  0
   -5.2732   -4.3269    1.8913 C   0  0  0  0  0  0  0  0  0  0  0  0
   -4.2378   -4.0075    0.4191 S   0  0  0  0  0  0  0  0  0  0  0  0
   -3.0533   -2.9277    1.3035 C   0  0  0  0  0  0  0  0  0  0  0  0
    2.5292   -8.5842    2.8496 H   0  0  0  0  0  0  0  0  0  0  0  0
    2.9199  -10.2525    2.2807 H   0  0  0  0  0  0  0  0  0  0  0  0
    3.9096   -8.8787    1.7272 H   0  0  0  0  0  0  0  0  0  0  0  0
    1.4957   -8.2775   -1.1037 H   0  0  0  0  0  0  0  0  0  0  0  0
    3.0916   -6.7160   -1.4553 H   0  0  0  0  0  0  0  0  0  0  0  0
    3.9124   -5.3373    0.3275 H   0  0  0  0  0  0  0  0  0  0  0  0
    3.8090   -6.6284    1.5290 H   0  0  0  0  0  0  0  0  0  0  0  0
    2.1447   -4.5257   -1.0503 H   0  0  0  0  0  0  0  0  0  0  0  0
    0.7138   -5.6062   -1.1369 H   0  0  0  0  0  0  0  0  0  0  0  0
   -1.2045   -4.8102    0.7187 H   0  0  0  0  0  0  0  0  0  0  0  0
   -2.1134   -0.6607    0.0988 H   0  0  0  0  0  0  0  0  0  0  0  0
    1.6147   -2.2795   -1.3069 H   0  0  0  0  0  0  0  0  0  0  0  0
    1.1945   -0.0270   -1.6869 H   0  0  0  0  0  0  0  0  0  0  0  0
   -0.5105    0.3609   -1.9820 H   0  0  0  0  0  0  0  0  0  0  0  0
   -1.8584    1.6296   -0.8317 H   0  0  0  0  0  0  0  0  0  0  0  0
   -1.7494    2.0969    0.8780 H   0  0  0  0  0  0  0  0  0  0  0  0
   -0.0124    3.6289   -1.0996 H   0  0  0  0  0  0  0  0  0  0  0  0
   -1.5523    4.4234    1.4004 H   0  0  0  0  0  0  0  0  0  0  0  0
    1.8874    5.3766   -0.4709 H   0  0  0  0  0  0  0  0  0  0  0  0
   -0.5967    7.1741   -0.5363 H   0  0  0  0  0  0  0  0  0  0  0  0
    0.8624    7.4619   -1.5506 H   0  0  0  0  0  0  0  0  0  0  0  0
   -0.0553    5.9468   -1.7521 H   0  0  0  0  0  0  0  0  0  0  0  0
    1.2332    7.8071    1.2429 H   0  0  0  0  0  0  0  0  0  0  0  0
    5.3029    6.8061    0.9428 H   0  0  0  0  0  0  0  0  0  0  0  0
    4.4155    4.7566    1.9653 H   0  0  0  0  0  0  0  0  0  0  0  0
    3.5323    4.3562    0.4569 H   0  0  0  0  0  0  0  0  0  0  0  0
    5.3187    4.4516    0.4352 H   0  0  0  0  0  0  0  0  0  0  0  0
    3.6074    6.1465   -1.4909 H   0  0  0  0  0  0  0  0  0  0  0  0
    6.9880    8.6477   -1.9928 H   0  0  0  0  0  0  0  0  0  0  0  0
    5.0428    9.9305   -1.2557 H   0  0  0  0  0  0  0  0  0  0  0  0
    6.4530   10.1781   -0.1747 H   0  0  0  0  0  0  0  0  0  0  0  0
    5.0759    9.1408    0.3681 H   0  0  0  0  0  0  0  0  0  0  0  0
    7.3114    7.8779    0.7993 H   0  0  0  0  0  0  0  0  0  0  0  0
    9.9666    5.8017    0.3251 H   0  0  0  0  0  0  0  0  0  0  0  0
    8.8668    4.9509    2.4147 H   0  0  0  0  0  0  0  0  0  0  0  0
    8.7038    6.7215    2.2000 H   0  0  0  0  0  0  0  0  0  0  0  0
    7.2954    5.6268    1.8526 H   0  0  0  0  0  0  0  0  0  0  0  0
    7.6249    3.9009   -0.1279 H   0  0  0  0  0  0  0  0  0  0  0  0
   11.1067    2.2247   -1.1945 H   0  0  0  0  0  0  0  0  0  0  0  0
   10.7949    5.2221   -1.7428 H   0  0  0  0  0  0  0  0  0  0  0  0
   11.7740    4.0203   -2.6378 H   0  0  0  0  0  0  0  0  0  0  0  0
    9.9774    3.8896   -2.6590 H   0  0  0  0  0  0  0  0  0  0  0  0
   11.9562    4.6381    0.4814 H   0  0  0  0  0  0  0  0  0  0  0  0
   12.3144    0.9702    0.1204 H   0  0  0  0  0  0  0  0  0  0  0  0
   13.7230    0.2716   -1.7618 H   0  0  0  0  0  0  0  0  0  0  0  0
   13.2963    1.9750   -2.0811 H   0  0  0  0  0  0  0  0  0  0  0  0
   14.9260    1.5765   -1.4217 H   0  0  0  0  0  0  0  0  0  0  0  0
   14.7741    1.2975    1.6626 H   0  0  0  0  0  0  0  0  0  0  0  0
   12.6996   -1.2000   -0.1181 H   0  0  0  0  0  0  0  0  0  0  0  0
   13.6633   -3.0552   -1.3793 H   0  0  0  0  0  0  0  0  0  0  0  0
   14.8738   -1.7397   -1.4190 H   0  0  0  0  0  0  0  0  0  0  0  0
   15.0948   -3.1349   -0.2897 H   0  0  0  0  0  0  0  0  0  0  0  0
   13.4856   -2.5974    2.3239 H   0  0  0  0  0  0  0  0  0  0  0  0
   11.3365   -2.9057   -0.6562 H   0  0  0  0  0  0  0  0  0  0  0  0
   11.2283   -5.9563   -0.3149 H   0  0  0  0  0  0  0  0  0  0  0  0
   12.3002   -5.0271   -1.4167 H   0  0  0  0  0  0  0  0  0  0  0  0
   10.5252   -4.9986   -1.6826 H   0  0  0  0  0  0  0  0  0  0  0  0
    9.5001   -2.7049    0.7554 H   0  0  0  0  0  0  0  0  0  0  0  0
    8.8241   -5.9606   -0.2513 H   0  0  0  0  0  0  0  0  0  0  0  0
    8.3093   -7.1456    2.5373 H   0  0  0  0  0  0  0  0  0  0  0  0
    9.8550   -7.3338    1.6187 H   0  0  0  0  0  0  0  0  0  0  0  0
    8.3274   -7.9969    0.9449 H   0  0  0  0  0  0  0  0  0  0  0  0
    6.6338   -5.3527    1.7747 H   0  0  0  0  0  0  0  0  0  0  0  0
    4.9676   -5.4914   -1.7770 H   0  0  0  0  0  0  0  0  0  0  0  0
    7.9075   -6.1745   -2.3814 H   0  0  0  0  0  0  0  0  0  0  0  0
    7.0366   -4.6886   -2.9303 H   0  0  0  0  0  0  0  0  0  0  0  0
    6.4938   -6.3088   -3.4904 H   0  0  0  0  0  0  0  0  0  0  0  0
    6.7444   -7.8116   -0.9518 H   0  0  0  0  0  0  0  0  0  0  0  0
   -3.7879    5.3410   -1.5762 H   0  0  0  0  0  0  0  0  0  0  0  0
   -3.4931    3.4008    0.7548 H   0  0  0  0  0  0  0  0  0  0  0  0
   -5.8788    2.7968    0.3197 H   0  0  0  0  0  0  0  0  0  0  0  0
   -5.8081    3.7246   -1.2296 H   0  0  0  0  0  0  0  0  0  0  0  0
   -4.7380    2.3037   -0.9877 H   0  0  0  0  0  0  0  0  0  0  0  0
   -6.5126    5.4290    1.9561 H   0  0  0  0  0  0  0  0  0  0  0  0
   -6.5275    5.8511   -0.9748 H   0  0  0  0  0  0  0  0  0  0  0  0
   -5.7705    8.2119    0.8331 H   0  0  0  0  0  0  0  0  0  0  0  0
   -4.8008    7.4943   -0.5134 H   0  0  0  0  0  0  0  0  0  0  0  0
   -6.3350    8.3493   -0.8855 H   0  0  0  0  0  0  0  0  0  0  0  0
  -10.1112    6.4715   -0.1659 H   0  0  0  0  0  0  0  0  0  0  0  0
   -8.1788    4.4428   -1.2726 H   0  0  0  0  0  0  0  0  0  0  0  0
   -7.9941    6.3833   -2.8470 H   0  0  0  0  0  0  0  0  0  0  0  0
   -9.7844    6.4123   -3.0358 H   0  0  0  0  0  0  0  0  0  0  0  0
   -8.8349    4.9851   -3.6147 H   0  0  0  0  0  0  0  0  0  0  0  0
   -9.9550    2.1506   -1.8663 H   0  0  0  0  0  0  0  0  0  0  0  0
  -11.6915    2.3498    0.2321 H   0  0  0  0  0  0  0  0  0  0  0  0
  -10.5040    4.1804    1.3415 H   0  0  0  0  0  0  0  0  0  0  0  0
  -10.2459    2.7158    2.3471 H   0  0  0  0  0  0  0  0  0  0  0  0
   -8.9287    3.2950    1.2598 H   0  0  0  0  0  0  0  0  0  0  0  0
  -10.4278   -1.0693    1.1554 H   0  0  0  0  0  0  0  0  0  0  0  0
  -12.8727    0.3464    0.3909 H   0  0  0  0  0  0  0  0  0  0  0  0
  -13.7348    0.7184    2.7517 H   0  0  0  0  0  0  0  0  0  0  0  0
  -12.0434    0.5002    3.3626 H   0  0  0  0  0  0  0  0  0  0  0  0
  -12.4665    1.8701    2.2742 H   0  0  0  0  0  0  0  0  0  0  0  0
  -14.3436   -2.9757    1.1946 H   0  0  0  0  0  0  0  0  0  0  0  0
  -13.4867   -1.2004   -1.0967 H   0  0  0  0  0  0  0  0  0  0  0  0
  -15.8375   -0.4992   -1.5264 H   0  0  0  0  0  0  0  0  0  0  0  0
  -16.3655   -1.2808    0.0226 H   0  0  0  0  0  0  0  0  0  0  0  0
  -15.2495    0.1350    0.0515 H   0  0  0  0  0  0  0  0  0  0  0  0
  -13.8958   -4.7979   -2.2417 H   0  0  0  0  0  0  0  0  0  0  0  0
  -11.9560   -2.8173   -0.9474 H   0  0  0  0  0  0  0  0  0  0  0  0
  -10.3783   -3.3840   -2.7213 H   0  0  0  0  0  0  0  0  0  0  0  0
  -11.9159   -2.8152   -3.4544 H   0  0  0  0  0  0  0  0  0  0  0  0
  -11.5387   -4.5782   -3.4355 H   0  0  0  0  0  0  0  0  0  0  0  0
  -10.1946   -4.5294    0.8803 H   0  0  0  0  0  0  0  0  0  0  0  0
   -9.2870   -5.4145   -1.8924 H   0  0  0  0  0  0  0  0  0  0  0  0
   -9.7208   -7.4056   -0.5884 H   0  0  0  0  0  0  0  0  0  0  0  0
   -7.9383   -7.1923   -0.7162 H   0  0  0  0  0  0  0  0  0  0  0  0
   -8.8102   -6.7802    0.8201 H   0  0  0  0  0  0  0  0  0  0  0  0
   -7.5572   -3.1342    1.0423 H   0  0  0  0  0  0  0  0  0  0  0  0
   -6.3418   -5.9311    0.9104 H   0  0  0  0  0  0  0  0  0  0  0  0
   -7.3394   -6.8931    4.3607 H   0  0  0  0  0  0  0  0  0  0  0  0
   -6.0019   -7.1255    3.1857 H   0  0  0  0  0  0  0  0  0  0  0  0
   -4.6896   -4.9708    2.5857 H   0  0  0  0  0  0  0  0  0  0  0  0
   -5.4987   -3.3695    2.4075 H   0  0  0  0  0  0  0  0  0  0  0  0
   -2.7792   -3.3721    2.2873 H   0  0  0  0  0  0  0  0  0  0  0  0
   -3.5403   -1.9502    1.5014 H   0  0  0  0  0  0  0  0  0  0  0  0
  1  2  1  0
  2  3  2  0
  2  4  1  0
  4  5  1  0
  5  6  1  0
  6  7  1  0
  7  8  1  0
  8  9  1  0
  9 10  2  0
 10 11  1  0
 11 12  2  0
 12 13  1  0
 13 14  2  0
 13 15  1  0
 15 16  1  0
 16 17  1  0
 17 18  1  0
 18 19  1  0
 19 20  1  0
 20 21  2  0
 20 22  1  0
 22 23  1  0
 22 24  1  0
 24 25  1  0
 25 26  2  0
 25 27  1  0
 27 28  1  0
 27 29  1  0
 29 30  1  0
 30 31  2  0
 30 32  1  0
 32 33  1  0
 32 34  1  0
 34 35  1  0
 35 36  2  0
 35 37  1  0
 37 38  1  0
 37 39  1  0
 39 40  1  0
 40 41  2  0
 40 42  1  0
 42 43  1  0
 42 44  1  0
 44 45  1  0
 45 46  2  0
 45 47  1  0
 47 48  1  0
 47 49  1  0
 49 50  1  0
 50 51  2  0
 50 52  1  0
 52 53  1  0
 52 54  1  0
 54 55  1  0
 55 56  2  0
 55 57  1  0
 57 58  1  0
 57 59  1  0
 59 60  1  0
 60 61  2  0
 60 62  1  0
 62 63  1  0
 62 64  1  0
 64 65  1  0
 65 66  2  0
 65 67  1  0
 67 68  1  0
 67 69  1  0
 69 70  1  0
 70 71  2  0
 18 72  1  0
 72 73  2  0
 72 74  1  0
 74 75  1  0
 75 76  1  0
 75 77  1  0
 77 78  2  0
 77 79  1  0
 79 80  1  0
 80 81  1  0
 80 82  1  0
 82 83  2  0
 82 84  1  0
 84 85  1  0
 85 86  1  0
 85 87  1  0
 87 88  2  0
 87 89  1  0
 89 90  1  0
 90 91  1  0
 90 92  1  0
 92 93  2  0
 92 94  1  0
 94 95  1  0
 95 96  1  0
 95 97  1  0
 97 98  2  0
 97 99  1  0
 99100  1  0
100101  1  0
100102  1  0
102103  2  0
102104  1  0
104105  1  0
105106  1  0
105107  1  0
107108  2  0
107109  1  0
109110  1  0
110111  1  0
110112  1  0
112113  2  0
112114  1  0
114115  1  0
115116  1  0
116117  1  0
116118  2  0
115119  1  0
119120  1  0
120121  1  0
 70  5  1  0
 14  9  1  0
121 11  1  0
  1122  1  0
  1123  1  0
  1124  1  0
  4125  1  0
  5126  1  6
  6127  1  0
  6128  1  0
  8129  1  0
  8130  1  0
 10131  1  0
 12132  1  0
 14133  1  0
 15134  1  0
 15135  1  0
 17136  1  0
 17137  1  0
 18138  1  6
 19139  1  0
 22140  1  6
 23141  1  0
 23142  1  0
 23143  1  0
 24144  1  0
 27145  1  1
 28146  1  0
 28147  1  0
 28148  1  0
 29149  1  0
 32150  1  6
 33151  1  0
 33152  1  0
 33153  1  0
 34154  1  0
 37155  1  1
 38156  1  0
 38157  1  0
 38158  1  0
 39159  1  0
 42160  1  6
 43161  1  0
 43162  1  0
 43163  1  0
 44164  1  0
 47165  1  6
 48166  1  0
 48167  1  0
 48168  1  0
 49169  1  0
 52170  1  6
 53171  1  0
 53172  1  0
 53173  1  0
 54174  1  0
 57175  1  6
 58176  1  0
 58177  1  0
 58178  1  0
 59179  1  0
 62180  1  6
 63181  1  0
 63182  1  0
 63183  1  0
 64184  1  0
 67185  1  6
 68186  1  0
 68187  1  0
 68188  1  0
 69189  1  0
 74190  1  0
 75191  1  1
 76192  1  0
 76193  1  0
 76194  1  0
 79195  1  0
 80196  1  6
 81197  1  0
 81198  1  0
 81199  1  0
 84200  1  0
 85201  1  1
 86202  1  0
 86203  1  0
 86204  1  0
 89205  1  0
 90206  1  6
 91207  1  0
 91208  1  0
 91209  1  0
 94210  1  0
 95211  1  6
 96212  1  0
 96213  1  0
 96214  1  0
 99215  1  0
100216  1  6
101217  1  0
101218  1  0
101219  1  0
104220  1  0
105221  1  1
106222  1  0
106223  1  0
106224  1  0
109225  1  0
110226  1  6
111227  1  0
111228  1  0
111229  1  0
114230  1  0
115231  1  6
117232  1  0
117233  1  0
119234  1  0
119235  1  0
121236  1  0
121237  1  0
M  END
