
     RDKit          3D

167169  0  0  0  0  0  0  0  0999 V2000
  -11.4265    0.4767    2.6296 C   0  0  0  0  0  0  0  0  0  0  0  0
   -9.9551    0.5178    2.3651 C   0  0  0  0  0  0  0  0  0  0  0  0
   -9.1606    0.3487    3.3247 O   0  0  0  0  0  0  0  0  0  0  0  0
   -9.4268    0.6981    1.0424 N   0  0  0  0  0  0  0  0  0  0  0  0
  -10.2393    1.0115   -0.1371 C   0  0  1  0  0  0  0  0  0  0  0  0
  -10.3533    2.5462   -0.3093 C   0  0  0  0  0  0  0  0  0  0  0  0
   -8.9399    3.3196   -1.1981 S   0  0  0  0  0  0  0  0  0  0  0  0
   -7.8518    3.6256    0.2416 C   0  0  0  0  0  0  0  0  0  0  0  0
   -6.4317    3.2602   -0.1113 C   0  0  0  0  0  0  0  0  0  0  0  0
   -5.4086    4.2187   -0.0697 C   0  0  0  0  0  0  0  0  0  0  0  0
   -4.0956    3.8825   -0.4678 C   0  0  0  0  0  0  0  0  0  0  0  0
   -3.8101    2.5482   -0.8048 C   0  0  0  0  0  0  0  0  0  0  0  0
   -4.8258    1.5820   -0.8324 C   0  0  0  0  0  0  0  0  0  0  0  0
   -6.1334    1.9569   -0.5190 C   0  0  0  0  0  0  0  0  0  0  0  0
   -4.5265    0.1516   -1.2040 C   0  0  0  0  0  0  0  0  0  0  0  0
   -3.8209   -0.7750    0.2131 S   0  0  0  0  0  0  0  0  0  0  0  0
   -5.3548   -0.9797    1.1996 C   0  0  0  0  0  0  0  0  0  0  0  0
   -6.2838   -2.1160    0.7117 C   0  0  2  0  0  0  0  0  0  0  0  0
   -7.6240   -1.8838    1.2785 N   0  0  0  0  0  0  0  0  0  0  0  0
   -8.8654   -2.1991    0.6280 C   0  0  0  0  0  0  0  0  0  0  0  0
   -9.8521   -2.5248    1.3458 O   0  0  0  0  0  0  0  0  0  0  0  0
   -9.0314   -2.0955   -0.8676 C   0  0  1  0  0  0  0  0  0  0  0  0
  -10.4252   -2.5513   -1.3414 C   0  0  0  0  0  0  0  0  0  0  0  0
   -8.7359   -0.7305   -1.3290 N   0  0  0  0  0  0  0  0  0  0  0  0
   -9.7094    0.3249   -1.3837 C   0  0  0  0  0  0  0  0  0  0  0  0
  -10.1387    0.6884   -2.5133 O   0  0  0  0  0  0  0  0  0  0  0  0
   -5.7827   -3.4673    1.1879 C   0  0  0  0  0  0  0  0  0  0  0  0
   -6.3625   -4.0209    2.1624 O   0  0  0  0  0  0  0  0  0  0  0  0
   -4.6377   -4.1257    0.6290 N   0  0  0  0  0  0  0  0  0  0  0  0
   -4.2296   -4.0698   -0.7771 C   0  0  2  0  0  0  0  0  0  0  0  0
   -5.0857   -5.0417   -1.5918 C   0  0  0  0  0  0  0  0  0  0  0  0
   -2.7468   -4.3637   -0.8597 C   0  0  0  0  0  0  0  0  0  0  0  0
   -1.9431   -3.5307   -0.3620 O   0  0  0  0  0  0  0  0  0  0  0  0
   -2.2407   -5.5816   -1.4299 N   0  0  0  0  0  0  0  0  0  0  0  0
   -1.4580   -6.5692   -0.6766 C   0  0  2  0  0  0  0  0  0  0  0  0
   -2.2094   -7.0156    0.5847 C   0  0  0  0  0  0  0  0  0  0  0  0
   -0.0818   -6.0554   -0.3330 C   0  0  0  0  0  0  0  0  0  0  0  0
    0.0638   -5.1322    0.5137 O   0  0  0  0  0  0  0  0  0  0  0  0
    1.0769   -6.6250   -0.9538 N   0  0  0  0  0  0  0  0  0  0  0  0
    1.8823   -7.6918   -0.3455 C   0  0  2  0  0  0  0  0  0  0  0  0
    1.1387   -9.0280   -0.3955 C   0  0  0  0  0  0  0  0  0  0  0  0
    2.2669   -7.3405    1.0803 C   0  0  0  0  0  0  0  0  0  0  0  0
    1.3742   -7.3627    1.9735 O   0  0  0  0  0  0  0  0  0  0  0  0
    3.6004   -6.9517    1.4659 N   0  0  0  0  0  0  0  0  0  0  0  0
    4.8114   -7.1756    0.6626 C   0  0  2  0  0  0  0  0  0  0  0  0
    5.2311   -8.6458    0.7471 C   0  0  0  0  0  0  0  0  0  0  0  0
    5.9492   -6.2759    1.0930 C   0  0  0  0  0  0  0  0  0  0  0  0
    5.9496   -5.7289    2.2275 O   0  0  0  0  0  0  0  0  0  0  0  0
    7.0153   -6.0028    0.1777 N   0  0  0  0  0  0  0  0  0  0  0  0
    7.4274   -4.6175   -0.0855 C   0  0  2  0  0  0  0  0  0  0  0  0
    6.5779   -4.0701   -1.2391 C   0  0  0  0  0  0  0  0  0  0  0  0
    8.9000   -4.5546   -0.4251 C   0  0  0  0  0  0  0  0  0  0  0  0
    9.4439   -5.5388   -0.9993 O   0  0  0  0  0  0  0  0  0  0  0  0
    9.7115   -3.4087   -0.1058 N   0  0  0  0  0  0  0  0  0  0  0  0
    9.2063   -2.0299   -0.0872 C   0  0  2  0  0  0  0  0  0  0  0  0
    9.3281   -1.4217   -1.4865 C   0  0  0  0  0  0  0  0  0  0  0  0
    9.9735   -1.1827    0.8927 C   0  0  0  0  0  0  0  0  0  0  0  0
   11.1806   -1.4399    1.1565 O   0  0  0  0  0  0  0  0  0  0  0  0
    9.3462   -0.0403    1.4908 N   0  0  0  0  0  0  0  0  0  0  0  0
    9.6767    1.3324    1.0872 C   0  0  2  0  0  0  0  0  0  0  0  0
   11.1946    1.5528    0.9814 C   0  0  0  0  0  0  0  0  0  0  0  0
    9.0929    2.3164    2.0811 C   0  0  0  0  0  0  0  0  0  0  0  0
    9.4383    2.2178    3.2908 O   0  0  0  0  0  0  0  0  0  0  0  0
    8.1764    3.3670    1.7114 N   0  0  0  0  0  0  0  0  0  0  0  0
    7.6099    3.5663    0.3714 C   0  0  2  0  0  0  0  0  0  0  0  0
    8.6315    4.2381   -0.5520 C   0  0  0  0  0  0  0  0  0  0  0  0
    6.3547    4.4019    0.4424 C   0  0  0  0  0  0  0  0  0  0  0  0
    5.2459    3.8719    0.1535 O   0  0  0  0  0  0  0  0  0  0  0  0
    6.4130    5.7903    0.7957 N   0  0  0  0  0  0  0  0  0  0  0  0
    5.4134    6.7406    0.2978 C   0  0  2  0  0  0  0  0  0  0  0  0
    6.0421    8.1228    0.1115 C   0  0  0  0  0  0  0  0  0  0  0  0
    4.2451    6.8351    1.2574 C   0  0  0  0  0  0  0  0  0  0  0  0
    4.4745    6.7115    2.4919 O   0  0  0  0  0  0  0  0  0  0  0  0
    2.9020    7.1537    0.8392 N   0  0  0  0  0  0  0  0  0  0  0  0
    2.4296    7.3212   -0.5396 C   0  0  2  0  0  0  0  0  0  0  0  0
    2.0278    8.7792   -0.7667 C   0  0  0  0  0  0  0  0  0  0  0  0
    1.4069    6.2379   -0.8497 C   0  0  0  0  0  0  0  0  0  0  0  0
    1.8197    5.0498   -0.7853 O   0  0  0  0  0  0  0  0  0  0  0  0
    0.0399    6.4395   -1.2761 N   0  0  0  0  0  0  0  0  0  0  0  0
   -0.8592    7.5580   -0.9446 C   0  0  2  0  0  0  0  0  0  0  0  0
   -0.9498    7.7837    0.5481 C   0  0  0  0  0  0  0  0  0  0  0  0
   -1.4928    9.0035    1.0499 N   0  0  0  0  0  0  0  0  0  0  0  0
   -0.5878    6.8892    1.3576 O   0  0  0  0  0  0  0  0  0  0  0  0
   -2.2528    7.3856   -1.6021 C   0  0  0  0  0  0  0  0  0  0  0  0
   -3.5565    6.6431   -0.5432 S   0  0  0  0  0  0  0  0  0  0  0  0
   -2.9761    4.8999   -0.5598 C   0  0  0  0  0  0  0  0  0  0  0  0
  -11.6307    0.3051    3.7108 H   0  0  0  0  0  0  0  0  0  0  0  0
  -11.8923    1.4378    2.3261 H   0  0  0  0  0  0  0  0  0  0  0  0
  -11.8862   -0.3586    2.0560 H   0  0  0  0  0  0  0  0  0  0  0  0
   -8.3930    0.7269    0.9488 H   0  0  0  0  0  0  0  0  0  0  0  0
  -11.2693    0.6187    0.0048 H   0  0  0  0  0  0  0  0  0  0  0  0
  -10.5085    3.0402    0.6721 H   0  0  0  0  0  0  0  0  0  0  0  0
  -11.2588    2.7608   -0.9190 H   0  0  0  0  0  0  0  0  0  0  0  0
   -7.9384    4.7027    0.5061 H   0  0  0  0  0  0  0  0  0  0  0  0
   -8.1676    3.0432    1.1306 H   0  0  0  0  0  0  0  0  0  0  0  0
   -5.6524    5.2196    0.2586 H   0  0  0  0  0  0  0  0  0  0  0  0
   -2.8013    2.2655   -1.0797 H   0  0  0  0  0  0  0  0  0  0  0  0
   -6.9194    1.2264   -0.6069 H   0  0  0  0  0  0  0  0  0  0  0  0
   -3.7835    0.1376   -2.0311 H   0  0  0  0  0  0  0  0  0  0  0  0
   -5.4326   -0.3604   -1.5862 H   0  0  0  0  0  0  0  0  0  0  0  0
   -5.9035   -0.0184    1.2347 H   0  0  0  0  0  0  0  0  0  0  0  0
   -5.0421   -1.1868    2.2462 H   0  0  0  0  0  0  0  0  0  0  0  0
   -6.3450   -2.1093   -0.3905 H   0  0  0  0  0  0  0  0  0  0  0  0
   -7.6727   -1.7100    2.3073 H   0  0  0  0  0  0  0  0  0  0  0  0
   -8.3043   -2.7952   -1.3384 H   0  0  0  0  0  0  0  0  0  0  0  0
  -10.5938   -3.6145   -1.0719 H   0  0  0  0  0  0  0  0  0  0  0  0
  -11.2247   -1.9353   -0.8797 H   0  0  0  0  0  0  0  0  0  0  0  0
  -10.4961   -2.4620   -2.4473 H   0  0  0  0  0  0  0  0  0  0  0  0
   -7.9094   -0.6277   -1.9628 H   0  0  0  0  0  0  0  0  0  0  0  0
   -4.2536   -4.9137    1.2006 H   0  0  0  0  0  0  0  0  0  0  0  0
   -4.3971   -3.0588   -1.1960 H   0  0  0  0  0  0  0  0  0  0  0  0
   -6.1586   -4.7614   -1.5006 H   0  0  0  0  0  0  0  0  0  0  0  0
   -4.8076   -4.9906   -2.6662 H   0  0  0  0  0  0  0  0  0  0  0  0
   -4.9621   -6.0813   -1.2206 H   0  0  0  0  0  0  0  0  0  0  0  0
   -2.5806   -5.8584   -2.3792 H   0  0  0  0  0  0  0  0  0  0  0  0
   -1.3345   -7.4736   -1.3172 H   0  0  0  0  0  0  0  0  0  0  0  0
   -2.2926   -6.1811    1.3123 H   0  0  0  0  0  0  0  0  0  0  0  0
   -3.2291   -7.3628    0.3162 H   0  0  0  0  0  0  0  0  0  0  0  0
   -1.6743   -7.8539    1.0795 H   0  0  0  0  0  0  0  0  0  0  0  0
    1.3890   -6.2196   -1.8659 H   0  0  0  0  0  0  0  0  0  0  0  0
    2.7821   -7.8310   -0.9741 H   0  0  0  0  0  0  0  0  0  0  0  0
    0.2194   -9.0024    0.2246 H   0  0  0  0  0  0  0  0  0  0  0  0
    1.7960   -9.8410   -0.0193 H   0  0  0  0  0  0  0  0  0  0  0  0
    0.8536   -9.2660   -1.4450 H   0  0  0  0  0  0  0  0  0  0  0  0
    3.7108   -6.6388    2.4577 H   0  0  0  0  0  0  0  0  0  0  0  0
    4.6088   -6.9071   -0.3956 H   0  0  0  0  0  0  0  0  0  0  0  0
    5.5016   -8.9138    1.7922 H   0  0  0  0  0  0  0  0  0  0  0  0
    6.1052   -8.8397    0.0879 H   0  0  0  0  0  0  0  0  0  0  0  0
    4.3978   -9.2991    0.4159 H   0  0  0  0  0  0  0  0  0  0  0  0
    7.1737   -6.7020   -0.5835 H   0  0  0  0  0  0  0  0  0  0  0  0
    7.2451   -4.0042    0.8212 H   0  0  0  0  0  0  0  0  0  0  0  0
    6.7928   -2.9986   -1.4241 H   0  0  0  0  0  0  0  0  0  0  0  0
    6.7706   -4.6461   -2.1720 H   0  0  0  0  0  0  0  0  0  0  0  0
    5.4989   -4.1612   -0.9884 H   0  0  0  0  0  0  0  0  0  0  0  0
   10.7428   -3.5367   -0.2162 H   0  0  0  0  0  0  0  0  0  0  0  0
    8.1407   -2.0112    0.2144 H   0  0  0  0  0  0  0  0  0  0  0  0
    8.8508   -0.4188   -1.5135 H   0  0  0  0  0  0  0  0  0  0  0  0
   10.3956   -1.3221   -1.7757 H   0  0  0  0  0  0  0  0  0  0  0  0
    8.8255   -2.0695   -2.2355 H   0  0  0  0  0  0  0  0  0  0  0  0
    8.3863   -0.1960    1.8766 H   0  0  0  0  0  0  0  0  0  0  0  0
    9.2524    1.4903    0.0772 H   0  0  0  0  0  0  0  0  0  0  0  0
   11.4160    2.6290    0.8036 H   0  0  0  0  0  0  0  0  0  0  0  0
   11.7001    1.2313    1.9156 H   0  0  0  0  0  0  0  0  0  0  0  0
   11.6067    0.9782    0.1256 H   0  0  0  0  0  0  0  0  0  0  0  0
    7.8384    3.9813    2.4874 H   0  0  0  0  0  0  0  0  0  0  0  0
    7.3269    2.5805   -0.0578 H   0  0  0  0  0  0  0  0  0  0  0  0
    9.0027    5.1914   -0.1114 H   0  0  0  0  0  0  0  0  0  0  0  0
    8.1676    4.4577   -1.5389 H   0  0  0  0  0  0  0  0  0  0  0  0
    9.5092    3.5821   -0.7347 H   0  0  0  0  0  0  0  0  0  0  0  0
    7.2689    6.1513    1.2748 H   0  0  0  0  0  0  0  0  0  0  0  0
    5.0929    6.3815   -0.6995 H   0  0  0  0  0  0  0  0  0  0  0  0
    6.3841    8.5294    1.0879 H   0  0  0  0  0  0  0  0  0  0  0  0
    5.3057    8.8250   -0.3293 H   0  0  0  0  0  0  0  0  0  0  0  0
    6.9109    8.0552   -0.5742 H   0  0  0  0  0  0  0  0  0  0  0  0
    2.1934    7.2873    1.5971 H   0  0  0  0  0  0  0  0  0  0  0  0
    3.2469    7.1548   -1.2619 H   0  0  0  0  0  0  0  0  0  0  0  0
    1.2793    9.1190   -0.0245 H   0  0  0  0  0  0  0  0  0  0  0  0
    2.9226    9.4277   -0.6341 H   0  0  0  0  0  0  0  0  0  0  0  0
    1.6761    8.9289   -1.8103 H   0  0  0  0  0  0  0  0  0  0  0  0
   -0.3703    5.6325   -1.7934 H   0  0  0  0  0  0  0  0  0  0  0  0
   -0.4472    8.4757   -1.4018 H   0  0  0  0  0  0  0  0  0  0  0  0
   -1.4825    9.2104    2.0746 H   0  0  0  0  0  0  0  0  0  0  0  0
   -1.9749    9.6620    0.4043 H   0  0  0  0  0  0  0  0  0  0  0  0
   -2.1781    6.8337   -2.5636 H   0  0  0  0  0  0  0  0  0  0  0  0
   -2.6300    8.3953   -1.8716 H   0  0  0  0  0  0  0  0  0  0  0  0
   -2.4294    4.7076   -1.5072 H   0  0  0  0  0  0  0  0  0  0  0  0
   -2.2705    4.7505    0.2877 H   0  0  0  0  0  0  0  0  0  0  0  0
  1  2  1  0
  2  3  2  0
  2  4  1  0
  4  5  1  0
  5  6  1  0
  6  7  1  0
  7  8  1  0
  8  9  1  0
  9 10  1  0
 10 11  2  0
 11 12  1  0
 12 13  2  0
 13 14  1  0
 13 15  1  0
 15 16  1  0
 16 17  1  0
 17 18  1  0
 18 19  1  0
 19 20  1  0
 20 21  2  0
 20 22  1  0
 22 23  1  0
 22 24  1  0
 24 25  1  0
 25 26  2  0
 18 27  1  0
 27 28  2  0
 27 29  1  0
 29 30  1  0
 30 31  1  0
 30 32  1  0
 32 33  2  0
 32 34  1  0
 34 35  1  0
 35 36  1  0
 35 37  1  0
 37 38  2  0
 37 39  1  0
 39 40  1  0
 40 41  1  0
 40 42  1  0
 42 43  2  0
 42 44  1  0
 44 45  1  0
 45 46  1  0
 45 47  1  0
 47 48  2  0
 47 49  1  0
 49 50  1  0
 50 51  1  0
 50 52  1  0
 52 53  2  0
 52 54  1  0
 54 55  1  0
 55 56  1  0
 55 57  1  0
 57 58  2  0
 57 59  1  0
 59 60  1  0
 60 61  1  0
 60 62  1  0
 62 63  2  0
 62 64  1  0
 64 65  1  0
 65 66  1  0
 65 67  1  0
 67 68  2  0
 67 69  1  0
 69 70  1  0
 70 71  1  0
 70 72  1  0
 72 73  2  0
 72 74  1  0
 74 75  1  0
 75 76  1  0
 75 77  1  0
 77 78  2  0
 77 79  1  0
 79 80  1  0
 80 81  1  0
 81 82  1  0
 81 83  2  0
 80 84  1  0
 84 85  1  0
 85 86  1  0
 25  5  1  0
 14  9  2  0
 86 11  1  0
  1 87  1  0
  1 88  1  0
  1 89  1  0
  4 90  1  0
  5 91  1  1
  6 92  1  0
  6 93  1  0
  8 94  1  0
  8 95  1  0
 10 96  1  0
 12 97  1  0
 14 98  1  0
 15 99  1  0
 15100  1  0
 17101  1  0
 17102  1  0
 18103  1  6
 19104  1  0
 22105  1  6
 23106  1  0
 23107  1  0
 23108  1  0
 24109  1  0
 29110  1  0
 30111  1  6
 31112  1  0
 31113  1  0
 31114  1  0
 34115  1  0
 35116  1  6
 36117  1  0
 36118  1  0
 36119  1  0
 39120  1  0
 40121  1  6
 41122  1  0
 41123  1  0
 41124  1  0
 44125  1  0
 45126  1  6
 46127  1  0
 46128  1  0
 46129  1  0
 49130  1  0
 50131  1  1
 51132  1  0
 51133  1  0
 51134  1  0
 54135  1  0
 55136  1  1
 56137  1  0
 56138  1  0
 56139  1  0
 59140  1  0
 60141  1  6
 61142  1  0
 61143  1  0
 61144  1  0
 64145  1  0
 65146  1  6
 66147  1  0
 66148  1  0
 66149  1  0
 69150  1  0
 70151  1  6
 71152  1  0
 71153  1  0
 71154  1  0
 74155  1  0
 75156  1  6
 76157  1  0
 76158  1  0
 76159  1  0
 79160  1  0
 80161  1  6
 82162  1  0
 82163  1  0
 84164  1  0
 84165  1  0
 86166  1  0
 86167  1  0
M  END
