
     RDKit          3D

247249  0  0  0  0  0  0  0  0999 V2000
    2.3958   -8.7546   -2.0096 C   0  0  0  0  0  0  0  0  0  0  0  0
    2.8164   -7.4963   -1.3260 C   0  0  0  0  0  0  0  0  0  0  0  0
    3.0259   -6.4569   -2.0074 O   0  0  0  0  0  0  0  0  0  0  0  0
    2.9901   -7.4796    0.1005 N   0  0  0  0  0  0  0  0  0  0  0  0
    3.2585   -6.2656    0.8820 C   0  0  2  0  0  0  0  0  0  0  0  0
    2.0755   -5.2843    0.7437 C   0  0  0  0  0  0  0  0  0  0  0  0
    1.9844   -4.1534    2.1882 S   0  0  0  0  0  0  0  0  0  0  0  0
    1.9225   -2.5900    1.2363 C   0  0  0  0  0  0  0  0  0  0  0  0
    0.6686   -2.3733    0.4138 C   0  0  0  0  0  0  0  0  0  0  0  0
   -0.4982   -3.1518    0.5559 C   0  0  0  0  0  0  0  0  0  0  0  0
   -1.5903   -2.9684   -0.3110 C   0  0  0  0  0  0  0  0  0  0  0  0
   -1.5465   -1.9443   -1.2670 C   0  0  0  0  0  0  0  0  0  0  0  0
   -0.4259   -1.1069   -1.3719 C   0  0  0  0  0  0  0  0  0  0  0  0
    0.6929   -1.3633   -0.5600 C   0  0  0  0  0  0  0  0  0  0  0  0
   -0.3956   -0.0244   -2.4223 C   0  0  0  0  0  0  0  0  0  0  0  0
    0.4499    1.4940   -1.8453 S   0  0  0  0  0  0  0  0  0  0  0  0
   -0.7992    1.9473   -0.5835 C   0  0  0  0  0  0  0  0  0  0  0  0
   -0.3095    3.1801    0.1907 C   0  0  2  0  0  0  0  0  0  0  0  0
    0.8561    2.8316    1.0150 N   0  0  0  0  0  0  0  0  0  0  0  0
    1.8609    3.7685    1.4285 C   0  0  0  0  0  0  0  0  0  0  0  0
    2.9933    3.3276    1.7637 O   0  0  0  0  0  0  0  0  0  0  0  0
    1.5819    5.2585    1.4897 C   0  0  1  0  0  0  0  0  0  0  0  0
    2.5403    5.9931    2.4337 C   0  0  0  0  0  0  0  0  0  0  0  0
    1.5910    5.8797    0.1617 N   0  0  0  0  0  0  0  0  0  0  0  0
    2.5309    5.5533   -0.8705 C   0  0  0  0  0  0  0  0  0  0  0  0
    2.2569    4.6302   -1.6863 O   0  0  0  0  0  0  0  0  0  0  0  0
    3.8338    6.2991   -1.0178 C   0  0  1  0  0  0  0  0  0  0  0  0
    3.6920    7.7650   -0.5729 C   0  0  0  0  0  0  0  0  0  0  0  0
    4.8991    5.5962   -0.2875 N   0  0  0  0  0  0  0  0  0  0  0  0
    6.1582    6.1906    0.0649 C   0  0  0  0  0  0  0  0  0  0  0  0
    6.4405    6.3099    1.2865 O   0  0  0  0  0  0  0  0  0  0  0  0
    7.2257    6.5290   -0.9542 C   0  0  1  0  0  0  0  0  0  0  0  0
    6.7402    6.5653   -2.4045 C   0  0  0  0  0  0  0  0  0  0  0  0
    7.8279    7.8205   -0.6099 N   0  0  0  0  0  0  0  0  0  0  0  0
    9.1492    8.0289   -0.0683 C   0  0  0  0  0  0  0  0  0  0  0  0
    9.4360    9.1667    0.3872 O   0  0  0  0  0  0  0  0  0  0  0  0
   10.2118    6.9497   -0.0033 C   0  0  1  0  0  0  0  0  0  0  0  0
    9.9225    5.9612    1.1369 C   0  0  0  0  0  0  0  0  0  0  0  0
   10.3663    6.2939   -1.3123 N   0  0  0  0  0  0  0  0  0  0  0  0
   10.9273    4.9906   -1.5274 C   0  0  0  0  0  0  0  0  0  0  0  0
   10.2337    4.1306   -2.1360 O   0  0  0  0  0  0  0  0  0  0  0  0
   12.3462    4.6251   -1.1380 C   0  0  1  0  0  0  0  0  0  0  0  0
   13.2673    5.8440   -0.9905 C   0  0  0  0  0  0  0  0  0  0  0  0
   12.3680    3.8042    0.0747 N   0  0  0  0  0  0  0  0  0  0  0  0
   11.7270    2.5247    0.1269 C   0  0  0  0  0  0  0  0  0  0  0  0
   10.4760    2.4626    0.2977 O   0  0  0  0  0  0  0  0  0  0  0  0
   12.5338    1.2543    0.0618 C   0  0  1  0  0  0  0  0  0  0  0  0
   13.4335    1.2638   -1.1806 C   0  0  0  0  0  0  0  0  0  0  0  0
   13.3438    1.1010    1.2768 N   0  0  0  0  0  0  0  0  0  0  0  0
   13.9707   -0.1215    1.7136 C   0  0  0  0  0  0  0  0  0  0  0  0
   14.7288   -0.0776    2.7182 O   0  0  0  0  0  0  0  0  0  0  0  0
   13.7381   -1.4589    1.0385 C   0  0  1  0  0  0  0  0  0  0  0  0
   15.0781   -2.0878    0.6442 C   0  0  0  0  0  0  0  0  0  0  0  0
   13.0170   -2.3482    1.9537 N   0  0  0  0  0  0  0  0  0  0  0  0
   11.9827   -3.2588    1.5485 C   0  0  0  0  0  0  0  0  0  0  0  0
   11.0854   -3.5626    2.3821 O   0  0  0  0  0  0  0  0  0  0  0  0
   12.0223   -3.9814    0.2202 C   0  0  1  0  0  0  0  0  0  0  0  0
   12.8859   -5.2420    0.3736 C   0  0  0  0  0  0  0  0  0  0  0  0
   10.6539   -4.3085   -0.2087 N   0  0  0  0  0  0  0  0  0  0  0  0
   10.3355   -5.4445   -1.0246 C   0  0  0  0  0  0  0  0  0  0  0  0
   10.8270   -5.5347   -2.1825 O   0  0  0  0  0  0  0  0  0  0  0  0
    9.4135   -6.5252   -0.5130 C   0  0  1  0  0  0  0  0  0  0  0  0
   10.1091   -7.8878   -0.5695 C   0  0  0  0  0  0  0  0  0  0  0  0
    9.0124   -6.2466    0.8687 N   0  0  0  0  0  0  0  0  0  0  0  0
    7.6483   -6.2027    1.3076 C   0  0  0  0  0  0  0  0  0  0  0  0
    7.3173   -5.3554    2.1808 O   0  0  0  0  0  0  0  0  0  0  0  0
    6.6165   -7.1699    0.7776 C   0  0  1  0  0  0  0  0  0  0  0  0
    5.9581   -7.9468    1.9243 C   0  0  0  0  0  0  0  0  0  0  0  0
    5.6355   -6.4664   -0.0567 N   0  0  0  0  0  0  0  0  0  0  0  0
    4.5866   -5.6508    0.4878 C   0  0  0  0  0  0  0  0  0  0  0  0
    4.7863   -4.4143    0.6295 O   0  0  0  0  0  0  0  0  0  0  0  0
   -1.4070    3.7522    1.0502 C   0  0  0  0  0  0  0  0  0  0  0  0
   -1.6605    3.2276    2.1708 O   0  0  0  0  0  0  0  0  0  0  0  0
   -2.1148    4.9354    0.6536 N   0  0  0  0  0  0  0  0  0  0  0  0
   -2.5926    5.1419   -0.7185 C   0  0  2  0  0  0  0  0  0  0  0  0
   -2.4074    6.6002   -1.1520 C   0  0  0  0  0  0  0  0  0  0  0  0
   -4.0167    4.6690   -0.8546 C   0  0  0  0  0  0  0  0  0  0  0  0
   -4.2314    3.5336   -1.3537 O   0  0  0  0  0  0  0  0  0  0  0  0
   -5.1385    5.5105   -0.5527 N   0  0  0  0  0  0  0  0  0  0  0  0
   -5.3508    6.1814    0.7382 C   0  0  2  0  0  0  0  0  0  0  0  0
   -5.5519    5.1769    1.8808 C   0  0  0  0  0  0  0  0  0  0  0  0
   -6.4959    7.1691    0.6621 C   0  0  0  0  0  0  0  0  0  0  0  0
   -6.2216    8.3955    0.7727 O   0  0  0  0  0  0  0  0  0  0  0  0
   -7.8811    6.7884    0.5214 N   0  0  0  0  0  0  0  0  0  0  0  0
   -8.3723    5.5821   -0.1588 C   0  0  2  0  0  0  0  0  0  0  0  0
   -8.6974    5.9022   -1.6214 C   0  0  0  0  0  0  0  0  0  0  0  0
   -9.6177    5.0624    0.5197 C   0  0  0  0  0  0  0  0  0  0  0  0
   -9.6485    3.8754    0.9479 O   0  0  0  0  0  0  0  0  0  0  0  0
  -10.7995    5.8705    0.5892 N   0  0  0  0  0  0  0  0  0  0  0  0
  -12.0829    5.3772    0.0806 C   0  0  2  0  0  0  0  0  0  0  0  0
  -12.7086    6.4403   -0.8330 C   0  0  0  0  0  0  0  0  0  0  0  0
  -13.0121    5.0748    1.2326 C   0  0  0  0  0  0  0  0  0  0  0  0
  -13.1829    5.9616    2.1150 O   0  0  0  0  0  0  0  0  0  0  0  0
  -13.7665    3.8513    1.3358 N   0  0  0  0  0  0  0  0  0  0  0  0
  -13.6062    2.6708    0.4653 C   0  0  2  0  0  0  0  0  0  0  0  0
  -14.3513    2.8929   -0.8569 C   0  0  0  0  0  0  0  0  0  0  0  0
  -14.1364    1.4077    1.1240 C   0  0  0  0  0  0  0  0  0  0  0  0
  -14.7450    1.4717    2.2241 O   0  0  0  0  0  0  0  0  0  0  0  0
  -14.0197    0.1243    0.4836 N   0  0  0  0  0  0  0  0  0  0  0  0
  -12.8052   -0.3409   -0.1942 C   0  0  2  0  0  0  0  0  0  0  0  0
  -13.1955   -1.2707   -1.3509 C   0  0  0  0  0  0  0  0  0  0  0  0
  -11.8899   -1.0036    0.8143 C   0  0  0  0  0  0  0  0  0  0  0  0
  -11.5154   -0.3451    1.8206 O   0  0  0  0  0  0  0  0  0  0  0  0
  -11.4213   -2.3527    0.6508 N   0  0  0  0  0  0  0  0  0  0  0  0
  -12.1487   -3.5250    1.1521 C   0  0  2  0  0  0  0  0  0  0  0  0
  -13.1487   -3.1806    2.2642 C   0  0  0  0  0  0  0  0  0  0  0  0
  -11.1715   -4.5534    1.6570 C   0  0  0  0  0  0  0  0  0  0  0  0
  -10.4681   -4.2867    2.6717 O   0  0  0  0  0  0  0  0  0  0  0  0
  -11.0712   -5.8614    1.0679 N   0  0  0  0  0  0  0  0  0  0  0  0
  -10.8816   -6.0865   -0.3713 C   0  0  2  0  0  0  0  0  0  0  0  0
  -12.2263   -6.4483   -1.0270 C   0  0  0  0  0  0  0  0  0  0  0  0
   -9.8597   -7.1969   -0.5941 C   0  0  0  0  0  0  0  0  0  0  0  0
  -10.1961   -8.2273   -1.2408 O   0  0  0  0  0  0  0  0  0  0  0  0
   -8.5289   -7.1629   -0.0516 N   0  0  0  0  0  0  0  0  0  0  0  0
   -7.8210   -5.9871    0.4677 C   0  0  2  0  0  0  0  0  0  0  0  0
   -7.4733   -5.0111   -0.6655 C   0  0  0  0  0  0  0  0  0  0  0  0
   -6.5827   -6.4399    1.2210 C   0  0  0  0  0  0  0  0  0  0  0  0
   -6.7244   -7.0331    2.3239 O   0  0  0  0  0  0  0  0  0  0  0  0
   -5.2569   -6.1785    0.7395 N   0  0  0  0  0  0  0  0  0  0  0  0
   -4.4986   -7.0879   -0.1413 C   0  0  1  0  0  0  0  0  0  0  0  0
   -5.3524   -8.2166   -0.6857 C   0  0  0  0  0  0  0  0  0  0  0  0
   -6.0497   -8.1102   -1.9285 N   0  0  0  0  0  0  0  0  0  0  0  0
   -5.4770   -9.2693   -0.0037 O   0  0  0  0  0  0  0  0  0  0  0  0
   -3.8042   -6.2880   -1.2656 C   0  0  0  0  0  0  0  0  0  0  0  0
   -2.1959   -5.5952   -0.7246 S   0  0  0  0  0  0  0  0  0  0  0  0
   -2.7606   -3.9134   -0.2576 C   0  0  0  0  0  0  0  0  0  0  0  0
    1.4157   -9.0855   -1.6033 H   0  0  0  0  0  0  0  0  0  0  0  0
    3.1573   -9.5440   -1.8203 H   0  0  0  0  0  0  0  0  0  0  0  0
    2.3010   -8.5946   -3.1063 H   0  0  0  0  0  0  0  0  0  0  0  0
    2.8771   -8.3797    0.6191 H   0  0  0  0  0  0  0  0  0  0  0  0
    3.3292   -6.5633    1.9523 H   0  0  0  0  0  0  0  0  0  0  0  0
    1.1221   -5.8597    0.7287 H   0  0  0  0  0  0  0  0  0  0  0  0
    2.1440   -4.7331   -0.2144 H   0  0  0  0  0  0  0  0  0  0  0  0
    2.8090   -2.5667    0.5651 H   0  0  0  0  0  0  0  0  0  0  0  0
    2.0318   -1.7454    1.9493 H   0  0  0  0  0  0  0  0  0  0  0  0
   -0.5613   -3.9259    1.3095 H   0  0  0  0  0  0  0  0  0  0  0  0
   -2.3774   -1.8027   -1.9468 H   0  0  0  0  0  0  0  0  0  0  0  0
    1.5978   -0.7782   -0.6893 H   0  0  0  0  0  0  0  0  0  0  0  0
    0.1494   -0.4103   -3.3088 H   0  0  0  0  0  0  0  0  0  0  0  0
   -1.4243    0.2495   -2.7454 H   0  0  0  0  0  0  0  0  0  0  0  0
   -0.9663    1.1059    0.1242 H   0  0  0  0  0  0  0  0  0  0  0  0
   -1.7640    2.1714   -1.0917 H   0  0  0  0  0  0  0  0  0  0  0  0
   -0.0030    3.9412   -0.5549 H   0  0  0  0  0  0  0  0  0  0  0  0
    0.9947    1.8352    1.2973 H   0  0  0  0  0  0  0  0  0  0  0  0
    0.5683    5.3958    1.9284 H   0  0  0  0  0  0  0  0  0  0  0  0
    3.5877    5.9163    2.0789 H   0  0  0  0  0  0  0  0  0  0  0  0
    2.4770    5.5572    3.4536 H   0  0  0  0  0  0  0  0  0  0  0  0
    2.2641    7.0674    2.4988 H   0  0  0  0  0  0  0  0  0  0  0  0
    0.7651    6.4548   -0.1148 H   0  0  0  0  0  0  0  0  0  0  0  0
    4.0744    6.3030   -2.1020 H   0  0  0  0  0  0  0  0  0  0  0  0
    4.6196    8.3314   -0.8008 H   0  0  0  0  0  0  0  0  0  0  0  0
    3.4838    7.8424    0.5096 H   0  0  0  0  0  0  0  0  0  0  0  0
    2.8607    8.2509   -1.1285 H   0  0  0  0  0  0  0  0  0  0  0  0
    4.6592    4.7135    0.2139 H   0  0  0  0  0  0  0  0  0  0  0  0
    7.9644    5.7148   -0.9062 H   0  0  0  0  0  0  0  0  0  0  0  0
    6.0381    7.4108   -2.5721 H   0  0  0  0  0  0  0  0  0  0  0  0
    6.2597    5.6036   -2.6807 H   0  0  0  0  0  0  0  0  0  0  0  0
    7.6094    6.7109   -3.0827 H   0  0  0  0  0  0  0  0  0  0  0  0
    7.2143    8.6653   -0.6823 H   0  0  0  0  0  0  0  0  0  0  0  0
   11.1714    7.4548    0.2378 H   0  0  0  0  0  0  0  0  0  0  0  0
    9.5621    6.5036    2.0390 H   0  0  0  0  0  0  0  0  0  0  0  0
    9.1662    5.2050    0.8588 H   0  0  0  0  0  0  0  0  0  0  0  0
   10.8514    5.4327    1.4274 H   0  0  0  0  0  0  0  0  0  0  0  0
    9.8868    6.7196   -2.1393 H   0  0  0  0  0  0  0  0  0  0  0  0
   12.7590    4.0174   -1.9705 H   0  0  0  0  0  0  0  0  0  0  0  0
   13.0945    6.3562   -0.0256 H   0  0  0  0  0  0  0  0  0  0  0  0
   13.1173    6.5558   -1.8299 H   0  0  0  0  0  0  0  0  0  0  0  0
   14.3256    5.5055   -1.0046 H   0  0  0  0  0  0  0  0  0  0  0  0
   13.0541    4.0321    0.8315 H   0  0  0  0  0  0  0  0  0  0  0  0
   11.8145    0.4114   -0.0185 H   0  0  0  0  0  0  0  0  0  0  0  0
   14.1923    2.0700   -1.1056 H   0  0  0  0  0  0  0  0  0  0  0  0
   12.8243    1.4247   -2.0974 H   0  0  0  0  0  0  0  0  0  0  0  0
   13.9683    0.2997   -1.2922 H   0  0  0  0  0  0  0  0  0  0  0  0
   13.5389    1.9518    1.8512 H   0  0  0  0  0  0  0  0  0  0  0  0
   13.1493   -1.3273    0.1148 H   0  0  0  0  0  0  0  0  0  0  0  0
   14.9086   -2.9939    0.0297 H   0  0  0  0  0  0  0  0  0  0  0  0
   15.6765   -1.3761    0.0366 H   0  0  0  0  0  0  0  0  0  0  0  0
   15.6580   -2.3746    1.5467 H   0  0  0  0  0  0  0  0  0  0  0  0
   13.1993   -2.2593    2.9787 H   0  0  0  0  0  0  0  0  0  0  0  0
   12.4796   -3.3361   -0.5587 H   0  0  0  0  0  0  0  0  0  0  0  0
   12.3928   -5.9655    1.0590 H   0  0  0  0  0  0  0  0  0  0  0  0
   13.0479   -5.7239   -0.6116 H   0  0  0  0  0  0  0  0  0  0  0  0
   13.8795   -4.9898    0.7951 H   0  0  0  0  0  0  0  0  0  0  0  0
    9.8966   -3.5956   -0.0755 H   0  0  0  0  0  0  0  0  0  0  0  0
    8.5267   -6.5512   -1.1798 H   0  0  0  0  0  0  0  0  0  0  0  0
   11.0064   -7.8937    0.0868 H   0  0  0  0  0  0  0  0  0  0  0  0
    9.4137   -8.6843   -0.2264 H   0  0  0  0  0  0  0  0  0  0  0  0
   10.4251   -8.1263   -1.6091 H   0  0  0  0  0  0  0  0  0  0  0  0
    9.7536   -6.0110    1.5691 H   0  0  0  0  0  0  0  0  0  0  0  0
    7.1201   -7.9311    0.1415 H   0  0  0  0  0  0  0  0  0  0  0  0
    6.7255   -8.5464    2.4601 H   0  0  0  0  0  0  0  0  0  0  0  0
    5.4853   -7.2605    2.6559 H   0  0  0  0  0  0  0  0  0  0  0  0
    5.1931   -8.6409    1.5222 H   0  0  0  0  0  0  0  0  0  0  0  0
    5.9400   -6.2298   -1.0248 H   0  0  0  0  0  0  0  0  0  0  0  0
   -2.5206    5.5266    1.4146 H   0  0  0  0  0  0  0  0  0  0  0  0
   -1.9826    4.5429   -1.4242 H   0  0  0  0  0  0  0  0  0  0  0  0
   -2.8969    6.7778   -2.1362 H   0  0  0  0  0  0  0  0  0  0  0  0
   -1.3253    6.8258   -1.2631 H   0  0  0  0  0  0  0  0  0  0  0  0
   -2.8280    7.3119   -0.4124 H   0  0  0  0  0  0  0  0  0  0  0  0
   -5.8355    5.6158   -1.3195 H   0  0  0  0  0  0  0  0  0  0  0  0
   -4.4387    6.7611    0.9880 H   0  0  0  0  0  0  0  0  0  0  0  0
   -4.6950    4.4740    1.9319 H   0  0  0  0  0  0  0  0  0  0  0  0
   -5.6070    5.7212    2.8484 H   0  0  0  0  0  0  0  0  0  0  0  0
   -6.4807    4.5867    1.7615 H   0  0  0  0  0  0  0  0  0  0  0  0
   -8.5639    7.5655    0.6486 H   0  0  0  0  0  0  0  0  0  0  0  0
   -7.6146    4.7806   -0.1419 H   0  0  0  0  0  0  0  0  0  0  0  0
   -9.0464    4.9841   -2.1425 H   0  0  0  0  0  0  0  0  0  0  0  0
   -9.4920    6.6747   -1.6885 H   0  0  0  0  0  0  0  0  0  0  0  0
   -7.8057    6.2902   -2.1550 H   0  0  0  0  0  0  0  0  0  0  0  0
  -10.6777    6.9003    0.6905 H   0  0  0  0  0  0  0  0  0  0  0  0
  -11.9050    4.4794   -0.5458 H   0  0  0  0  0  0  0  0  0  0  0  0
  -13.6972    6.1033   -1.2072 H   0  0  0  0  0  0  0  0  0  0  0  0
  -12.0439    6.6176   -1.7053 H   0  0  0  0  0  0  0  0  0  0  0  0
  -12.8452    7.3990   -0.2884 H   0  0  0  0  0  0  0  0  0  0  0  0
  -14.4912    3.8319    2.0894 H   0  0  0  0  0  0  0  0  0  0  0  0
  -12.5281    2.5201    0.2768 H   0  0  0  0  0  0  0  0  0  0  0  0
  -13.9709    3.7872   -1.3879 H   0  0  0  0  0  0  0  0  0  0  0  0
  -15.4375    3.0346   -0.6668 H   0  0  0  0  0  0  0  0  0  0  0  0
  -14.2201    2.0185   -1.5302 H   0  0  0  0  0  0  0  0  0  0  0  0
  -14.7161   -0.6006    0.7708 H   0  0  0  0  0  0  0  0  0  0  0  0
  -12.2588    0.5155   -0.6414 H   0  0  0  0  0  0  0  0  0  0  0  0
  -12.2917   -1.6113   -1.8996 H   0  0  0  0  0  0  0  0  0  0  0  0
  -13.8492   -0.7229   -2.0630 H   0  0  0  0  0  0  0  0  0  0  0  0
  -13.7551   -2.1558   -0.9753 H   0  0  0  0  0  0  0  0  0  0  0  0
  -10.7128   -2.5095   -0.1006 H   0  0  0  0  0  0  0  0  0  0  0  0
  -12.7324   -3.9390    0.3147 H   0  0  0  0  0  0  0  0  0  0  0  0
  -13.6096   -4.1109    2.6641 H   0  0  0  0  0  0  0  0  0  0  0  0
  -12.6474   -2.6429    3.1000 H   0  0  0  0  0  0  0  0  0  0  0  0
  -13.9687   -2.5476    1.8660 H   0  0  0  0  0  0  0  0  0  0  0  0
  -10.8540   -6.6520    1.7187 H   0  0  0  0  0  0  0  0  0  0  0  0
  -10.5064   -5.1605   -0.8529 H   0  0  0  0  0  0  0  0  0  0  0  0
  -12.6740   -7.3286   -0.5216 H   0  0  0  0  0  0  0  0  0  0  0  0
  -12.0749   -6.6947   -2.1005 H   0  0  0  0  0  0  0  0  0  0  0  0
  -12.9497   -5.6166   -0.9899 H   0  0  0  0  0  0  0  0  0  0  0  0
   -8.0432   -8.0884   -0.0188 H   0  0  0  0  0  0  0  0  0  0  0  0
   -8.4609   -5.4555    1.1969 H   0  0  0  0  0  0  0  0  0  0  0  0
   -8.3855   -4.5053   -1.0427 H   0  0  0  0  0  0  0  0  0  0  0  0
   -6.9939   -5.5446   -1.5099 H   0  0  0  0  0  0  0  0  0  0  0  0
   -6.7819   -4.2175   -0.2990 H   0  0  0  0  0  0  0  0  0  0  0  0
   -4.6835   -5.5440    1.3431 H   0  0  0  0  0  0  0  0  0  0  0  0
   -3.7033   -7.5706    0.4748 H   0  0  0  0  0  0  0  0  0  0  0  0
   -6.7435   -8.8410   -2.1973 H   0  0  0  0  0  0  0  0  0  0  0  0
   -5.9169   -7.3011   -2.5726 H   0  0  0  0  0  0  0  0  0  0  0  0
   -4.4832   -5.5004   -1.6591 H   0  0  0  0  0  0  0  0  0  0  0  0
   -3.5570   -6.9716   -2.1068 H   0  0  0  0  0  0  0  0  0  0  0  0
   -3.1698   -3.9313    0.7780 H   0  0  0  0  0  0  0  0  0  0  0  0
   -3.5633   -3.5669   -0.9475 H   0  0  0  0  0  0  0  0  0  0  0  0
  1  2  1  0
  2  3  2  0
  2  4  1  0
  4  5  1  0
  5  6  1  0
  6  7  1  0
  7  8  1  0
  8  9  1  0
  9 10  2  0
 10 11  1  0
 11 12  2  0
 12 13  1  0
 13 14  2  0
 13 15  1  0
 15 16  1  0
 16 17  1  0
 17 18  1  0
 18 19  1  0
 19 20  1  0
 20 21  2  0
 20 22  1  0
 22 23  1  0
 22 24  1  0
 24 25  1  0
 25 26  2  0
 25 27  1  0
 27 28  1  0
 27 29  1  0
 29 30  1  0
 30 31  2  0
 30 32  1  0
 32 33  1  0
 32 34  1  0
 34 35  1  0
 35 36  2  0
 35 37  1  0
 37 38  1  0
 37 39  1  0
 39 40  1  0
 40 41  2  0
 40 42  1  0
 42 43  1  0
 42 44  1  0
 44 45  1  0
 45 46  2  0
 45 47  1  0
 47 48  1  0
 47 49  1  0
 49 50  1  0
 50 51  2  0
 50 52  1  0
 52 53  1  0
 52 54  1  0
 54 55  1  0
 55 56  2  0
 55 57  1  0
 57 58  1  0
 57 59  1  0
 59 60  1  0
 60 61  2  0
 60 62  1  0
 62 63  1  0
 62 64  1  0
 64 65  1  0
 65 66  2  0
 65 67  1  0
 67 68  1  0
 67 69  1  0
 69 70  1  0
 70 71  2  0
 18 72  1  0
 72 73  2  0
 72 74  1  0
 74 75  1  0
 75 76  1  0
 75 77  1  0
 77 78  2  0
 77 79  1  0
 79 80  1  0
 80 81  1  0
 80 82  1  0
 82 83  2  0
 82 84  1  0
 84 85  1  0
 85 86  1  0
 85 87  1  0
 87 88  2  0
 87 89  1  0
 89 90  1  0
 90 91  1  0
 90 92  1  0
 92 93  2  0
 92 94  1  0
 94 95  1  0
 95 96  1  0
 95 97  1  0
 97 98  2  0
 97 99  1  0
 99100  1  0
100101  1  0
100102  1  0
102103  2  0
102104  1  0
104105  1  0
105106  1  0
105107  1  0
107108  2  0
107109  1  0
109110  1  0
110111  1  0
110112  1  0
112113  2  0
112114  1  0
114115  1  0
115116  1  0
115117  1  0
117118  2  0
117119  1  0
119120  1  0
120121  1  0
121122  1  0
121123  2  0
120124  1  0
124125  1  0
125126  1  0
 70  5  1  0
 14  9  1  0
126 11  1  0
  1127  1  0
  1128  1  0
  1129  1  0
  4130  1  0
  5131  1  1
  6132  1  0
  6133  1  0
  8134  1  0
  8135  1  0
 10136  1  0
 12137  1  0
 14138  1  0
 15139  1  0
 15140  1  0
 17141  1  0
 17142  1  0
 18143  1  6
 19144  1  0
 22145  1  1
 23146  1  0
 23147  1  0
 23148  1  0
 24149  1  0
 27150  1  6
 28151  1  0
 28152  1  0
 28153  1  0
 29154  1  0
 32155  1  6
 33156  1  0
 33157  1  0
 33158  1  0
 34159  1  0
 37160  1  1
 38161  1  0
 38162  1  0
 38163  1  0
 39164  1  0
 42165  1  6
 43166  1  0
 43167  1  0
 43168  1  0
 44169  1  0
 47170  1  6
 48171  1  0
 48172  1  0
 48173  1  0
 49174  1  0
 52175  1  6
 53176  1  0
 53177  1  0
 53178  1  0
 54179  1  0
 57180  1  6
 58181  1  0
 58182  1  0
 58183  1  0
 59184  1  0
 62185  1  6
 63186  1  0
 63187  1  0
 63188  1  0
 64189  1  0
 67190  1  6
 68191  1  0
 68192  1  0
 68193  1  0
 69194  1  0
 74195  1  0
 75196  1  6
 76197  1  0
 76198  1  0
 76199  1  0
 79200  1  0
 80201  1  1
 81202  1  0
 81203  1  0
 81204  1  0
 84205  1  0
 85206  1  6
 86207  1  0
 86208  1  0
 86209  1  0
 89210  1  0
 90211  1  6
 91212  1  0
 91213  1  0
 91214  1  0
 94215  1  0
 95216  1  6
 96217  1  0
 96218  1  0
 96219  1  0
 99220  1  0
100221  1  6
101222  1  0
101223  1  0
101224  1  0
104225  1  0
105226  1  6
106227  1  0
106228  1  0
106229  1  0
109230  1  0
110231  1  6
111232  1  0
111233  1  0
111234  1  0
114235  1  0
115236  1  1
116237  1  0
116238  1  0
116239  1  0
119240  1  0
120241  1  1
122242  1  0
122243  1  0
124244  1  0
124245  1  0
126246  1  0
126247  1  0
M  END
