
     RDKit          3D

257259  0  0  0  0  0  0  0  0999 V2000
   -2.9983   -9.5934   -1.8935 C   0  0  0  0  0  0  0  0  0  0  0  0
   -4.0481   -8.5407   -1.7419 C   0  0  0  0  0  0  0  0  0  0  0  0
   -5.2534   -8.8394   -1.9551 O   0  0  0  0  0  0  0  0  0  0  0  0
   -3.6703   -7.1933   -1.4068 N   0  0  0  0  0  0  0  0  0  0  0  0
   -4.4957   -6.2420   -0.6421 C   0  0  2  0  0  0  0  0  0  0  0  0
   -4.3027   -6.4528    0.8720 C   0  0  0  0  0  0  0  0  0  0  0  0
   -2.5538   -6.2154    1.3660 S   0  0  0  0  0  0  0  0  0  0  0  0
   -2.6221   -4.3849    1.4829 C   0  0  0  0  0  0  0  0  0  0  0  0
   -1.3456   -3.7191    1.0260 C   0  0  0  0  0  0  0  0  0  0  0  0
   -0.5820   -4.2243   -0.0478 C   0  0  0  0  0  0  0  0  0  0  0  0
    0.5308   -3.5211   -0.5256 C   0  0  0  0  0  0  0  0  0  0  0  0
    0.8804   -2.2983    0.0666 C   0  0  0  0  0  0  0  0  0  0  0  0
    0.1140   -1.7659    1.1078 C   0  0  0  0  0  0  0  0  0  0  0  0
   -1.0026   -2.4768    1.5784 C   0  0  0  0  0  0  0  0  0  0  0  0
    0.3328   -0.3528    1.5511 C   0  0  0  0  0  0  0  0  0  0  0  0
   -0.6307    0.7075    0.4214 S   0  0  0  0  0  0  0  0  0  0  0  0
   -0.4464    2.2877    1.3317 C   0  0  0  0  0  0  0  0  0  0  0  0
    0.1707    3.4216    0.4764 C   0  0  2  0  0  0  0  0  0  0  0  0
   -0.1213    3.2442   -0.9528 N   0  0  0  0  0  0  0  0  0  0  0  0
   -1.3103    3.7097   -1.6059 C   0  0  0  0  0  0  0  0  0  0  0  0
   -1.6865    3.1305   -2.6613 O   0  0  0  0  0  0  0  0  0  0  0  0
   -2.1014    4.8860   -1.0727 C   0  0  1  0  0  0  0  0  0  0  0  0
   -2.8747    5.5921   -2.1869 C   0  0  0  0  0  0  0  0  0  0  0  0
   -3.0298    4.4402   -0.0304 N   0  0  0  0  0  0  0  0  0  0  0  0
   -3.1417    5.0596    1.2594 C   0  0  0  0  0  0  0  0  0  0  0  0
   -3.1064    4.3297    2.2863 O   0  0  0  0  0  0  0  0  0  0  0  0
   -3.4448    6.5268    1.4385 C   0  0  1  0  0  0  0  0  0  0  0  0
   -2.2314    7.4256    1.1740 C   0  0  0  0  0  0  0  0  0  0  0  0
   -4.5934    6.9400    0.6319 N   0  0  0  0  0  0  0  0  0  0  0  0
   -5.9045    6.4458    0.9232 C   0  0  0  0  0  0  0  0  0  0  0  0
   -6.1027    5.2023    1.0287 O   0  0  0  0  0  0  0  0  0  0  0  0
   -7.0794    7.3822    1.0226 C   0  0  1  0  0  0  0  0  0  0  0  0
   -6.6984    8.7027    1.7003 C   0  0  0  0  0  0  0  0  0  0  0  0
   -7.6172    7.6466   -0.3134 N   0  0  0  0  0  0  0  0  0  0  0  0
   -8.9043    7.2011   -0.7815 C   0  0  0  0  0  0  0  0  0  0  0  0
   -9.3614    7.7068   -1.8463 O   0  0  0  0  0  0  0  0  0  0  0  0
   -9.7349    6.1817   -0.0370 C   0  0  1  0  0  0  0  0  0  0  0  0
  -10.6668    6.8802    0.9668 C   0  0  0  0  0  0  0  0  0  0  0  0
  -10.4764    5.3364   -0.9822 N   0  0  0  0  0  0  0  0  0  0  0  0
  -11.8621    5.5283   -1.3034 C   0  0  0  0  0  0  0  0  0  0  0  0
  -12.2021    6.5357   -1.9806 O   0  0  0  0  0  0  0  0  0  0  0  0
  -12.9087    4.6094   -0.7263 C   0  0  1  0  0  0  0  0  0  0  0  0
  -14.1482    4.5197   -1.6376 C   0  0  0  0  0  0  0  0  0  0  0  0
  -12.3276    3.2935   -0.4170 N   0  0  0  0  0  0  0  0  0  0  0  0
  -12.8235    2.0402   -0.9118 C   0  0  0  0  0  0  0  0  0  0  0  0
  -12.8979    1.8507   -2.1506 O   0  0  0  0  0  0  0  0  0  0  0  0
  -13.2843    0.9480    0.0250 C   0  0  1  0  0  0  0  0  0  0  0  0
  -13.1685    1.3570    1.5012 C   0  0  0  0  0  0  0  0  0  0  0  0
  -14.6804    0.6031   -0.2716 N   0  0  0  0  0  0  0  0  0  0  0  0
  -15.2239   -0.7260   -0.2142 C   0  0  0  0  0  0  0  0  0  0  0  0
  -16.2577   -0.9806   -0.8900 O   0  0  0  0  0  0  0  0  0  0  0  0
  -14.6871   -1.7815    0.7290 C   0  0  1  0  0  0  0  0  0  0  0  0
  -15.5135   -1.7970    2.0150 C   0  0  0  0  0  0  0  0  0  0  0  0
  -14.7554   -3.1008    0.0930 N   0  0  0  0  0  0  0  0  0  0  0  0
  -13.6525   -4.0118   -0.0060 C   0  0  0  0  0  0  0  0  0  0  0  0
  -13.8991   -5.2428    0.0582 O   0  0  0  0  0  0  0  0  0  0  0  0
  -12.2313   -3.5334   -0.2282 C   0  0  1  0  0  0  0  0  0  0  0  0
  -11.4087   -3.4280    1.0681 C   0  0  0  0  0  0  0  0  0  0  0  0
  -11.5403   -4.3270   -1.2627 N   0  0  0  0  0  0  0  0  0  0  0  0
  -10.8671   -5.5990   -1.1231 C   0  0  0  0  0  0  0  0  0  0  0  0
   -9.9846   -5.8974   -1.9770 O   0  0  0  0  0  0  0  0  0  0  0  0
  -11.2490   -6.6487   -0.1021 C   0  0  1  0  0  0  0  0  0  0  0  0
  -12.2144   -7.6516   -0.7491 C   0  0  0  0  0  0  0  0  0  0  0  0
  -10.0489   -7.3422    0.3744 N   0  0  0  0  0  0  0  0  0  0  0  0
   -8.9939   -6.6846    1.0969 C   0  0  0  0  0  0  0  0  0  0  0  0
   -9.2733   -5.7773    1.9248 O   0  0  0  0  0  0  0  0  0  0  0  0
   -7.5397   -6.9812    0.7917 C   0  0  1  0  0  0  0  0  0  0  0  0
   -7.3592   -8.4389    0.3368 C   0  0  0  0  0  0  0  0  0  0  0  0
   -7.0573   -6.0265   -0.2225 N   0  0  0  0  0  0  0  0  0  0  0  0
   -5.9398   -6.2235   -1.1096 C   0  0  0  0  0  0  0  0  0  0  0  0
   -6.1580   -6.1761   -2.3513 O   0  0  0  0  0  0  0  0  0  0  0  0
    1.6639    3.5155    0.6895 C   0  0  0  0  0  0  0  0  0  0  0  0
    2.3629    2.4640    0.6529 O   0  0  0  0  0  0  0  0  0  0  0  0
    2.3048    4.7698    0.9811 N   0  0  0  0  0  0  0  0  0  0  0  0
    1.9280    6.0407    0.3488 C   0  0  2  0  0  0  0  0  0  0  0  0
    2.0141    5.9677   -1.1856 C   0  0  0  0  0  0  0  0  0  0  0  0
    2.7646    7.1884    0.8929 C   0  0  0  0  0  0  0  0  0  0  0  0
    2.1608    8.1226    1.4797 O   0  0  0  0  0  0  0  0  0  0  0  0
    4.1951    7.2912    0.7475 N   0  0  0  0  0  0  0  0  0  0  0  0
    5.0948    6.2686    0.2033 C   0  0  2  0  0  0  0  0  0  0  0  0
    6.1067    5.8687    1.2755 C   0  0  0  0  0  0  0  0  0  0  0  0
    5.7040    6.7546   -1.0974 C   0  0  0  0  0  0  0  0  0  0  0  0
    4.9348    7.2465   -1.9666 O   0  0  0  0  0  0  0  0  0  0  0  0
    7.0818    6.5508   -1.4519 N   0  0  0  0  0  0  0  0  0  0  0  0
    8.2214    7.2002   -0.7743 C   0  0  2  0  0  0  0  0  0  0  0  0
    7.8916    8.6578   -0.4190 C   0  0  0  0  0  0  0  0  0  0  0  0
    9.4809    7.1680   -1.6258 C   0  0  0  0  0  0  0  0  0  0  0  0
    9.3882    6.9769   -2.8670 O   0  0  0  0  0  0  0  0  0  0  0  0
   10.7816    7.4448   -1.0783 N   0  0  0  0  0  0  0  0  0  0  0  0
   11.1378    7.3850    0.3449 C   0  0  2  0  0  0  0  0  0  0  0  0
   11.9977    8.5962    0.7070 C   0  0  0  0  0  0  0  0  0  0  0  0
   11.8568    6.1037    0.6969 C   0  0  0  0  0  0  0  0  0  0  0  0
   12.0750    5.8582    1.9158 O   0  0  0  0  0  0  0  0  0  0  0  0
   12.3084    5.1731   -0.3045 N   0  0  0  0  0  0  0  0  0  0  0  0
   13.2790    4.1154    0.0113 C   0  0  2  0  0  0  0  0  0  0  0  0
   14.6774    4.7266    0.1453 C   0  0  0  0  0  0  0  0  0  0  0  0
   13.2952    3.0495   -1.0660 C   0  0  0  0  0  0  0  0  0  0  0  0
   13.4714    3.4069   -2.2652 O   0  0  0  0  0  0  0  0  0  0  0  0
   13.1552    1.6445   -0.7876 N   0  0  0  0  0  0  0  0  0  0  0  0
   12.8597    1.0628    0.5300 C   0  0  2  0  0  0  0  0  0  0  0  0
   14.1045    1.0910    1.4356 C   0  0  0  0  0  0  0  0  0  0  0  0
   12.3834   -0.3642    0.3832 C   0  0  0  0  0  0  0  0  0  0  0  0
   11.1824   -0.6532    0.6470 O   0  0  0  0  0  0  0  0  0  0  0  0
   13.2801   -1.3851   -0.0797 N   0  0  0  0  0  0  0  0  0  0  0  0
   13.0772   -2.8132    0.2112 C   0  0  2  0  0  0  0  0  0  0  0  0
   14.4221   -3.4213    0.6312 C   0  0  0  0  0  0  0  0  0  0  0  0
   12.4795   -3.5022   -0.9922 C   0  0  0  0  0  0  0  0  0  0  0  0
   11.6684   -2.8706   -1.7265 O   0  0  0  0  0  0  0  0  0  0  0  0
   12.7990   -4.8594   -1.3304 N   0  0  0  0  0  0  0  0  0  0  0  0
   12.4974   -5.9784   -0.4321 C   0  0  2  0  0  0  0  0  0  0  0  0
   13.6011   -7.0307   -0.5305 C   0  0  0  0  0  0  0  0  0  0  0  0
   11.1661   -6.5856   -0.7728 C   0  0  0  0  0  0  0  0  0  0  0  0
   10.8137   -6.7124   -1.9815 O   0  0  0  0  0  0  0  0  0  0  0  0
   10.2961   -7.0257    0.2657 N   0  0  0  0  0  0  0  0  0  0  0  0
    9.0302   -6.3399    0.5111 C   0  0  2  0  0  0  0  0  0  0  0  0
    9.3110   -5.0146    1.2270 C   0  0  0  0  0  0  0  0  0  0  0  0
    8.1022   -7.2033    1.3357 C   0  0  0  0  0  0  0  0  0  0  0  0
    8.4249   -7.4558    2.5274 O   0  0  0  0  0  0  0  0  0  0  0  0
    6.8520   -7.7260    0.8449 N   0  0  0  0  0  0  0  0  0  0  0  0
    6.4228   -7.8584   -0.5545 C   0  0  2  0  0  0  0  0  0  0  0  0
    7.3913   -8.7588   -1.3354 C   0  0  0  0  0  0  0  0  0  0  0  0
    6.2002   -6.5050   -1.2040 C   0  0  0  0  0  0  0  0  0  0  0  0
    6.7670   -6.2386   -2.3009 O   0  0  0  0  0  0  0  0  0  0  0  0
    5.3697   -5.4973   -0.6050 N   0  0  0  0  0  0  0  0  0  0  0  0
    4.3986   -5.7375    0.4715 C   0  0  1  0  0  0  0  0  0  0  0  0
    4.9845   -5.3567    1.8095 C   0  0  0  0  0  0  0  0  0  0  0  0
    4.4537   -5.9171    3.0089 N   0  0  0  0  0  0  0  0  0  0  0  0
    5.9122   -4.5080    1.8821 O   0  0  0  0  0  0  0  0  0  0  0  0
    3.1271   -4.9242    0.2213 C   0  0  0  0  0  0  0  0  0  0  0  0
    2.2044   -5.6207   -1.1986 S   0  0  0  0  0  0  0  0  0  0  0  0
    1.3471   -4.0738   -1.6655 C   0  0  0  0  0  0  0  0  0  0  0  0
   -2.2774   -9.3016   -2.6861 H   0  0  0  0  0  0  0  0  0  0  0  0
   -2.4610   -9.7101   -0.9291 H   0  0  0  0  0  0  0  0  0  0  0  0
   -3.4549  -10.5662   -2.1661 H   0  0  0  0  0  0  0  0  0  0  0  0
   -2.6655   -6.9353   -1.5532 H   0  0  0  0  0  0  0  0  0  0  0  0
   -4.1096   -5.2314   -0.8820 H   0  0  0  0  0  0  0  0  0  0  0  0
   -4.9354   -5.7500    1.4541 H   0  0  0  0  0  0  0  0  0  0  0  0
   -4.5848   -7.4868    1.1532 H   0  0  0  0  0  0  0  0  0  0  0  0
   -3.4612   -3.9575    0.8940 H   0  0  0  0  0  0  0  0  0  0  0  0
   -2.8215   -4.1318    2.5481 H   0  0  0  0  0  0  0  0  0  0  0  0
   -0.8660   -5.1548   -0.5298 H   0  0  0  0  0  0  0  0  0  0  0  0
    1.7171   -1.7297   -0.3274 H   0  0  0  0  0  0  0  0  0  0  0  0
   -1.6342   -2.0337    2.3427 H   0  0  0  0  0  0  0  0  0  0  0  0
    1.4104   -0.0859    1.4848 H   0  0  0  0  0  0  0  0  0  0  0  0
   -0.0074   -0.2207    2.6017 H   0  0  0  0  0  0  0  0  0  0  0  0
   -1.4723    2.5820    1.6247 H   0  0  0  0  0  0  0  0  0  0  0  0
    0.1193    2.1616    2.2792 H   0  0  0  0  0  0  0  0  0  0  0  0
   -0.2807    4.3656    0.8422 H   0  0  0  0  0  0  0  0  0  0  0  0
    0.4852    2.5799   -1.4881 H   0  0  0  0  0  0  0  0  0  0  0  0
   -1.3700    5.6116   -0.6653 H   0  0  0  0  0  0  0  0  0  0  0  0
   -3.3821    6.4906   -1.7878 H   0  0  0  0  0  0  0  0  0  0  0  0
   -2.1722    5.9177   -2.9848 H   0  0  0  0  0  0  0  0  0  0  0  0
   -3.6385    4.9179   -2.6300 H   0  0  0  0  0  0  0  0  0  0  0  0
   -3.4831    3.5066   -0.1492 H   0  0  0  0  0  0  0  0  0  0  0  0
   -3.7169    6.6837    2.5078 H   0  0  0  0  0  0  0  0  0  0  0  0
   -1.3174    7.0027    1.6414 H   0  0  0  0  0  0  0  0  0  0  0  0
   -2.4135    8.4286    1.6148 H   0  0  0  0  0  0  0  0  0  0  0  0
   -2.0636    7.5720    0.0867 H   0  0  0  0  0  0  0  0  0  0  0  0
   -4.5068    7.7781    0.0094 H   0  0  0  0  0  0  0  0  0  0  0  0
   -7.8355    6.9089    1.6759 H   0  0  0  0  0  0  0  0  0  0  0  0
   -6.2370    8.5019    2.6887 H   0  0  0  0  0  0  0  0  0  0  0  0
   -5.9880    9.2797    1.0710 H   0  0  0  0  0  0  0  0  0  0  0  0
   -7.6109    9.3182    1.8539 H   0  0  0  0  0  0  0  0  0  0  0  0
   -7.0350    8.2153   -0.9680 H   0  0  0  0  0  0  0  0  0  0  0  0
   -9.0657    5.5037    0.5320 H   0  0  0  0  0  0  0  0  0  0  0  0
  -10.0837    7.4508    1.7185 H   0  0  0  0  0  0  0  0  0  0  0  0
  -11.2713    6.1255    1.5111 H   0  0  0  0  0  0  0  0  0  0  0  0
  -11.3490    7.5883    0.4528 H   0  0  0  0  0  0  0  0  0  0  0  0
   -9.9383    4.6247   -1.5294 H   0  0  0  0  0  0  0  0  0  0  0  0
  -13.2429    5.0596    0.2369 H   0  0  0  0  0  0  0  0  0  0  0  0
  -14.8903    3.8082   -1.2188 H   0  0  0  0  0  0  0  0  0  0  0  0
  -14.6500    5.5113   -1.7076 H   0  0  0  0  0  0  0  0  0  0  0  0
  -13.8611    4.2062   -2.6625 H   0  0  0  0  0  0  0  0  0  0  0  0
  -11.6268    3.2670    0.3582 H   0  0  0  0  0  0  0  0  0  0  0  0
  -12.6274    0.0712   -0.1604 H   0  0  0  0  0  0  0  0  0  0  0  0
  -12.1020    1.4872    1.7828 H   0  0  0  0  0  0  0  0  0  0  0  0
  -13.5880    0.5714    2.1595 H   0  0  0  0  0  0  0  0  0  0  0  0
  -13.7192    2.3023    1.6933 H   0  0  0  0  0  0  0  0  0  0  0  0
  -15.3129    1.3611   -0.6176 H   0  0  0  0  0  0  0  0  0  0  0  0
  -13.6477   -1.5483    1.0099 H   0  0  0  0  0  0  0  0  0  0  0  0
  -15.0849   -2.5320    2.7228 H   0  0  0  0  0  0  0  0  0  0  0  0
  -16.5639   -2.0856    1.8030 H   0  0  0  0  0  0  0  0  0  0  0  0
  -15.5084   -0.7979    2.4963 H   0  0  0  0  0  0  0  0  0  0  0  0
  -15.7049   -3.4801   -0.1220 H   0  0  0  0  0  0  0  0  0  0  0  0
  -12.3047   -2.4980   -0.6322 H   0  0  0  0  0  0  0  0  0  0  0  0
  -11.6231   -4.2550    1.7702 H   0  0  0  0  0  0  0  0  0  0  0  0
  -10.3252   -3.4144    0.8271 H   0  0  0  0  0  0  0  0  0  0  0  0
  -11.6454   -2.4818    1.5987 H   0  0  0  0  0  0  0  0  0  0  0  0
  -11.3561   -3.8214   -2.1574 H   0  0  0  0  0  0  0  0  0  0  0  0
  -11.7555   -6.1945    0.7678 H   0  0  0  0  0  0  0  0  0  0  0  0
  -13.0327   -7.1315   -1.2897 H   0  0  0  0  0  0  0  0  0  0  0  0
  -11.6794   -8.2989   -1.4760 H   0  0  0  0  0  0  0  0  0  0  0  0
  -12.6635   -8.3006    0.0332 H   0  0  0  0  0  0  0  0  0  0  0  0
  -10.0028   -8.3892    0.3003 H   0  0  0  0  0  0  0  0  0  0  0  0
   -6.9623   -6.8380    1.7264 H   0  0  0  0  0  0  0  0  0  0  0  0
   -6.2910   -8.7154    0.3341 H   0  0  0  0  0  0  0  0  0  0  0  0
   -7.8672   -9.1400    1.0347 H   0  0  0  0  0  0  0  0  0  0  0  0
   -7.7760   -8.5791   -0.6831 H   0  0  0  0  0  0  0  0  0  0  0  0
   -7.6920   -5.2372   -0.4852 H   0  0  0  0  0  0  0  0  0  0  0  0
    3.1154    4.7390    1.6383 H   0  0  0  0  0  0  0  0  0  0  0  0
    0.8735    6.2627    0.6076 H   0  0  0  0  0  0  0  0  0  0  0  0
    2.9098    5.4127   -1.5286 H   0  0  0  0  0  0  0  0  0  0  0  0
    2.0234    6.9829   -1.6352 H   0  0  0  0  0  0  0  0  0  0  0  0
    1.1305    5.4394   -1.5903 H   0  0  0  0  0  0  0  0  0  0  0  0
    4.6432    8.1852    1.0693 H   0  0  0  0  0  0  0  0  0  0  0  0
    4.5450    5.3480   -0.0504 H   0  0  0  0  0  0  0  0  0  0  0  0
    6.6749    6.7559    1.6325 H   0  0  0  0  0  0  0  0  0  0  0  0
    6.8063    5.0937    0.8971 H   0  0  0  0  0  0  0  0  0  0  0  0
    5.5708    5.4464    2.1497 H   0  0  0  0  0  0  0  0  0  0  0  0
    7.2287    6.0870   -2.3772 H   0  0  0  0  0  0  0  0  0  0  0  0
    8.4232    6.6280    0.1467 H   0  0  0  0  0  0  0  0  0  0  0  0
    7.0294    8.7048    0.2762 H   0  0  0  0  0  0  0  0  0  0  0  0
    8.7509    9.1458    0.0874 H   0  0  0  0  0  0  0  0  0  0  0  0
    7.6467    9.2333   -1.3373 H   0  0  0  0  0  0  0  0  0  0  0  0
   11.5652    7.5779   -1.7606 H   0  0  0  0  0  0  0  0  0  0  0  0
   10.2342    7.4429    0.9816 H   0  0  0  0  0  0  0  0  0  0  0  0
   12.2357    8.5895    1.7940 H   0  0  0  0  0  0  0  0  0  0  0  0
   12.9421    8.5922    0.1236 H   0  0  0  0  0  0  0  0  0  0  0  0
   11.4390    9.5305    0.4808 H   0  0  0  0  0  0  0  0  0  0  0  0
   12.0316    5.3138   -1.3007 H   0  0  0  0  0  0  0  0  0  0  0  0
   12.9969    3.6748    0.9824 H   0  0  0  0  0  0  0  0  0  0  0  0
   14.9636    5.2497   -0.7921 H   0  0  0  0  0  0  0  0  0  0  0  0
   14.7009    5.4563    0.9798 H   0  0  0  0  0  0  0  0  0  0  0  0
   15.4310    3.9348    0.3518 H   0  0  0  0  0  0  0  0  0  0  0  0
   13.1920    1.0013   -1.6129 H   0  0  0  0  0  0  0  0  0  0  0  0
   12.0436    1.6398    1.0122 H   0  0  0  0  0  0  0  0  0  0  0  0
   13.9031    0.5539    2.3889 H   0  0  0  0  0  0  0  0  0  0  0  0
   14.3964    2.1259    1.6921 H   0  0  0  0  0  0  0  0  0  0  0  0
   14.9675    0.6085    0.9294 H   0  0  0  0  0  0  0  0  0  0  0  0
   14.1649   -1.0936   -0.5502 H   0  0  0  0  0  0  0  0  0  0  0  0
   12.3737   -2.9234    1.0655 H   0  0  0  0  0  0  0  0  0  0  0  0
   14.2898   -4.4245    1.0833 H   0  0  0  0  0  0  0  0  0  0  0  0
   14.8996   -2.7812    1.4029 H   0  0  0  0  0  0  0  0  0  0  0  0
   15.1083   -3.5004   -0.2412 H   0  0  0  0  0  0  0  0  0  0  0  0
   12.9091   -5.0747   -2.3469 H   0  0  0  0  0  0  0  0  0  0  0  0
   12.4507   -5.6236    0.6207 H   0  0  0  0  0  0  0  0  0  0  0  0
   13.6580   -7.4386   -1.5594 H   0  0  0  0  0  0  0  0  0  0  0  0
   13.3985   -7.8625    0.1789 H   0  0  0  0  0  0  0  0  0  0  0  0
   14.5806   -6.5715   -0.2729 H   0  0  0  0  0  0  0  0  0  0  0  0
   10.6443   -7.7623    0.9321 H   0  0  0  0  0  0  0  0  0  0  0  0
    8.5750   -6.0957   -0.4646 H   0  0  0  0  0  0  0  0  0  0  0  0
    8.3662   -4.4778    1.4347 H   0  0  0  0  0  0  0  0  0  0  0  0
    9.9419   -4.3614    0.5854 H   0  0  0  0  0  0  0  0  0  0  0  0
    9.8492   -5.1911    2.1871 H   0  0  0  0  0  0  0  0  0  0  0  0
    6.2259   -8.1680    1.5600 H   0  0  0  0  0  0  0  0  0  0  0  0
    5.4377   -8.3827   -0.5698 H   0  0  0  0  0  0  0  0  0  0  0  0
    7.4565   -9.7454   -0.8328 H   0  0  0  0  0  0  0  0  0  0  0  0
    8.4078   -8.3195   -1.3813 H   0  0  0  0  0  0  0  0  0  0  0  0
    7.0164   -8.9219   -2.3695 H   0  0  0  0  0  0  0  0  0  0  0  0
    5.4635   -4.5284   -0.9804 H   0  0  0  0  0  0  0  0  0  0  0  0
    4.1243   -6.8116    0.5101 H   0  0  0  0  0  0  0  0  0  0  0  0
    3.6202   -6.5474    2.9760 H   0  0  0  0  0  0  0  0  0  0  0  0
    4.8733   -5.6733    3.9316 H   0  0  0  0  0  0  0  0  0  0  0  0
    2.4626   -4.9704    1.1144 H   0  0  0  0  0  0  0  0  0  0  0  0
    3.3999   -3.8586    0.0424 H   0  0  0  0  0  0  0  0  0  0  0  0
    0.6758   -4.2858   -2.5238 H   0  0  0  0  0  0  0  0  0  0  0  0
    2.1024   -3.3361   -2.0145 H   0  0  0  0  0  0  0  0  0  0  0  0
  1  2  1  0
  2  3  2  0
  2  4  1  0
  4  5  1  0
  5  6  1  0
  6  7  1  0
  7  8  1  0
  8  9  1  0
  9 10  2  0
 10 11  1  0
 11 12  2  0
 12 13  1  0
 13 14  2  0
 13 15  1  0
 15 16  1  0
 16 17  1  0
 17 18  1  0
 18 19  1  0
 19 20  1  0
 20 21  2  0
 20 22  1  0
 22 23  1  0
 22 24  1  0
 24 25  1  0
 25 26  2  0
 25 27  1  0
 27 28  1  0
 27 29  1  0
 29 30  1  0
 30 31  2  0
 30 32  1  0
 32 33  1  0
 32 34  1  0
 34 35  1  0
 35 36  2  0
 35 37  1  0
 37 38  1  0
 37 39  1  0
 39 40  1  0
 40 41  2  0
 40 42  1  0
 42 43  1  0
 42 44  1  0
 44 45  1  0
 45 46  2  0
 45 47  1  0
 47 48  1  0
 47 49  1  0
 49 50  1  0
 50 51  2  0
 50 52  1  0
 52 53  1  0
 52 54  1  0
 54 55  1  0
 55 56  2  0
 55 57  1  0
 57 58  1  0
 57 59  1  0
 59 60  1  0
 60 61  2  0
 60 62  1  0
 62 63  1  0
 62 64  1  0
 64 65  1  0
 65 66  2  0
 65 67  1  0
 67 68  1  0
 67 69  1  0
 69 70  1  0
 70 71  2  0
 18 72  1  0
 72 73  2  0
 72 74  1  0
 74 75  1  0
 75 76  1  0
 75 77  1  0
 77 78  2  0
 77 79  1  0
 79 80  1  0
 80 81  1  0
 80 82  1  0
 82 83  2  0
 82 84  1  0
 84 85  1  0
 85 86  1  0
 85 87  1  0
 87 88  2  0
 87 89  1  0
 89 90  1  0
 90 91  1  0
 90 92  1  0
 92 93  2  0
 92 94  1  0
 94 95  1  0
 95 96  1  0
 95 97  1  0
 97 98  2  0
 97 99  1  0
 99100  1  0
100101  1  0
100102  1  0
102103  2  0
102104  1  0
104105  1  0
105106  1  0
105107  1  0
107108  2  0
107109  1  0
109110  1  0
110111  1  0
110112  1  0
112113  2  0
112114  1  0
114115  1  0
115116  1  0
115117  1  0
117118  2  0
117119  1  0
119120  1  0
120121  1  0
120122  1  0
122123  2  0
122124  1  0
124125  1  0
125126  1  0
126127  1  0
126128  2  0
125129  1  0
129130  1  0
130131  1  0
 70  5  1  0
 14  9  1  0
131 11  1  0
  1132  1  0
  1133  1  0
  1134  1  0
  4135  1  0
  5136  1  6
  6137  1  0
  6138  1  0
  8139  1  0
  8140  1  0
 10141  1  0
 12142  1  0
 14143  1  0
 15144  1  0
 15145  1  0
 17146  1  0
 17147  1  0
 18148  1  1
 19149  1  0
 22150  1  1
 23151  1  0
 23152  1  0
 23153  1  0
 24154  1  0
 27155  1  1
 28156  1  0
 28157  1  0
 28158  1  0
 29159  1  0
 32160  1  1
 33161  1  0
 33162  1  0
 33163  1  0
 34164  1  0
 37165  1  1
 38166  1  0
 38167  1  0
 38168  1  0
 39169  1  0
 42170  1  1
 43171  1  0
 43172  1  0
 43173  1  0
 44174  1  0
 47175  1  1
 48176  1  0
 48177  1  0
 48178  1  0
 49179  1  0
 52180  1  1
 53181  1  0
 53182  1  0
 53183  1  0
 54184  1  0
 57185  1  6
 58186  1  0
 58187  1  0
 58188  1  0
 59189  1  0
 62190  1  1
 63191  1  0
 63192  1  0
 63193  1  0
 64194  1  0
 67195  1  1
 68196  1  0
 68197  1  0
 68198  1  0
 69199  1  0
 74200  1  0
 75201  1  6
 76202  1  0
 76203  1  0
 76204  1  0
 79205  1  0
 80206  1  6
 81207  1  0
 81208  1  0
 81209  1  0
 84210  1  0
 85211  1  1
 86212  1  0
 86213  1  0
 86214  1  0
 89215  1  0
 90216  1  1
 91217  1  0
 91218  1  0
 91219  1  0
 94220  1  0
 95221  1  1
 96222  1  0
 96223  1  0
 96224  1  0
 99225  1  0
100226  1  1
101227  1  0
101228  1  0
101229  1  0
104230  1  0
105231  1  1
106232  1  0
106233  1  0
106234  1  0
109235  1  0
110236  1  1
111237  1  0
111238  1  0
111239  1  0
114240  1  0
115241  1  6
116242  1  0
116243  1  0
116244  1  0
119245  1  0
120246  1  1
121247  1  0
121248  1  0
121249  1  0
124250  1  0
125251  1  1
127252  1  0
127253  1  0
129254  1  0
129255  1  0
131256  1  0
131257  1  0
M  END
