
     RDKit          3D

107109  0  0  0  0  0  0  0  0999 V2000
   -7.2735    3.3644   -0.1488 C   0  0  0  0  0  0  0  0  0  0  0  0
   -6.3826    2.4620   -0.9472 C   0  0  0  0  0  0  0  0  0  0  0  0
   -6.6424    2.2736   -2.1662 O   0  0  0  0  0  0  0  0  0  0  0  0
   -5.2462    1.8005   -0.3642 N   0  0  0  0  0  0  0  0  0  0  0  0
   -4.8010    1.9665    1.0200 C   0  0  2  0  0  0  0  0  0  0  0  0
   -3.4413    2.6988    1.0414 C   0  0  0  0  0  0  0  0  0  0  0  0
   -3.5103    4.3858    0.3107 S   0  0  0  0  0  0  0  0  0  0  0  0
   -3.0960    3.9819   -1.4323 C   0  0  0  0  0  0  0  0  0  0  0  0
   -1.7311    3.3608   -1.5767 C   0  0  0  0  0  0  0  0  0  0  0  0
   -0.5786    4.1395   -1.4207 C   0  0  0  0  0  0  0  0  0  0  0  0
    0.6924    3.5654   -1.5646 C   0  0  0  0  0  0  0  0  0  0  0  0
    0.8038    2.1910   -1.8227 C   0  0  0  0  0  0  0  0  0  0  0  0
   -0.3384    1.3867   -1.9626 C   0  0  0  0  0  0  0  0  0  0  0  0
   -1.6057    1.9936   -1.8747 C   0  0  0  0  0  0  0  0  0  0  0  0
   -0.1419   -0.1096   -2.0970 C   0  0  0  0  0  0  0  0  0  0  0  0
   -1.7060   -1.0760   -2.2052 S   0  0  0  0  0  0  0  0  0  0  0  0
   -0.9582   -2.7470   -2.1182 C   0  0  0  0  0  0  0  0  0  0  0  0
   -0.3360   -3.0696   -0.7409 C   0  0  1  0  0  0  0  0  0  0  0  0
   -1.0570   -2.4483    0.3809 N   0  0  0  0  0  0  0  0  0  0  0  0
   -2.2145   -2.9795    1.0424 C   0  0  0  0  0  0  0  0  0  0  0  0
   -2.2281   -2.9982    2.3038 O   0  0  0  0  0  0  0  0  0  0  0  0
   -3.4785   -3.3290    0.2912 C   0  0  1  0  0  0  0  0  0  0  0  0
   -4.1876   -4.5106    0.9780 C   0  0  0  0  0  0  0  0  0  0  0  0
   -4.3195   -2.1238    0.2157 N   0  0  0  0  0  0  0  0  0  0  0  0
   -5.7572   -2.1021    0.1698 C   0  0  0  0  0  0  0  0  0  0  0  0
   -6.3790   -3.0488   -0.3910 O   0  0  0  0  0  0  0  0  0  0  0  0
   -6.5178   -0.8829    0.6573 C   0  0  1  0  0  0  0  0  0  0  0  0
   -7.9587   -1.2368    1.0524 C   0  0  0  0  0  0  0  0  0  0  0  0
   -5.8401   -0.2770    1.8137 N   0  0  0  0  0  0  0  0  0  0  0  0
   -4.7156    0.6154    1.7175 C   0  0  0  0  0  0  0  0  0  0  0  0
   -3.6594    0.2972    2.3267 O   0  0  0  0  0  0  0  0  0  0  0  0
   -0.1479   -4.5587   -0.5210 C   0  0  0  0  0  0  0  0  0  0  0  0
   -1.1423   -5.3198   -0.6631 O   0  0  0  0  0  0  0  0  0  0  0  0
    1.1119   -5.1474   -0.1256 N   0  0  0  0  0  0  0  0  0  0  0  0
    2.3639   -4.4345    0.1883 C   0  0  2  0  0  0  0  0  0  0  0  0
    2.1395   -3.4111    1.3189 C   0  0  0  0  0  0  0  0  0  0  0  0
    3.0046   -3.8725   -1.0729 C   0  0  0  0  0  0  0  0  0  0  0  0
    2.3376   -3.8446   -2.1423 O   0  0  0  0  0  0  0  0  0  0  0  0
    4.4041   -3.5486   -1.1554 N   0  0  0  0  0  0  0  0  0  0  0  0
    5.1272   -2.5616   -0.3361 C   0  0  2  0  0  0  0  0  0  0  0  0
    5.4549   -3.1269    1.0573 C   0  0  0  0  0  0  0  0  0  0  0  0
    4.4150   -1.2208   -0.2737 C   0  0  0  0  0  0  0  0  0  0  0  0
    3.3642   -1.0333   -0.9480 O   0  0  0  0  0  0  0  0  0  0  0  0
    4.8948   -0.1472    0.5481 N   0  0  0  0  0  0  0  0  0  0  0  0
    6.3184    0.1524    0.7352 C   0  0  2  0  0  0  0  0  0  0  0  0
    6.6525    0.3943    2.2087 C   0  0  0  0  0  0  0  0  0  0  0  0
    6.7499    1.2877   -0.1661 C   0  0  0  0  0  0  0  0  0  0  0  0
    7.3672    0.9913   -1.2254 O   0  0  0  0  0  0  0  0  0  0  0  0
    6.5556    2.6808    0.1422 N   0  0  0  0  0  0  0  0  0  0  0  0
    5.3181    3.2533    0.6848 C   0  0  1  0  0  0  0  0  0  0  0  0
    5.6360    4.5156    1.4470 C   0  0  0  0  0  0  0  0  0  0  0  0
    6.2071    5.6539    0.7964 N   0  0  0  0  0  0  0  0  0  0  0  0
    5.4011    4.5661    2.6846 O   0  0  0  0  0  0  0  0  0  0  0  0
    4.3198    3.5166   -0.4508 C   0  0  0  0  0  0  0  0  0  0  0  0
    2.7076    4.0790    0.2108 S   0  0  0  0  0  0  0  0  0  0  0  0
    1.9323    4.4004   -1.4151 C   0  0  0  0  0  0  0  0  0  0  0  0
   -7.7358    2.7973    0.6845 H   0  0  0  0  0  0  0  0  0  0  0  0
   -8.0855    3.7752   -0.7836 H   0  0  0  0  0  0  0  0  0  0  0  0
   -6.6865    4.2124    0.2576 H   0  0  0  0  0  0  0  0  0  0  0  0
   -4.6772    1.1789   -0.9801 H   0  0  0  0  0  0  0  0  0  0  0  0
   -5.5223    2.5765    1.5950 H   0  0  0  0  0  0  0  0  0  0  0  0
   -2.6680    2.0777    0.5504 H   0  0  0  0  0  0  0  0  0  0  0  0
   -3.1220    2.8286    2.0989 H   0  0  0  0  0  0  0  0  0  0  0  0
   -3.1208    4.9247   -2.0165 H   0  0  0  0  0  0  0  0  0  0  0  0
   -3.8801    3.3338   -1.8673 H   0  0  0  0  0  0  0  0  0  0  0  0
   -0.6733    5.1942   -1.1958 H   0  0  0  0  0  0  0  0  0  0  0  0
    1.7887    1.7420   -1.8853 H   0  0  0  0  0  0  0  0  0  0  0  0
   -2.5061    1.4104   -1.9877 H   0  0  0  0  0  0  0  0  0  0  0  0
    0.4773   -0.3247   -2.9961 H   0  0  0  0  0  0  0  0  0  0  0  0
    0.4259   -0.4353   -1.2008 H   0  0  0  0  0  0  0  0  0  0  0  0
   -1.7470   -3.4789   -2.3812 H   0  0  0  0  0  0  0  0  0  0  0  0
   -0.1786   -2.8399   -2.9066 H   0  0  0  0  0  0  0  0  0  0  0  0
    0.6608   -2.6050   -0.7669 H   0  0  0  0  0  0  0  0  0  0  0  0
   -0.5342   -1.7128    0.9099 H   0  0  0  0  0  0  0  0  0  0  0  0
   -3.2308   -3.6457   -0.7369 H   0  0  0  0  0  0  0  0  0  0  0  0
   -4.6575   -4.1845    1.9298 H   0  0  0  0  0  0  0  0  0  0  0  0
   -4.9630   -4.9461    0.3165 H   0  0  0  0  0  0  0  0  0  0  0  0
   -3.4603   -5.3226    1.1996 H   0  0  0  0  0  0  0  0  0  0  0  0
   -3.8327   -1.2178    0.0368 H   0  0  0  0  0  0  0  0  0  0  0  0
   -6.5905   -0.1722   -0.1829 H   0  0  0  0  0  0  0  0  0  0  0  0
   -8.4827   -0.3248    1.4167 H   0  0  0  0  0  0  0  0  0  0  0  0
   -7.9646   -2.0028    1.8570 H   0  0  0  0  0  0  0  0  0  0  0  0
   -8.5164   -1.6248    0.1724 H   0  0  0  0  0  0  0  0  0  0  0  0
   -5.9075   -0.8111    2.7096 H   0  0  0  0  0  0  0  0  0  0  0  0
    1.1227   -6.1862   -0.0011 H   0  0  0  0  0  0  0  0  0  0  0  0
    3.0763   -5.1959    0.5767 H   0  0  0  0  0  0  0  0  0  0  0  0
    2.8753   -3.5636    2.1324 H   0  0  0  0  0  0  0  0  0  0  0  0
    2.2095   -2.3680    0.9612 H   0  0  0  0  0  0  0  0  0  0  0  0
    1.1466   -3.5499    1.7933 H   0  0  0  0  0  0  0  0  0  0  0  0
    4.8898   -3.8511   -2.0329 H   0  0  0  0  0  0  0  0  0  0  0  0
    6.0983   -2.3764   -0.8494 H   0  0  0  0  0  0  0  0  0  0  0  0
    4.8759   -2.6180    1.8542 H   0  0  0  0  0  0  0  0  0  0  0  0
    5.2609   -4.2200    1.1019 H   0  0  0  0  0  0  0  0  0  0  0  0
    6.5323   -2.9747    1.2907 H   0  0  0  0  0  0  0  0  0  0  0  0
    4.1884    0.5580    0.8472 H   0  0  0  0  0  0  0  0  0  0  0  0
    6.9240   -0.7316    0.4472 H   0  0  0  0  0  0  0  0  0  0  0  0
    7.7344    0.6186    2.3248 H   0  0  0  0  0  0  0  0  0  0  0  0
    6.0673    1.2213    2.6458 H   0  0  0  0  0  0  0  0  0  0  0  0
    6.4252   -0.5229    2.7934 H   0  0  0  0  0  0  0  0  0  0  0  0
    7.1902    3.3392   -0.3678 H   0  0  0  0  0  0  0  0  0  0  0  0
    4.8518    2.5481    1.3940 H   0  0  0  0  0  0  0  0  0  0  0  0
    6.4133    5.6424   -0.2242 H   0  0  0  0  0  0  0  0  0  0  0  0
    6.4275    6.5104    1.3476 H   0  0  0  0  0  0  0  0  0  0  0  0
    4.1578    2.5729   -1.0169 H   0  0  0  0  0  0  0  0  0  0  0  0
    4.7269    4.2720   -1.1521 H   0  0  0  0  0  0  0  0  0  0  0  0
    1.6866    5.4807   -1.4689 H   0  0  0  0  0  0  0  0  0  0  0  0
    2.6226    4.1836   -2.2592 H   0  0  0  0  0  0  0  0  0  0  0  0
  1  2  1  0
  2  3  2  0
  2  4  1  0
  4  5  1  0
  5  6  1  0
  6  7  1  0
  7  8  1  0
  8  9  1  0
  9 10  2  0
 10 11  1  0
 11 12  2  0
 12 13  1  0
 13 14  2  0
 13 15  1  0
 15 16  1  0
 16 17  1  0
 17 18  1  0
 18 19  1  0
 19 20  1  0
 20 21  2  0
 20 22  1  0
 22 23  1  0
 22 24  1  0
 24 25  1  0
 25 26  2  0
 25 27  1  0
 27 28  1  0
 27 29  1  0
 29 30  1  0
 30 31  2  0
 18 32  1  0
 32 33  2  0
 32 34  1  0
 34 35  1  0
 35 36  1  0
 35 37  1  0
 37 38  2  0
 37 39  1  0
 39 40  1  0
 40 41  1  0
 40 42  1  0
 42 43  2  0
 42 44  1  0
 44 45  1  0
 45 46  1  0
 45 47  1  0
 47 48  2  0
 47 49  1  0
 49 50  1  0
 50 51  1  0
 51 52  1  0
 51 53  2  0
 50 54  1  0
 54 55  1  0
 55 56  1  0
 30  5  1  0
 14  9  1  0
 56 11  1  0
  1 57  1  0
  1 58  1  0
  1 59  1  0
  4 60  1  0
  5 61  1  1
  6 62  1  0
  6 63  1  0
  8 64  1  0
  8 65  1  0
 10 66  1  0
 12 67  1  0
 14 68  1  0
 15 69  1  0
 15 70  1  0
 17 71  1  0
 17 72  1  0
 18 73  1  6
 19 74  1  0
 22 75  1  6
 23 76  1  0
 23 77  1  0
 23 78  1  0
 24 79  1  0
 27 80  1  6
 28 81  1  0
 28 82  1  0
 28 83  1  0
 29 84  1  0
 34 85  1  0
 35 86  1  1
 36 87  1  0
 36 88  1  0
 36 89  1  0
 39 90  1  0
 40 91  1  6
 41 92  1  0
 41 93  1  0
 41 94  1  0
 44 95  1  0
 45 96  1  6
 46 97  1  0
 46 98  1  0
 46 99  1  0
 49100  1  0
 50101  1  1
 52102  1  0
 52103  1  0
 54104  1  0
 54105  1  0
 56106  1  0
 56107  1  0
M  END
