
     RDKit          3D

107109  0  0  0  0  0  0  0  0999 V2000
   10.6577    0.6802    1.5059 C   0  0  0  0  0  0  0  0  0  0  0  0
    9.5655    0.2225    0.5495 C   0  0  0  0  0  0  0  0  0  0  0  0
    9.8736   -0.5350   -0.4087 O   0  0  0  0  0  0  0  0  0  0  0  0
    8.1919    0.3152    0.9838 N   0  0  0  0  0  0  0  0  0  0  0  0
    7.0070    0.0758    0.1326 C   0  0  1  0  0  0  0  0  0  0  0  0
    6.9931    1.0920   -1.0521 C   0  0  0  0  0  0  0  0  0  0  0  0
    5.2878    1.6540   -1.4863 S   0  0  0  0  0  0  0  0  0  0  0  0
    5.0925    3.2857   -0.6100 C   0  0  0  0  0  0  0  0  0  0  0  0
    3.7492    3.3877    0.1283 C   0  0  0  0  0  0  0  0  0  0  0  0
    3.0669    2.1926    0.4303 C   0  0  0  0  0  0  0  0  0  0  0  0
    1.8967    1.9652   -0.3163 C   0  0  0  0  0  0  0  0  0  0  0  0
    0.9974    3.0554   -0.3600 C   0  0  0  0  0  0  0  0  0  0  0  0
    1.4749    4.3215    0.0608 C   0  0  0  0  0  0  0  0  0  0  0  0
    2.8870    4.5338    0.0504 C   0  0  0  0  0  0  0  0  0  0  0  0
    0.5162    5.4406    0.4040 C   0  0  0  0  0  0  0  0  0  0  0  0
   -0.9318    4.7457    1.2763 S   0  0  0  0  0  0  0  0  0  0  0  0
   -2.1983    5.2171    0.0460 C   0  0  0  0  0  0  0  0  0  0  0  0
   -3.4193    4.2618    0.0693 C   0  0  1  0  0  0  0  0  0  0  0  0
   -4.6347    4.9668    0.6343 C   0  0  0  0  0  0  0  0  0  0  0  0
   -4.8745    4.9707    2.0389 N   0  0  0  0  0  0  0  0  0  0  0  0
   -5.4349    5.5671   -0.1473 O   0  0  0  0  0  0  0  0  0  0  0  0
   -3.7003    3.7724   -1.2924 N   0  0  0  0  0  0  0  0  0  0  0  0
   -4.6334    2.6996   -1.5975 C   0  0  0  0  0  0  0  0  0  0  0  0
   -4.6513    2.2360   -2.7856 O   0  0  0  0  0  0  0  0  0  0  0  0
   -5.5946    2.1014   -0.5927 C   0  0  1  0  0  0  0  0  0  0  0  0
   -7.0311    2.6272   -0.8157 C   0  0  0  0  0  0  0  0  0  0  0  0
   -5.5726    0.6415   -0.6884 N   0  0  0  0  0  0  0  0  0  0  0  0
   -4.8193   -0.1645    0.2267 C   0  0  0  0  0  0  0  0  0  0  0  0
   -3.5904    0.0843    0.4012 O   0  0  0  0  0  0  0  0  0  0  0  0
   -5.4839   -1.2567    1.0144 C   0  0  1  0  0  0  0  0  0  0  0  0
   -6.6453   -0.6709    1.8155 C   0  0  0  0  0  0  0  0  0  0  0  0
   -5.9616   -2.3147    0.1162 N   0  0  0  0  0  0  0  0  0  0  0  0
   -5.5971   -3.7091    0.1660 C   0  0  0  0  0  0  0  0  0  0  0  0
   -5.9370   -4.4567   -0.7978 O   0  0  0  0  0  0  0  0  0  0  0  0
   -4.7268   -4.2796    1.2648 C   0  0  1  0  0  0  0  0  0  0  0  0
   -5.0788   -5.7465    1.5359 C   0  0  0  0  0  0  0  0  0  0  0  0
   -3.3288   -4.0716    0.8770 N   0  0  0  0  0  0  0  0  0  0  0  0
   -2.3095   -5.0993    0.9038 C   0  0  0  0  0  0  0  0  0  0  0  0
   -2.0817   -5.7088    1.9747 O   0  0  0  0  0  0  0  0  0  0  0  0
   -1.5676   -5.4854   -0.3601 C   0  0  1  0  0  0  0  0  0  0  0  0
   -2.4486   -5.5121   -1.6136 C   0  0  0  0  0  0  0  0  0  0  0  0
   -0.3546   -4.6762   -0.5188 N   0  0  0  0  0  0  0  0  0  0  0  0
   -0.2479   -3.3121   -1.0075 C   0  0  0  0  0  0  0  0  0  0  0  0
   -1.2564   -2.5333   -0.9472 O   0  0  0  0  0  0  0  0  0  0  0  0
    1.1141   -2.7500   -1.3568 C   0  0  1  0  0  0  0  0  0  0  0  0
    1.0806   -1.5294   -2.3005 C   0  0  0  0  0  0  0  0  0  0  0  0
    0.3400    0.0149   -1.5611 S   0  0  0  0  0  0  0  0  0  0  0  0
    1.9196    0.8983   -1.3935 C   0  0  0  0  0  0  0  0  0  0  0  0
    1.8845   -2.4591   -0.1403 N   0  0  0  0  0  0  0  0  0  0  0  0
    3.2466   -2.8495   -0.0027 C   0  0  0  0  0  0  0  0  0  0  0  0
    3.5655   -4.0756   -0.1430 O   0  0  0  0  0  0  0  0  0  0  0  0
    4.3437   -1.7694    0.0836 C   0  0  1  0  0  0  0  0  0  0  0  0
    4.0740   -0.8297    1.2631 C   0  0  0  0  0  0  0  0  0  0  0  0
    5.7240   -2.2670    0.0827 N   0  0  0  0  0  0  0  0  0  0  0  0
    6.8538   -1.4121   -0.2675 C   0  0  0  0  0  0  0  0  0  0  0  0
    7.8448   -1.9949   -0.7891 O   0  0  0  0  0  0  0  0  0  0  0  0
   10.9032   -0.1702    2.1566 H   0  0  0  0  0  0  0  0  0  0  0  0
   10.2913    1.5392    2.1037 H   0  0  0  0  0  0  0  0  0  0  0  0
   11.5537    0.9887    0.9338 H   0  0  0  0  0  0  0  0  0  0  0  0
    8.0208    0.7309    1.9380 H   0  0  0  0  0  0  0  0  0  0  0  0
    6.1660    0.3715    0.7550 H   0  0  0  0  0  0  0  0  0  0  0  0
    7.6762    1.9766   -0.8663 H   0  0  0  0  0  0  0  0  0  0  0  0
    7.4270    0.5659   -1.9429 H   0  0  0  0  0  0  0  0  0  0  0  0
    5.9240    3.5027    0.0823 H   0  0  0  0  0  0  0  0  0  0  0  0
    5.1329    4.0961   -1.3736 H   0  0  0  0  0  0  0  0  0  0  0  0
    2.8375    2.1134    1.4964 H   0  0  0  0  0  0  0  0  0  0  0  0
    0.0344    2.9495   -0.8268 H   0  0  0  0  0  0  0  0  0  0  0  0
    3.3059    5.5235    0.0093 H   0  0  0  0  0  0  0  0  0  0  0  0
    1.0196    6.1411    1.1002 H   0  0  0  0  0  0  0  0  0  0  0  0
    0.2540    6.0098   -0.5269 H   0  0  0  0  0  0  0  0  0  0  0  0
   -2.5001    6.2825    0.2667 H   0  0  0  0  0  0  0  0  0  0  0  0
   -1.7419    5.2631   -0.9804 H   0  0  0  0  0  0  0  0  0  0  0  0
   -3.1928    3.3949    0.6982 H   0  0  0  0  0  0  0  0  0  0  0  0
   -5.7466    5.4451    2.4082 H   0  0  0  0  0  0  0  0  0  0  0  0
   -4.0809    4.8311    2.7099 H   0  0  0  0  0  0  0  0  0  0  0  0
   -3.1157    4.0825   -2.1036 H   0  0  0  0  0  0  0  0  0  0  0  0
   -5.2891    2.3929    0.4311 H   0  0  0  0  0  0  0  0  0  0  0  0
   -7.4418    2.1954   -1.7592 H   0  0  0  0  0  0  0  0  0  0  0  0
   -7.0201    3.7383   -0.9110 H   0  0  0  0  0  0  0  0  0  0  0  0
   -7.6615    2.3205    0.0420 H   0  0  0  0  0  0  0  0  0  0  0  0
   -6.1345    0.1651   -1.4380 H   0  0  0  0  0  0  0  0  0  0  0  0
   -4.7364   -1.6415    1.7424 H   0  0  0  0  0  0  0  0  0  0  0  0
   -7.1174   -1.4551    2.4443 H   0  0  0  0  0  0  0  0  0  0  0  0
   -6.2870    0.1309    2.4771 H   0  0  0  0  0  0  0  0  0  0  0  0
   -7.4207   -0.2600    1.1354 H   0  0  0  0  0  0  0  0  0  0  0  0
   -6.6139   -2.0414   -0.6523 H   0  0  0  0  0  0  0  0  0  0  0  0
   -4.9217   -3.7414    2.2167 H   0  0  0  0  0  0  0  0  0  0  0  0
   -4.5143   -6.1456    2.4100 H   0  0  0  0  0  0  0  0  0  0  0  0
   -6.1615   -5.8513    1.7375 H   0  0  0  0  0  0  0  0  0  0  0  0
   -4.8021   -6.3874    0.6669 H   0  0  0  0  0  0  0  0  0  0  0  0
   -3.1419   -3.2590    0.2423 H   0  0  0  0  0  0  0  0  0  0  0  0
   -1.2311   -6.5246   -0.1876 H   0  0  0  0  0  0  0  0  0  0  0  0
   -1.8356   -5.7807   -2.5146 H   0  0  0  0  0  0  0  0  0  0  0  0
   -3.2480   -6.2838   -1.4863 H   0  0  0  0  0  0  0  0  0  0  0  0
   -2.9468   -4.5256   -1.7717 H   0  0  0  0  0  0  0  0  0  0  0  0
    0.5373   -5.1626   -0.2882 H   0  0  0  0  0  0  0  0  0  0  0  0
    1.6237   -3.5897   -1.8800 H   0  0  0  0  0  0  0  0  0  0  0  0
    2.1259   -1.3237   -2.6556 H   0  0  0  0  0  0  0  0  0  0  0  0
    0.5171   -1.8252   -3.2278 H   0  0  0  0  0  0  0  0  0  0  0  0
    2.1833    1.3695   -2.3742 H   0  0  0  0  0  0  0  0  0  0  0  0
    2.7823    0.2236   -1.1886 H   0  0  0  0  0  0  0  0  0  0  0  0
    1.4844   -1.7799    0.5517 H   0  0  0  0  0  0  0  0  0  0  0  0
    4.2265   -1.2436   -0.8962 H   0  0  0  0  0  0  0  0  0  0  0  0
    3.0921   -0.9348    1.8334 H   0  0  0  0  0  0  0  0  0  0  0  0
    4.1001    0.1518    0.8017 H   0  0  0  0  0  0  0  0  0  0  0  0
    4.8349   -0.8932    2.0853 H   0  0  0  0  0  0  0  0  0  0  0  0
    5.7130   -3.2334   -0.3076 H   0  0  0  0  0  0  0  0  0  0  0  0
  1  2  1  0
  2  3  2  0
  2  4  1  0
  4  5  1  0
  5  6  1  0
  6  7  1  0
  7  8  1  0
  8  9  1  0
  9 10  1  0
 10 11  2  0
 11 12  1  0
 12 13  2  0
 13 14  1  0
 13 15  1  0
 15 16  1  0
 16 17  1  0
 17 18  1  0
 18 19  1  0
 19 20  1  0
 19 21  2  0
 18 22  1  0
 22 23  1  0
 23 24  2  0
 23 25  1  0
 25 26  1  0
 25 27  1  0
 27 28  1  0
 28 29  2  0
 28 30  1  0
 30 31  1  0
 30 32  1  0
 32 33  1  0
 33 34  2  0
 33 35  1  0
 35 36  1  0
 35 37  1  0
 37 38  1  0
 38 39  2  0
 38 40  1  0
 40 41  1  0
 40 42  1  0
 42 43  1  0
 43 44  2  0
 43 45  1  0
 45 46  1  0
 46 47  1  0
 47 48  1  0
 45 49  1  0
 49 50  1  0
 50 51  2  0
 50 52  1  0
 52 53  1  0
 52 54  1  0
 54 55  1  0
 55 56  2  0
 55  5  1  0
 14  9  2  0
 48 11  1  0
  1 57  1  0
  1 58  1  0
  1 59  1  0
  4 60  1  0
  5 61  1  1
  6 62  1  0
  6 63  1  0
  8 64  1  0
  8 65  1  0
 10 66  1  0
 12 67  1  0
 14 68  1  0
 15 69  1  0
 15 70  1  0
 17 71  1  0
 17 72  1  0
 18 73  1  1
 20 74  1  0
 20 75  1  0
 22 76  1  0
 25 77  1  1
 26 78  1  0
 26 79  1  0
 26 80  1  0
 27 81  1  0
 30 82  1  1
 31 83  1  0
 31 84  1  0
 31 85  1  0
 32 86  1  0
 35 87  1  1
 36 88  1  0
 36 89  1  0
 36 90  1  0
 37 91  1  0
 40 92  1  1
 41 93  1  0
 41 94  1  0
 41 95  1  0
 42 96  1  0
 45 97  1  6
 46 98  1  0
 46 99  1  0
 48100  1  0
 48101  1  0
 49102  1  0
 52103  1  6
 53104  1  0
 53105  1  0
 53106  1  0
 54107  1  0
M  END
