
     RDKit          3D

127129  0  0  0  0  0  0  0  0999 V2000
    6.9188    3.7056   -2.8388 C   0  0  0  0  0  0  0  0  0  0  0  0
    7.4888    2.7092   -1.8740 C   0  0  0  0  0  0  0  0  0  0  0  0
    8.7257    2.7378   -1.6161 O   0  0  0  0  0  0  0  0  0  0  0  0
    6.6434    1.7288   -1.2501 N   0  0  0  0  0  0  0  0  0  0  0  0
    6.8936    1.1696    0.0903 C   0  0  2  0  0  0  0  0  0  0  0  0
    6.9724    2.2966    1.1602 C   0  0  0  0  0  0  0  0  0  0  0  0
    5.3660    2.6063    1.9878 S   0  0  0  0  0  0  0  0  0  0  0  0
    4.5695    3.5709    0.6393 C   0  0  0  0  0  0  0  0  0  0  0  0
    3.0680    3.4233    0.6730 C   0  0  0  0  0  0  0  0  0  0  0  0
    2.2427    4.5337    0.4326 C   0  0  0  0  0  0  0  0  0  0  0  0
    0.8550    4.3720    0.3074 C   0  0  0  0  0  0  0  0  0  0  0  0
    0.2923    3.1002    0.4907 C   0  0  0  0  0  0  0  0  0  0  0  0
    1.0949    1.9839    0.7624 C   0  0  0  0  0  0  0  0  0  0  0  0
    2.4900    2.1535    0.8153 C   0  0  0  0  0  0  0  0  0  0  0  0
    0.4105    0.6458    0.9612 C   0  0  0  0  0  0  0  0  0  0  0  0
    1.5312   -0.7474    1.3786 S   0  0  0  0  0  0  0  0  0  0  0  0
    2.1928   -1.0067   -0.3146 C   0  0  0  0  0  0  0  0  0  0  0  0
    1.8241   -2.3916   -0.8579 C   0  0  1  0  0  0  0  0  0  0  0  0
    2.4481   -3.4204   -0.0192 N   0  0  0  0  0  0  0  0  0  0  0  0
    3.5701   -4.1638   -0.5065 C   0  0  0  0  0  0  0  0  0  0  0  0
    3.4706   -4.8116   -1.5832 O   0  0  0  0  0  0  0  0  0  0  0  0
    4.8610   -4.1764    0.2737 C   0  0  1  0  0  0  0  0  0  0  0  0
    4.9146   -5.3874    1.2090 C   0  0  0  0  0  0  0  0  0  0  0  0
    6.0040   -4.2031   -0.6480 N   0  0  0  0  0  0  0  0  0  0  0  0
    6.8366   -3.0694   -0.9465 C   0  0  0  0  0  0  0  0  0  0  0  0
    7.2882   -2.9486   -2.1180 O   0  0  0  0  0  0  0  0  0  0  0  0
    7.2570   -2.0752    0.1192 C   0  0  1  0  0  0  0  0  0  0  0  0
    8.0376   -2.7953    1.2266 C   0  0  0  0  0  0  0  0  0  0  0  0
    8.1104   -1.0262   -0.4558 N   0  0  0  0  0  0  0  0  0  0  0  0
    8.1395    0.3144    0.0524 C   0  0  0  0  0  0  0  0  0  0  0  0
    9.2530    0.8217    0.3631 O   0  0  0  0  0  0  0  0  0  0  0  0
    0.3235   -2.5463   -0.9446 C   0  0  0  0  0  0  0  0  0  0  0  0
   -0.3263   -1.7861   -1.7099 O   0  0  0  0  0  0  0  0  0  0  0  0
   -0.3998   -3.4740   -0.1280 N   0  0  0  0  0  0  0  0  0  0  0  0
   -0.3122   -4.9305   -0.3204 C   0  0  2  0  0  0  0  0  0  0  0  0
   -0.6007   -5.3096   -1.7730 C   0  0  0  0  0  0  0  0  0  0  0  0
   -1.2474   -5.6730    0.6030 C   0  0  0  0  0  0  0  0  0  0  0  0
   -0.9785   -6.8648    0.9130 O   0  0  0  0  0  0  0  0  0  0  0  0
   -2.4270   -5.0629    1.1426 N   0  0  0  0  0  0  0  0  0  0  0  0
   -3.7571   -5.1837    0.5394 C   0  0  2  0  0  0  0  0  0  0  0  0
   -3.9861   -6.5686   -0.0833 C   0  0  0  0  0  0  0  0  0  0  0  0
   -4.0138   -4.0579   -0.4316 C   0  0  0  0  0  0  0  0  0  0  0  0
   -4.0022   -4.2689   -1.6741 O   0  0  0  0  0  0  0  0  0  0  0  0
   -4.3307   -2.7483    0.0715 N   0  0  0  0  0  0  0  0  0  0  0  0
   -5.6803   -2.1616   -0.0380 C   0  0  2  0  0  0  0  0  0  0  0  0
   -6.7523   -3.1918    0.3627 C   0  0  0  0  0  0  0  0  0  0  0  0
   -5.9569   -1.6321   -1.4390 C   0  0  0  0  0  0  0  0  0  0  0  0
   -5.7492   -2.3927   -2.4237 O   0  0  0  0  0  0  0  0  0  0  0  0
   -6.4867   -0.3121   -1.6973 N   0  0  0  0  0  0  0  0  0  0  0  0
   -6.9567    0.6630   -0.6941 C   0  0  2  0  0  0  0  0  0  0  0  0
   -8.1518    0.1047    0.1009 C   0  0  0  0  0  0  0  0  0  0  0  0
   -7.4235    1.9351   -1.3869 C   0  0  0  0  0  0  0  0  0  0  0  0
   -8.2964    1.8304   -2.2908 O   0  0  0  0  0  0  0  0  0  0  0  0
   -6.9898    3.2550   -1.0047 N   0  0  0  0  0  0  0  0  0  0  0  0
   -6.0035    3.5745    0.0362 C   0  0  2  0  0  0  0  0  0  0  0  0
   -6.5872    3.3421    1.4398 C   0  0  0  0  0  0  0  0  0  0  0  0
   -5.5641    5.0138   -0.1059 C   0  0  0  0  0  0  0  0  0  0  0  0
   -6.3324    5.9411    0.2644 O   0  0  0  0  0  0  0  0  0  0  0  0
   -4.3227    5.3198   -0.7567 N   0  0  0  0  0  0  0  0  0  0  0  0
   -3.2896    6.1984   -0.1883 C   0  0  1  0  0  0  0  0  0  0  0  0
   -3.8260    7.5632    0.1885 C   0  0  0  0  0  0  0  0  0  0  0  0
   -4.5452    7.7881    1.4036 N   0  0  0  0  0  0  0  0  0  0  0  0
   -3.6158    8.5396   -0.5833 O   0  0  0  0  0  0  0  0  0  0  0  0
   -2.5485    5.4815    0.9642 C   0  0  0  0  0  0  0  0  0  0  0  0
   -0.9123    6.2286    1.3262 S   0  0  0  0  0  0  0  0  0  0  0  0
   -0.0143    5.5243   -0.1045 C   0  0  0  0  0  0  0  0  0  0  0  0
    5.8257    3.5502   -2.9745 H   0  0  0  0  0  0  0  0  0  0  0  0
    7.1038    4.7352   -2.4569 H   0  0  0  0  0  0  0  0  0  0  0  0
    7.4159    3.5918   -3.8291 H   0  0  0  0  0  0  0  0  0  0  0  0
    5.7425    1.4818   -1.7307 H   0  0  0  0  0  0  0  0  0  0  0  0
    6.0322    0.5239    0.3546 H   0  0  0  0  0  0  0  0  0  0  0  0
    7.3790    3.2457    0.7435 H   0  0  0  0  0  0  0  0  0  0  0  0
    7.6608    1.9789    1.9714 H   0  0  0  0  0  0  0  0  0  0  0  0
    4.8699    4.6346    0.7383 H   0  0  0  0  0  0  0  0  0  0  0  0
    4.9084    3.2263   -0.3520 H   0  0  0  0  0  0  0  0  0  0  0  0
    2.6874    5.5131    0.2923 H   0  0  0  0  0  0  0  0  0  0  0  0
   -0.7723    2.9585    0.3869 H   0  0  0  0  0  0  0  0  0  0  0  0
    3.1413    1.3075    0.9515 H   0  0  0  0  0  0  0  0  0  0  0  0
   -0.1815    0.4000    0.0505 H   0  0  0  0  0  0  0  0  0  0  0  0
   -0.3102    0.7434    1.7964 H   0  0  0  0  0  0  0  0  0  0  0  0
    3.3000   -0.9314   -0.2572 H   0  0  0  0  0  0  0  0  0  0  0  0
    1.8523   -0.2259   -1.0256 H   0  0  0  0  0  0  0  0  0  0  0  0
    2.2240   -2.4723   -1.8974 H   0  0  0  0  0  0  0  0  0  0  0  0
    2.2796   -3.4090    1.0098 H   0  0  0  0  0  0  0  0  0  0  0  0
    4.8929   -3.2608    0.9043 H   0  0  0  0  0  0  0  0  0  0  0  0
    4.8664   -6.3327    0.6259 H   0  0  0  0  0  0  0  0  0  0  0  0
    5.8632   -5.3743    1.7894 H   0  0  0  0  0  0  0  0  0  0  0  0
    4.0671   -5.3610    1.9249 H   0  0  0  0  0  0  0  0  0  0  0  0
    6.0850   -5.0306   -1.2832 H   0  0  0  0  0  0  0  0  0  0  0  0
    6.3495   -1.6249    0.5738 H   0  0  0  0  0  0  0  0  0  0  0  0
    8.9150   -3.3245    0.7988 H   0  0  0  0  0  0  0  0  0  0  0  0
    8.4027   -2.0543    1.9779 H   0  0  0  0  0  0  0  0  0  0  0  0
    7.3907   -3.5226    1.7534 H   0  0  0  0  0  0  0  0  0  0  0  0
    8.9633   -1.3393   -0.9716 H   0  0  0  0  0  0  0  0  0  0  0  0
   -1.1560   -3.0626    0.4675 H   0  0  0  0  0  0  0  0  0  0  0  0
    0.7166   -5.2612   -0.0765 H   0  0  0  0  0  0  0  0  0  0  0  0
   -0.5999   -6.4132   -1.8937 H   0  0  0  0  0  0  0  0  0  0  0  0
   -1.5822   -4.9113   -2.0943 H   0  0  0  0  0  0  0  0  0  0  0  0
    0.1824   -4.8901   -2.4402 H   0  0  0  0  0  0  0  0  0  0  0  0
   -2.3749   -4.7272    2.1373 H   0  0  0  0  0  0  0  0  0  0  0  0
   -4.5075   -5.0814    1.3545 H   0  0  0  0  0  0  0  0  0  0  0  0
   -3.2856   -6.7461   -0.9241 H   0  0  0  0  0  0  0  0  0  0  0  0
   -5.0295   -6.6479   -0.4543 H   0  0  0  0  0  0  0  0  0  0  0  0
   -3.8336   -7.3517    0.6874 H   0  0  0  0  0  0  0  0  0  0  0  0
   -3.7370   -2.3937    0.8515 H   0  0  0  0  0  0  0  0  0  0  0  0
   -5.7347   -1.3242    0.6873 H   0  0  0  0  0  0  0  0  0  0  0  0
   -6.5939   -3.5090    1.4157 H   0  0  0  0  0  0  0  0  0  0  0  0
   -6.7102   -4.0852   -0.2953 H   0  0  0  0  0  0  0  0  0  0  0  0
   -7.7677   -2.7579    0.2809 H   0  0  0  0  0  0  0  0  0  0  0  0
   -6.5529   -0.0470   -2.7105 H   0  0  0  0  0  0  0  0  0  0  0  0
   -6.1226    0.8782   -0.0018 H   0  0  0  0  0  0  0  0  0  0  0  0
   -8.7238    0.9288    0.5882 H   0  0  0  0  0  0  0  0  0  0  0  0
   -7.8180   -0.5598    0.9193 H   0  0  0  0  0  0  0  0  0  0  0  0
   -8.8429   -0.4529   -0.5666 H   0  0  0  0  0  0  0  0  0  0  0  0
   -7.3787    4.0419   -1.5731 H   0  0  0  0  0  0  0  0  0  0  0  0
   -5.1116    2.9238   -0.0952 H   0  0  0  0  0  0  0  0  0  0  0  0
   -5.8367    3.5981    2.2126 H   0  0  0  0  0  0  0  0  0  0  0  0
   -7.4946    3.9743    1.5959 H   0  0  0  0  0  0  0  0  0  0  0  0
   -6.8820    2.2877    1.5864 H   0  0  0  0  0  0  0  0  0  0  0  0
   -3.9822    4.6204   -1.4525 H   0  0  0  0  0  0  0  0  0  0  0  0
   -2.5578    6.3776   -1.0017 H   0  0  0  0  0  0  0  0  0  0  0  0
   -4.7511    7.0164    2.0771 H   0  0  0  0  0  0  0  0  0  0  0  0
   -4.9435    8.7390    1.6045 H   0  0  0  0  0  0  0  0  0  0  0  0
   -2.4131    4.4177    0.7004 H   0  0  0  0  0  0  0  0  0  0  0  0
   -3.1511    5.4823    1.8935 H   0  0  0  0  0  0  0  0  0  0  0  0
    0.6082    6.3334   -0.5418 H   0  0  0  0  0  0  0  0  0  0  0  0
   -0.6939    5.1875   -0.9188 H   0  0  0  0  0  0  0  0  0  0  0  0
  1  2  1  0
  2  3  2  0
  2  4  1  0
  4  5  1  0
  5  6  1  0
  6  7  1  0
  7  8  1  0
  8  9  1  0
  9 10  2  0
 10 11  1  0
 11 12  2  0
 12 13  1  0
 13 14  2  0
 13 15  1  0
 15 16  1  0
 16 17  1  0
 17 18  1  0
 18 19  1  0
 19 20  1  0
 20 21  2  0
 20 22  1  0
 22 23  1  0
 22 24  1  0
 24 25  1  0
 25 26  2  0
 25 27  1  0
 27 28  1  0
 27 29  1  0
 29 30  1  0
 30 31  2  0
 18 32  1  0
 32 33  2  0
 32 34  1  0
 34 35  1  0
 35 36  1  0
 35 37  1  0
 37 38  2  0
 37 39  1  0
 39 40  1  0
 40 41  1  0
 40 42  1  0
 42 43  2  0
 42 44  1  0
 44 45  1  0
 45 46  1  0
 45 47  1  0
 47 48  2  0
 47 49  1  0
 49 50  1  0
 50 51  1  0
 50 52  1  0
 52 53  2  0
 52 54  1  0
 54 55  1  0
 55 56  1  0
 55 57  1  0
 57 58  2  0
 57 59  1  0
 59 60  1  0
 60 61  1  0
 61 62  1  0
 61 63  2  0
 60 64  1  0
 64 65  1  0
 65 66  1  0
 30  5  1  0
 14  9  1  0
 66 11  1  0
  1 67  1  0
  1 68  1  0
  1 69  1  0
  4 70  1  0
  5 71  1  1
  6 72  1  0
  6 73  1  0
  8 74  1  0
  8 75  1  0
 10 76  1  0
 12 77  1  0
 14 78  1  0
 15 79  1  0
 15 80  1  0
 17 81  1  0
 17 82  1  0
 18 83  1  6
 19 84  1  0
 22 85  1  1
 23 86  1  0
 23 87  1  0
 23 88  1  0
 24 89  1  0
 27 90  1  1
 28 91  1  0
 28 92  1  0
 28 93  1  0
 29 94  1  0
 34 95  1  0
 35 96  1  1
 36 97  1  0
 36 98  1  0
 36 99  1  0
 39100  1  0
 40101  1  1
 41102  1  0
 41103  1  0
 41104  1  0
 44105  1  0
 45106  1  1
 46107  1  0
 46108  1  0
 46109  1  0
 49110  1  0
 50111  1  1
 51112  1  0
 51113  1  0
 51114  1  0
 54115  1  0
 55116  1  6
 56117  1  0
 56118  1  0
 56119  1  0
 59120  1  0
 60121  1  6
 62122  1  0
 62123  1  0
 64124  1  0
 64125  1  0
 66126  1  0
 66127  1  0
M  END
