
     RDKit          3D

137139  0  0  0  0  0  0  0  0999 V2000
    8.8878    1.5210    2.2207 C   0  0  0  0  0  0  0  0  0  0  0  0
    7.9184    1.3556    1.0946 C   0  0  0  0  0  0  0  0  0  0  0  0
    6.8129    0.7886    1.3061 O   0  0  0  0  0  0  0  0  0  0  0  0
    8.2465    1.8668   -0.2058 N   0  0  0  0  0  0  0  0  0  0  0  0
    7.3204    1.8122   -1.3419 C   0  0  1  0  0  0  0  0  0  0  0  0
    6.8181    3.2282   -1.6873 C   0  0  0  0  0  0  0  0  0  0  0  0
    5.6631    3.8515   -0.4111 S   0  0  0  0  0  0  0  0  0  0  0  0
    4.1516    3.1652   -1.1858 C   0  0  0  0  0  0  0  0  0  0  0  0
    3.0703    3.0385   -0.1550 C   0  0  0  0  0  0  0  0  0  0  0  0
    1.8787    3.7760   -0.2524 C   0  0  0  0  0  0  0  0  0  0  0  0
    0.8410    3.5839    0.6853 C   0  0  0  0  0  0  0  0  0  0  0  0
    0.9899    2.6003    1.6755 C   0  0  0  0  0  0  0  0  0  0  0  0
    2.1622    1.8350    1.7582 C   0  0  0  0  0  0  0  0  0  0  0  0
    3.2101    2.0790    0.8605 C   0  0  0  0  0  0  0  0  0  0  0  0
    2.2664    0.7121    2.7569 C   0  0  0  0  0  0  0  0  0  0  0  0
    1.0057   -0.5720    2.4188 S   0  0  0  0  0  0  0  0  0  0  0  0
    1.6535   -1.1796    0.8038 C   0  0  0  0  0  0  0  0  0  0  0  0
    2.6774   -2.3377    0.8935 C   0  0  1  0  0  0  0  0  0  0  0  0
    4.0275   -1.8617    1.2237 N   0  0  0  0  0  0  0  0  0  0  0  0
    5.0966   -2.7868    1.4448 C   0  0  0  0  0  0  0  0  0  0  0  0
    5.1561   -3.3965    2.5467 O   0  0  0  0  0  0  0  0  0  0  0  0
    6.1931   -2.9765    0.4105 C   0  0  1  0  0  0  0  0  0  0  0  0
    6.6936   -4.4302    0.4383 C   0  0  0  0  0  0  0  0  0  0  0  0
    5.6911   -2.6739   -0.9329 N   0  0  0  0  0  0  0  0  0  0  0  0
    6.3657   -1.9004   -1.9431 C   0  0  0  0  0  0  0  0  0  0  0  0
    5.8137   -1.7866   -3.0672 O   0  0  0  0  0  0  0  0  0  0  0  0
    7.7209   -1.2520   -1.7298 C   0  0  1  0  0  0  0  0  0  0  0  0
    8.8442   -2.2905   -1.7849 C   0  0  0  0  0  0  0  0  0  0  0  0
    7.9683   -0.2358   -2.7635 N   0  0  0  0  0  0  0  0  0  0  0  0
    8.0262    1.1762   -2.5191 C   0  0  0  0  0  0  0  0  0  0  0  0
    8.6800    1.9001   -3.3157 O   0  0  0  0  0  0  0  0  0  0  0  0
    2.2085   -3.4232    1.8327 C   0  0  0  0  0  0  0  0  0  0  0  0
    2.1786   -3.2295    3.0799 O   0  0  0  0  0  0  0  0  0  0  0  0
    1.7984   -4.6866    1.3030 N   0  0  0  0  0  0  0  0  0  0  0  0
    0.4517   -5.2100    1.5392 C   0  0  2  0  0  0  0  0  0  0  0  0
    0.4956   -6.3084    2.6008 C   0  0  0  0  0  0  0  0  0  0  0  0
   -0.1087   -5.7431    0.2443 C   0  0  0  0  0  0  0  0  0  0  0  0
    0.5114   -6.6582   -0.3677 O   0  0  0  0  0  0  0  0  0  0  0  0
   -1.2819   -5.1781   -0.3533 N   0  0  0  0  0  0  0  0  0  0  0  0
   -2.5402   -5.0118    0.3839 C   0  0  2  0  0  0  0  0  0  0  0  0
   -3.3586   -6.3060    0.2508 C   0  0  0  0  0  0  0  0  0  0  0  0
   -3.2923   -3.8185   -0.1609 C   0  0  0  0  0  0  0  0  0  0  0  0
   -2.6516   -2.8569   -0.6711 O   0  0  0  0  0  0  0  0  0  0  0  0
   -4.7234   -3.7338   -0.0647 N   0  0  0  0  0  0  0  0  0  0  0  0
   -5.5668   -3.8049   -1.2695 C   0  0  2  0  0  0  0  0  0  0  0  0
   -5.1602   -2.7756   -2.3345 C   0  0  0  0  0  0  0  0  0  0  0  0
   -7.0278   -3.6697   -0.9038 C   0  0  0  0  0  0  0  0  0  0  0  0
   -7.7661   -4.6912   -0.9856 O   0  0  0  0  0  0  0  0  0  0  0  0
   -7.6272   -2.4153   -0.5359 N   0  0  0  0  0  0  0  0  0  0  0  0
   -6.9703   -1.4097    0.2985 C   0  0  2  0  0  0  0  0  0  0  0  0
   -7.4029   -1.5983    1.7566 C   0  0  0  0  0  0  0  0  0  0  0  0
   -7.2755   -0.0333   -0.2384 C   0  0  0  0  0  0  0  0  0  0  0  0
   -6.7649    0.3188   -1.3371 O   0  0  0  0  0  0  0  0  0  0  0  0
   -8.1151    0.8861    0.4692 N   0  0  0  0  0  0  0  0  0  0  0  0
   -7.7060    2.2759    0.6924 C   0  0  2  0  0  0  0  0  0  0  0  0
   -8.4753    2.8671    1.8811 C   0  0  0  0  0  0  0  0  0  0  0  0
   -7.9491    3.1142   -0.5353 C   0  0  0  0  0  0  0  0  0  0  0  0
   -8.8696    2.8032   -1.3410 O   0  0  0  0  0  0  0  0  0  0  0  0
   -7.2382    4.3497   -0.7292 N   0  0  0  0  0  0  0  0  0  0  0  0
   -5.8253    4.4600   -1.1221 C   0  0  2  0  0  0  0  0  0  0  0  0
   -5.2785    3.1582   -1.7296 C   0  0  0  0  0  0  0  0  0  0  0  0
   -4.9715    4.9076    0.0392 C   0  0  0  0  0  0  0  0  0  0  0  0
   -5.4504    4.8561    1.2055 O   0  0  0  0  0  0  0  0  0  0  0  0
   -3.6103    5.3428   -0.1302 N   0  0  0  0  0  0  0  0  0  0  0  0
   -3.0827    5.9598   -1.3585 C   0  0  1  0  0  0  0  0  0  0  0  0
   -3.1736    7.4701   -1.3162 C   0  0  0  0  0  0  0  0  0  0  0  0
   -3.6684    8.1760   -0.1771 N   0  0  0  0  0  0  0  0  0  0  0  0
   -2.8161    8.1309   -2.3339 O   0  0  0  0  0  0  0  0  0  0  0  0
   -1.6417    5.4792   -1.6459 C   0  0  0  0  0  0  0  0  0  0  0  0
   -0.4462    5.8864   -0.3081 S   0  0  0  0  0  0  0  0  0  0  0  0
   -0.5030    4.2713    0.5698 C   0  0  0  0  0  0  0  0  0  0  0  0
    9.0716    2.5995    2.3976 H   0  0  0  0  0  0  0  0  0  0  0  0
    9.8448    1.0189    1.9638 H   0  0  0  0  0  0  0  0  0  0  0  0
    8.4872    1.0674    3.1521 H   0  0  0  0  0  0  0  0  0  0  0  0
    9.1700    2.3416   -0.3348 H   0  0  0  0  0  0  0  0  0  0  0  0
    6.4391    1.1826   -1.0976 H   0  0  0  0  0  0  0  0  0  0  0  0
    7.6821    3.9292   -1.7458 H   0  0  0  0  0  0  0  0  0  0  0  0
    6.3160    3.2251   -2.6817 H   0  0  0  0  0  0  0  0  0  0  0  0
    3.8452    3.8226   -2.0254 H   0  0  0  0  0  0  0  0  0  0  0  0
    4.3481    2.1529   -1.5992 H   0  0  0  0  0  0  0  0  0  0  0  0
    1.7630    4.4703   -1.0737 H   0  0  0  0  0  0  0  0  0  0  0  0
    0.1719    2.3944    2.3601 H   0  0  0  0  0  0  0  0  0  0  0  0
    4.1157    1.4828    0.9104 H   0  0  0  0  0  0  0  0  0  0  0  0
    2.0823    1.1100    3.7771 H   0  0  0  0  0  0  0  0  0  0  0  0
    3.2809    0.2544    2.7592 H   0  0  0  0  0  0  0  0  0  0  0  0
    2.0700   -0.3503    0.1956 H   0  0  0  0  0  0  0  0  0  0  0  0
    0.7661   -1.5507    0.2428 H   0  0  0  0  0  0  0  0  0  0  0  0
    2.7208   -2.7817   -0.1243 H   0  0  0  0  0  0  0  0  0  0  0  0
    4.3032   -0.9146    0.8719 H   0  0  0  0  0  0  0  0  0  0  0  0
    7.0338   -2.3121    0.6871 H   0  0  0  0  0  0  0  0  0  0  0  0
    7.2472   -4.6278    1.3818 H   0  0  0  0  0  0  0  0  0  0  0  0
    5.8389   -5.1375    0.3604 H   0  0  0  0  0  0  0  0  0  0  0  0
    7.3739   -4.6262   -0.4128 H   0  0  0  0  0  0  0  0  0  0  0  0
    4.8150   -3.1603   -1.2310 H   0  0  0  0  0  0  0  0  0  0  0  0
    7.7470   -0.7761   -0.7362 H   0  0  0  0  0  0  0  0  0  0  0  0
    9.8302   -1.7806   -1.8067 H   0  0  0  0  0  0  0  0  0  0  0  0
    8.8311   -2.9412   -0.8860 H   0  0  0  0  0  0  0  0  0  0  0  0
    8.7519   -2.9259   -2.6934 H   0  0  0  0  0  0  0  0  0  0  0  0
    8.1972   -0.5672   -3.7291 H   0  0  0  0  0  0  0  0  0  0  0  0
    2.4715   -5.2194    0.7040 H   0  0  0  0  0  0  0  0  0  0  0  0
   -0.1936   -4.3850    1.9100 H   0  0  0  0  0  0  0  0  0  0  0  0
    0.7831   -5.8665    3.5799 H   0  0  0  0  0  0  0  0  0  0  0  0
   -0.4962   -6.7967    2.6996 H   0  0  0  0  0  0  0  0  0  0  0  0
    1.2557   -7.0737    2.3255 H   0  0  0  0  0  0  0  0  0  0  0  0
   -1.3475   -5.2247   -1.3992 H   0  0  0  0  0  0  0  0  0  0  0  0
   -2.3444   -4.8339    1.4634 H   0  0  0  0  0  0  0  0  0  0  0  0
   -2.7613   -7.1688    0.6119 H   0  0  0  0  0  0  0  0  0  0  0  0
   -4.2771   -6.2514    0.8739 H   0  0  0  0  0  0  0  0  0  0  0  0
   -3.6440   -6.4800   -0.8093 H   0  0  0  0  0  0  0  0  0  0  0  0
   -5.1430   -4.0723    0.8279 H   0  0  0  0  0  0  0  0  0  0  0  0
   -5.4193   -4.8146   -1.7198 H   0  0  0  0  0  0  0  0  0  0  0  0
   -4.1714   -3.0488   -2.7670 H   0  0  0  0  0  0  0  0  0  0  0  0
   -5.8985   -2.7735   -3.1653 H   0  0  0  0  0  0  0  0  0  0  0  0
   -5.0944   -1.7526   -1.9084 H   0  0  0  0  0  0  0  0  0  0  0  0
   -8.6636   -2.3427   -0.6388 H   0  0  0  0  0  0  0  0  0  0  0  0
   -5.8702   -1.5230    0.2707 H   0  0  0  0  0  0  0  0  0  0  0  0
   -7.0276   -2.5732    2.1307 H   0  0  0  0  0  0  0  0  0  0  0  0
   -6.9754   -0.7942    2.3964 H   0  0  0  0  0  0  0  0  0  0  0  0
   -8.5061   -1.5943    1.8464 H   0  0  0  0  0  0  0  0  0  0  0  0
   -8.9973    0.5246    0.9091 H   0  0  0  0  0  0  0  0  0  0  0  0
   -6.6283    2.2934    0.9529 H   0  0  0  0  0  0  0  0  0  0  0  0
   -8.0134    3.8246    2.1976 H   0  0  0  0  0  0  0  0  0  0  0  0
   -8.4389    2.1659    2.7460 H   0  0  0  0  0  0  0  0  0  0  0  0
   -9.5383    3.0492    1.6245 H   0  0  0  0  0  0  0  0  0  0  0  0
   -7.7979    5.2350   -0.6864 H   0  0  0  0  0  0  0  0  0  0  0  0
   -5.7893    5.2375   -1.9102 H   0  0  0  0  0  0  0  0  0  0  0  0
   -4.2719    3.3261   -2.1713 H   0  0  0  0  0  0  0  0  0  0  0  0
   -5.1836    2.3732   -0.9540 H   0  0  0  0  0  0  0  0  0  0  0  0
   -5.9504    2.8002   -2.5401 H   0  0  0  0  0  0  0  0  0  0  0  0
   -3.0541    5.4604    0.7449 H   0  0  0  0  0  0  0  0  0  0  0  0
   -3.6753    5.6298   -2.2342 H   0  0  0  0  0  0  0  0  0  0  0  0
   -3.7395    9.2168   -0.2030 H   0  0  0  0  0  0  0  0  0  0  0  0
   -3.8721    7.6942    0.7273 H   0  0  0  0  0  0  0  0  0  0  0  0
   -1.2785    5.9661   -2.5777 H   0  0  0  0  0  0  0  0  0  0  0  0
   -1.6468    4.3885   -1.8660 H   0  0  0  0  0  0  0  0  0  0  0  0
   -0.8881    4.4824    1.5863 H   0  0  0  0  0  0  0  0  0  0  0  0
   -1.2133    3.5605    0.0996 H   0  0  0  0  0  0  0  0  0  0  0  0
  1  2  1  0
  2  3  2  0
  2  4  1  0
  4  5  1  0
  5  6  1  0
  6  7  1  0
  7  8  1  0
  8  9  1  0
  9 10  2  0
 10 11  1  0
 11 12  2  0
 12 13  1  0
 13 14  2  0
 13 15  1  0
 15 16  1  0
 16 17  1  0
 17 18  1  0
 18 19  1  0
 19 20  1  0
 20 21  2  0
 20 22  1  0
 22 23  1  0
 22 24  1  0
 24 25  1  0
 25 26  2  0
 25 27  1  0
 27 28  1  0
 27 29  1  0
 29 30  1  0
 30 31  2  0
 18 32  1  0
 32 33  2  0
 32 34  1  0
 34 35  1  0
 35 36  1  0
 35 37  1  0
 37 38  2  0
 37 39  1  0
 39 40  1  0
 40 41  1  0
 40 42  1  0
 42 43  2  0
 42 44  1  0
 44 45  1  0
 45 46  1  0
 45 47  1  0
 47 48  2  0
 47 49  1  0
 49 50  1  0
 50 51  1  0
 50 52  1  0
 52 53  2  0
 52 54  1  0
 54 55  1  0
 55 56  1  0
 55 57  1  0
 57 58  2  0
 57 59  1  0
 59 60  1  0
 60 61  1  0
 60 62  1  0
 62 63  2  0
 62 64  1  0
 64 65  1  0
 65 66  1  0
 66 67  1  0
 66 68  2  0
 65 69  1  0
 69 70  1  0
 70 71  1  0
 30  5  1  0
 14  9  1  0
 71 11  1  0
  1 72  1  0
  1 73  1  0
  1 74  1  0
  4 75  1  0
  5 76  1  1
  6 77  1  0
  6 78  1  0
  8 79  1  0
  8 80  1  0
 10 81  1  0
 12 82  1  0
 14 83  1  0
 15 84  1  0
 15 85  1  0
 17 86  1  0
 17 87  1  0
 18 88  1  6
 19 89  1  0
 22 90  1  1
 23 91  1  0
 23 92  1  0
 23 93  1  0
 24 94  1  0
 27 95  1  1
 28 96  1  0
 28 97  1  0
 28 98  1  0
 29 99  1  0
 34100  1  0
 35101  1  1
 36102  1  0
 36103  1  0
 36104  1  0
 39105  1  0
 40106  1  1
 41107  1  0
 41108  1  0
 41109  1  0
 44110  1  0
 45111  1  6
 46112  1  0
 46113  1  0
 46114  1  0
 49115  1  0
 50116  1  1
 51117  1  0
 51118  1  0
 51119  1  0
 54120  1  0
 55121  1  1
 56122  1  0
 56123  1  0
 56124  1  0
 59125  1  0
 60126  1  6
 61127  1  0
 61128  1  0
 61129  1  0
 64130  1  0
 65131  1  6
 67132  1  0
 67133  1  0
 69134  1  0
 69135  1  0
 71136  1  0
 71137  1  0
M  END
