
     RDKit          3D

137139  0  0  0  0  0  0  0  0999 V2000
    9.8725    3.7724    1.2433 C   0  0  0  0  0  0  0  0  0  0  0  0
    9.7608    2.3361    1.6611 C   0  0  0  0  0  0  0  0  0  0  0  0
   10.6909    1.8279    2.3433 O   0  0  0  0  0  0  0  0  0  0  0  0
    8.6236    1.5249    1.3188 N   0  0  0  0  0  0  0  0  0  0  0  0
    7.5577    1.9449    0.3965 C   0  0  2  0  0  0  0  0  0  0  0  0
    6.1643    1.5680    0.9492 C   0  0  0  0  0  0  0  0  0  0  0  0
    5.3389    2.9939    1.7432 S   0  0  0  0  0  0  0  0  0  0  0  0
    4.5922    3.6627    0.2143 C   0  0  0  0  0  0  0  0  0  0  0  0
    3.3322    2.9144   -0.1320 C   0  0  0  0  0  0  0  0  0  0  0  0
    3.2513    2.1633   -1.3154 C   0  0  0  0  0  0  0  0  0  0  0  0
    2.0611    1.5107   -1.6639 C   0  0  0  0  0  0  0  0  0  0  0  0
    0.9445    1.6198   -0.8190 C   0  0  0  0  0  0  0  0  0  0  0  0
    1.0408    2.2945    0.4039 C   0  0  0  0  0  0  0  0  0  0  0  0
    2.2287    2.9610    0.7303 C   0  0  0  0  0  0  0  0  0  0  0  0
   -0.1010    2.2637    1.3850 C   0  0  0  0  0  0  0  0  0  0  0  0
   -0.9385    3.8827    1.4884 S   0  0  0  0  0  0  0  0  0  0  0  0
   -1.8472    3.7439   -0.0983 C   0  0  0  0  0  0  0  0  0  0  0  0
   -3.0396    4.7134   -0.1161 C   0  0  1  0  0  0  0  0  0  0  0  0
   -2.5826    6.1488   -0.0931 C   0  0  0  0  0  0  0  0  0  0  0  0
   -1.9180    6.7384   -1.2145 N   0  0  0  0  0  0  0  0  0  0  0  0
   -2.7875    6.8458    0.9376 O   0  0  0  0  0  0  0  0  0  0  0  0
   -3.8581    4.4684   -1.3106 N   0  0  0  0  0  0  0  0  0  0  0  0
   -5.2661    4.1550   -1.3252 C   0  0  0  0  0  0  0  0  0  0  0  0
   -5.7886    3.8171   -2.4227 O   0  0  0  0  0  0  0  0  0  0  0  0
   -6.1496    4.2863   -0.0978 C   0  0  1  0  0  0  0  0  0  0  0  0
   -6.3455    5.7604    0.2586 C   0  0  0  0  0  0  0  0  0  0  0  0
   -7.4662    3.6813   -0.3438 N   0  0  0  0  0  0  0  0  0  0  0  0
   -8.0906    2.6849    0.4865 C   0  0  0  0  0  0  0  0  0  0  0  0
   -9.3446    2.5559    0.4258 O   0  0  0  0  0  0  0  0  0  0  0  0
   -7.3065    1.7967    1.4278 C   0  0  1  0  0  0  0  0  0  0  0  0
   -7.2280    2.4480    2.8141 C   0  0  0  0  0  0  0  0  0  0  0  0
   -7.9532    0.4808    1.5350 N   0  0  0  0  0  0  0  0  0  0  0  0
   -8.0528   -0.4640    0.4550 C   0  0  0  0  0  0  0  0  0  0  0  0
   -9.1255   -1.1110    0.3205 O   0  0  0  0  0  0  0  0  0  0  0  0
   -6.9107   -0.7716   -0.4891 C   0  0  1  0  0  0  0  0  0  0  0  0
   -6.7960    0.2602   -1.6134 C   0  0  0  0  0  0  0  0  0  0  0  0
   -5.6402   -0.9065    0.2286 N   0  0  0  0  0  0  0  0  0  0  0  0
   -5.3752   -2.0092    1.1084 C   0  0  0  0  0  0  0  0  0  0  0  0
   -5.2756   -1.7882    2.3427 O   0  0  0  0  0  0  0  0  0  0  0  0
   -5.2018   -3.4207    0.5970 C   0  0  1  0  0  0  0  0  0  0  0  0
   -6.5002   -4.2107    0.7366 C   0  0  0  0  0  0  0  0  0  0  0  0
   -4.7568   -3.4358   -0.8021 N   0  0  0  0  0  0  0  0  0  0  0  0
   -3.6609   -4.2155   -1.3108 C   0  0  0  0  0  0  0  0  0  0  0  0
   -3.1474   -3.8764   -2.4139 O   0  0  0  0  0  0  0  0  0  0  0  0
   -3.1422   -5.4458   -0.5965 C   0  0  1  0  0  0  0  0  0  0  0  0
   -2.9551   -6.6240   -1.5641 C   0  0  0  0  0  0  0  0  0  0  0  0
   -1.8973   -5.1575    0.1279 N   0  0  0  0  0  0  0  0  0  0  0  0
   -0.6336   -4.9187   -0.5128 C   0  0  0  0  0  0  0  0  0  0  0  0
   -0.5941   -4.4097   -1.6672 O   0  0  0  0  0  0  0  0  0  0  0  0
    0.6491   -5.2591    0.2060 C   0  0  1  0  0  0  0  0  0  0  0  0
    1.7495   -5.7170   -0.7632 C   0  0  0  0  0  0  0  0  0  0  0  0
    1.0877   -4.1558    1.0659 N   0  0  0  0  0  0  0  0  0  0  0  0
    1.1752   -2.7880    0.6427 C   0  0  0  0  0  0  0  0  0  0  0  0
    0.3770   -1.9479    1.1382 O   0  0  0  0  0  0  0  0  0  0  0  0
    2.2660   -2.3064   -0.2807 C   0  0  1  0  0  0  0  0  0  0  0  0
    1.6551   -1.7439   -1.5753 C   0  0  0  0  0  0  0  0  0  0  0  0
    2.9218   -0.9216   -2.6179 S   0  0  0  0  0  0  0  0  0  0  0  0
    2.0091    0.6423   -2.8931 C   0  0  0  0  0  0  0  0  0  0  0  0
    3.0660   -1.2843    0.4070 N   0  0  0  0  0  0  0  0  0  0  0  0
    4.1793   -1.5660    1.2773 C   0  0  0  0  0  0  0  0  0  0  0  0
    4.3257   -0.8553    2.3050 O   0  0  0  0  0  0  0  0  0  0  0  0
    5.1913   -2.6641    1.0198 C   0  0  1  0  0  0  0  0  0  0  0  0
    4.7152   -3.9957    1.6029 C   0  0  0  0  0  0  0  0  0  0  0  0
    5.4962   -2.7932   -0.4107 N   0  0  0  0  0  0  0  0  0  0  0  0
    6.3581   -1.9016   -1.1443 C   0  0  0  0  0  0  0  0  0  0  0  0
    6.2502   -1.8645   -2.4001 O   0  0  0  0  0  0  0  0  0  0  0  0
    7.4767   -1.1369   -0.4750 C   0  0  1  0  0  0  0  0  0  0  0  0
    8.6656   -2.0678   -0.2335 C   0  0  0  0  0  0  0  0  0  0  0  0
    7.9016   -0.0079   -1.3153 N   0  0  0  0  0  0  0  0  0  0  0  0
    7.8231    1.3969   -0.9899 C   0  0  0  0  0  0  0  0  0  0  0  0
    8.0580    2.2249   -1.9070 O   0  0  0  0  0  0  0  0  0  0  0  0
    9.8619    3.8409    0.1364 H   0  0  0  0  0  0  0  0  0  0  0  0
   10.8257    4.2118    1.6129 H   0  0  0  0  0  0  0  0  0  0  0  0
    9.0288    4.3553    1.6668 H   0  0  0  0  0  0  0  0  0  0  0  0
    8.6617    0.5279    1.6145 H   0  0  0  0  0  0  0  0  0  0  0  0
    7.5735    3.0515    0.3021 H   0  0  0  0  0  0  0  0  0  0  0  0
    6.2627    0.8005    1.7434 H   0  0  0  0  0  0  0  0  0  0  0  0
    5.5140    1.1403    0.1587 H   0  0  0  0  0  0  0  0  0  0  0  0
    4.3405    4.7317    0.3788 H   0  0  0  0  0  0  0  0  0  0  0  0
    5.3330    3.6313   -0.6165 H   0  0  0  0  0  0  0  0  0  0  0  0
    4.1188    2.0725   -1.9561 H   0  0  0  0  0  0  0  0  0  0  0  0
    0.0157    1.1290   -1.0851 H   0  0  0  0  0  0  0  0  0  0  0  0
    2.2985    3.5037    1.6638 H   0  0  0  0  0  0  0  0  0  0  0  0
   -0.8343    1.4653    1.1349 H   0  0  0  0  0  0  0  0  0  0  0  0
    0.2897    2.0130    2.3931 H   0  0  0  0  0  0  0  0  0  0  0  0
   -1.1515    3.9569   -0.9372 H   0  0  0  0  0  0  0  0  0  0  0  0
   -2.2389    2.7119   -0.2198 H   0  0  0  0  0  0  0  0  0  0  0  0
   -3.6217    4.5167    0.8045 H   0  0  0  0  0  0  0  0  0  0  0  0
   -1.6741    6.1721   -2.0615 H   0  0  0  0  0  0  0  0  0  0  0  0
   -1.6691    7.7540   -1.1991 H   0  0  0  0  0  0  0  0  0  0  0  0
   -3.3714    4.4873   -2.2374 H   0  0  0  0  0  0  0  0  0  0  0  0
   -5.6518    3.7869    0.7476 H   0  0  0  0  0  0  0  0  0  0  0  0
   -6.7592    6.3255   -0.6075 H   0  0  0  0  0  0  0  0  0  0  0  0
   -7.0473    5.8505    1.1162 H   0  0  0  0  0  0  0  0  0  0  0  0
   -5.3861    6.2295    0.5531 H   0  0  0  0  0  0  0  0  0  0  0  0
   -8.0594    4.1136   -1.0877 H   0  0  0  0  0  0  0  0  0  0  0  0
   -6.2739    1.6605    1.0572 H   0  0  0  0  0  0  0  0  0  0  0  0
   -6.6718    1.7822    3.5106 H   0  0  0  0  0  0  0  0  0  0  0  0
   -8.2485    2.6251    3.2211 H   0  0  0  0  0  0  0  0  0  0  0  0
   -6.6975    3.4227    2.7673 H   0  0  0  0  0  0  0  0  0  0  0  0
   -8.6020    0.3231    2.3407 H   0  0  0  0  0  0  0  0  0  0  0  0
   -7.1440   -1.7369   -0.9846 H   0  0  0  0  0  0  0  0  0  0  0  0
   -6.4449    1.2379   -1.2336 H   0  0  0  0  0  0  0  0  0  0  0  0
   -7.7792    0.3988   -2.1160 H   0  0  0  0  0  0  0  0  0  0  0  0
   -6.0653   -0.0934   -2.3706 H   0  0  0  0  0  0  0  0  0  0  0  0
   -5.0225   -0.0659    0.3260 H   0  0  0  0  0  0  0  0  0  0  0  0
   -4.4349   -3.9003    1.2420 H   0  0  0  0  0  0  0  0  0  0  0  0
   -6.3314   -5.2692    0.4431 H   0  0  0  0  0  0  0  0  0  0  0  0
   -6.8530   -4.1949    1.7917 H   0  0  0  0  0  0  0  0  0  0  0  0
   -7.2975   -3.7936    0.0847 H   0  0  0  0  0  0  0  0  0  0  0  0
   -5.2619   -2.8486   -1.5006 H   0  0  0  0  0  0  0  0  0  0  0  0
   -3.9030   -5.7859    0.1366 H   0  0  0  0  0  0  0  0  0  0  0  0
   -3.9260   -6.8822   -2.0402 H   0  0  0  0  0  0  0  0  0  0  0  0
   -2.5945   -7.5152   -1.0051 H   0  0  0  0  0  0  0  0  0  0  0  0
   -2.2213   -6.3857   -2.3615 H   0  0  0  0  0  0  0  0  0  0  0  0
   -1.9089   -5.2618    1.1688 H   0  0  0  0  0  0  0  0  0  0  0  0
    0.4343   -6.1343    0.8605 H   0  0  0  0  0  0  0  0  0  0  0  0
    2.6698   -5.9749   -0.2016 H   0  0  0  0  0  0  0  0  0  0  0  0
    1.9810   -4.9433   -1.5210 H   0  0  0  0  0  0  0  0  0  0  0  0
    1.4101   -6.6316   -1.2984 H   0  0  0  0  0  0  0  0  0  0  0  0
    1.0215   -4.3161    2.0951 H   0  0  0  0  0  0  0  0  0  0  0  0
    2.9121   -3.1504   -0.5631 H   0  0  0  0  0  0  0  0  0  0  0  0
    0.8202   -1.0593   -1.3249 H   0  0  0  0  0  0  0  0  0  0  0  0
    1.2225   -2.5764   -2.1678 H   0  0  0  0  0  0  0  0  0  0  0  0
    0.9650    0.4268   -3.1985 H   0  0  0  0  0  0  0  0  0  0  0  0
    2.4838    1.1869   -3.7369 H   0  0  0  0  0  0  0  0  0  0  0  0
    2.6212   -0.3468    0.5275 H   0  0  0  0  0  0  0  0  0  0  0  0
    6.1237   -2.4235    1.5676 H   0  0  0  0  0  0  0  0  0  0  0  0
    4.5020   -3.8867    2.6889 H   0  0  0  0  0  0  0  0  0  0  0  0
    3.8009   -4.3623    1.1045 H   0  0  0  0  0  0  0  0  0  0  0  0
    5.5088   -4.7637    1.4778 H   0  0  0  0  0  0  0  0  0  0  0  0
    5.0474   -3.5650   -0.9598 H   0  0  0  0  0  0  0  0  0  0  0  0
    7.1272   -0.7817    0.5006 H   0  0  0  0  0  0  0  0  0  0  0  0
    9.4530   -1.5309    0.3323 H   0  0  0  0  0  0  0  0  0  0  0  0
    9.0911   -2.4164   -1.1998 H   0  0  0  0  0  0  0  0  0  0  0  0
    8.3531   -2.9522    0.3620 H   0  0  0  0  0  0  0  0  0  0  0  0
    8.2936   -0.2433   -2.2572 H   0  0  0  0  0  0  0  0  0  0  0  0
  1  2  1  0
  2  3  2  0
  2  4  1  0
  4  5  1  0
  5  6  1  0
  6  7  1  0
  7  8  1  0
  8  9  1  0
  9 10  2  0
 10 11  1  0
 11 12  2  0
 12 13  1  0
 13 14  2  0
 13 15  1  0
 15 16  1  0
 16 17  1  0
 17 18  1  0
 18 19  1  0
 19 20  1  0
 19 21  2  0
 18 22  1  0
 22 23  1  0
 23 24  2  0
 23 25  1  0
 25 26  1  0
 25 27  1  0
 27 28  1  0
 28 29  2  0
 28 30  1  0
 30 31  1  0
 30 32  1  0
 32 33  1  0
 33 34  2  0
 33 35  1  0
 35 36  1  0
 35 37  1  0
 37 38  1  0
 38 39  2  0
 38 40  1  0
 40 41  1  0
 40 42  1  0
 42 43  1  0
 43 44  2  0
 43 45  1  0
 45 46  1  0
 45 47  1  0
 47 48  1  0
 48 49  2  0
 48 50  1  0
 50 51  1  0
 50 52  1  0
 52 53  1  0
 53 54  2  0
 53 55  1  0
 55 56  1  0
 56 57  1  0
 57 58  1  0
 55 59  1  0
 59 60  1  0
 60 61  2  0
 60 62  1  0
 62 63  1  0
 62 64  1  0
 64 65  1  0
 65 66  2  0
 65 67  1  0
 67 68  1  0
 67 69  1  0
 69 70  1  0
 70 71  2  0
 70  5  1  0
 14  9  1  0
 58 11  1  0
  1 72  1  0
  1 73  1  0
  1 74  1  0
  4 75  1  0
  5 76  1  6
  6 77  1  0
  6 78  1  0
  8 79  1  0
  8 80  1  0
 10 81  1  0
 12 82  1  0
 14 83  1  0
 15 84  1  0
 15 85  1  0
 17 86  1  0
 17 87  1  0
 18 88  1  1
 20 89  1  0
 20 90  1  0
 22 91  1  0
 25 92  1  1
 26 93  1  0
 26 94  1  0
 26 95  1  0
 27 96  1  0
 30 97  1  6
 31 98  1  0
 31 99  1  0
 31100  1  0
 32101  1  0
 35102  1  6
 36103  1  0
 36104  1  0
 36105  1  0
 37106  1  0
 40107  1  1
 41108  1  0
 41109  1  0
 41110  1  0
 42111  1  0
 45112  1  1
 46113  1  0
 46114  1  0
 46115  1  0
 47116  1  0
 50117  1  1
 51118  1  0
 51119  1  0
 51120  1  0
 52121  1  0
 55122  1  6
 56123  1  0
 56124  1  0
 58125  1  0
 58126  1  0
 59127  1  0
 62128  1  1
 63129  1  0
 63130  1  0
 63131  1  0
 64132  1  0
 67133  1  1
 68134  1  0
 68135  1  0
 68136  1  0
 69137  1  0
M  END
