
     RDKit          3D

137139  0  0  0  0  0  0  0  0999 V2000
   -9.9035   -3.5689    1.7618 C   0  0  0  0  0  0  0  0  0  0  0  0
  -10.0236   -3.8212    0.2820 C   0  0  0  0  0  0  0  0  0  0  0  0
  -10.6902   -4.8152   -0.1070 O   0  0  0  0  0  0  0  0  0  0  0  0
   -9.4668   -2.9252   -0.6990 N   0  0  0  0  0  0  0  0  0  0  0  0
   -8.3089   -2.0452   -0.4937 C   0  0  1  0  0  0  0  0  0  0  0  0
   -7.0946   -2.8657   -0.0109 C   0  0  0  0  0  0  0  0  0  0  0  0
   -5.5784   -1.8349    0.0727 S   0  0  0  0  0  0  0  0  0  0  0  0
   -4.4854   -3.1709    0.6742 C   0  0  0  0  0  0  0  0  0  0  0  0
   -3.0412   -2.7947    0.4521 C   0  0  0  0  0  0  0  0  0  0  0  0
   -2.5208   -1.6223    1.0216 C   0  0  0  0  0  0  0  0  0  0  0  0
   -1.1966   -1.2264    0.7704 C   0  0  0  0  0  0  0  0  0  0  0  0
   -0.3647   -2.0793    0.0235 C   0  0  0  0  0  0  0  0  0  0  0  0
   -0.8528   -3.2867   -0.4968 C   0  0  0  0  0  0  0  0  0  0  0  0
   -2.2019   -3.6143   -0.3116 C   0  0  0  0  0  0  0  0  0  0  0  0
    0.0855   -4.2629   -1.1610 C   0  0  0  0  0  0  0  0  0  0  0  0
    0.2928   -5.7221   -0.0860 S   0  0  0  0  0  0  0  0  0  0  0  0
    1.7283   -6.4224   -0.9832 C   0  0  0  0  0  0  0  0  0  0  0  0
    3.0523   -6.0598   -0.2749 C   0  0  1  0  0  0  0  0  0  0  0  0
    3.1890   -6.8813    0.9941 C   0  0  0  0  0  0  0  0  0  0  0  0
    3.4198   -8.2941    0.9193 N   0  0  0  0  0  0  0  0  0  0  0  0
    3.0268   -6.3331    2.1169 O   0  0  0  0  0  0  0  0  0  0  0  0
    4.1888   -6.3120   -1.1635 N   0  0  0  0  0  0  0  0  0  0  0  0
    5.4661   -5.6480   -1.0558 C   0  0  0  0  0  0  0  0  0  0  0  0
    6.2353   -5.6597   -2.0575 O   0  0  0  0  0  0  0  0  0  0  0  0
    5.9632   -5.0720    0.2460 C   0  0  1  0  0  0  0  0  0  0  0  0
    6.8499   -6.0993    0.9642 C   0  0  0  0  0  0  0  0  0  0  0  0
    6.7405   -3.8507   -0.0178 N   0  0  0  0  0  0  0  0  0  0  0  0
    6.2745   -2.5399    0.3492 C   0  0  0  0  0  0  0  0  0  0  0  0
    5.0548   -2.3505    0.5929 O   0  0  0  0  0  0  0  0  0  0  0  0
    7.2305   -1.3795    0.4612 C   0  0  1  0  0  0  0  0  0  0  0  0
    8.2517   -1.6477    1.5714 C   0  0  0  0  0  0  0  0  0  0  0  0
    7.9267   -1.1590   -0.8086 N   0  0  0  0  0  0  0  0  0  0  0  0
    8.0237    0.1074   -1.4737 C   0  0  0  0  0  0  0  0  0  0  0  0
    8.1065    0.1337   -2.7333 O   0  0  0  0  0  0  0  0  0  0  0  0
    8.0606    1.4126   -0.7029 C   0  0  1  0  0  0  0  0  0  0  0  0
    9.3058    2.2051   -1.1249 C   0  0  0  0  0  0  0  0  0  0  0  0
    6.8484    2.1946   -0.9553 N   0  0  0  0  0  0  0  0  0  0  0  0
    6.6462    3.4933   -0.3888 C   0  0  0  0  0  0  0  0  0  0  0  0
    7.1020    3.7387    0.7593 O   0  0  0  0  0  0  0  0  0  0  0  0
    6.0557    4.6190   -1.2151 C   0  0  1  0  0  0  0  0  0  0  0  0
    5.0889    4.1329   -2.3034 C   0  0  0  0  0  0  0  0  0  0  0  0
    5.4458    5.6549   -0.3595 N   0  0  0  0  0  0  0  0  0  0  0  0
    4.4723    5.4055    0.6683 C   0  0  0  0  0  0  0  0  0  0  0  0
    4.7342    5.7462    1.8546 O   0  0  0  0  0  0  0  0  0  0  0  0
    3.1366    4.7717    0.3523 C   0  0  1  0  0  0  0  0  0  0  0  0
    3.0969    3.3383    0.8955 C   0  0  0  0  0  0  0  0  0  0  0  0
    2.0318    5.5448    0.9190 N   0  0  0  0  0  0  0  0  0  0  0  0
    0.6803    5.3457    0.4638 C   0  0  0  0  0  0  0  0  0  0  0  0
    0.4673    4.6577   -0.5713 O   0  0  0  0  0  0  0  0  0  0  0  0
   -0.4984    5.8331    1.2885 C   0  0  1  0  0  0  0  0  0  0  0  0
   -0.4878    7.3545    1.4674 C   0  0  0  0  0  0  0  0  0  0  0  0
   -1.7529    5.4166    0.6616 N   0  0  0  0  0  0  0  0  0  0  0  0
   -2.4995    4.2990    1.1610 C   0  0  0  0  0  0  0  0  0  0  0  0
   -2.6774    4.1776    2.4043 O   0  0  0  0  0  0  0  0  0  0  0  0
   -2.9538    3.2105    0.2065 C   0  0  1  0  0  0  0  0  0  0  0  0
   -1.9540    2.0408    0.2173 C   0  0  0  0  0  0  0  0  0  0  0  0
   -1.8129    1.2840    1.8803 S   0  0  0  0  0  0  0  0  0  0  0  0
   -0.5872    0.0068    1.4061 C   0  0  0  0  0  0  0  0  0  0  0  0
   -4.3140    2.7205    0.4869 N   0  0  0  0  0  0  0  0  0  0  0  0
   -5.3165    3.5433    1.0926 C   0  0  0  0  0  0  0  0  0  0  0  0
   -5.4062    3.5787    2.3558 O   0  0  0  0  0  0  0  0  0  0  0  0
   -6.3655    4.2261    0.2584 C   0  0  1  0  0  0  0  0  0  0  0  0
   -5.7774    4.8802   -0.9970 C   0  0  0  0  0  0  0  0  0  0  0  0
   -7.4746    3.2959   -0.0141 N   0  0  0  0  0  0  0  0  0  0  0  0
   -7.5495    2.3568   -1.1053 C   0  0  0  0  0  0  0  0  0  0  0  0
   -7.0401    2.6255   -2.2288 O   0  0  0  0  0  0  0  0  0  0  0  0
   -8.3086    1.0686   -0.9088 C   0  0  1  0  0  0  0  0  0  0  0  0
   -9.8210    1.3198   -0.8934 C   0  0  0  0  0  0  0  0  0  0  0  0
   -7.9913    0.0887   -1.9619 N   0  0  0  0  0  0  0  0  0  0  0  0
   -7.9742   -1.3441   -1.8005 C   0  0  0  0  0  0  0  0  0  0  0  0
   -7.6733   -2.0558   -2.7986 O   0  0  0  0  0  0  0  0  0  0  0  0
   -9.4409   -2.5847    1.9813 H   0  0  0  0  0  0  0  0  0  0  0  0
  -10.9100   -3.5855    2.2210 H   0  0  0  0  0  0  0  0  0  0  0  0
   -9.2906   -4.3735    2.2209 H   0  0  0  0  0  0  0  0  0  0  0  0
  -10.0080   -2.8482   -1.6016 H   0  0  0  0  0  0  0  0  0  0  0  0
   -8.5800   -1.3291    0.3012 H   0  0  0  0  0  0  0  0  0  0  0  0
   -6.9278   -3.7243   -0.7007 H   0  0  0  0  0  0  0  0  0  0  0  0
   -7.2858   -3.2648    1.0096 H   0  0  0  0  0  0  0  0  0  0  0  0
   -4.7227   -4.1191    0.1404 H   0  0  0  0  0  0  0  0  0  0  0  0
   -4.6607   -3.3244    1.7614 H   0  0  0  0  0  0  0  0  0  0  0  0
   -3.1674   -1.0282    1.6502 H   0  0  0  0  0  0  0  0  0  0  0  0
    0.6795   -1.8167   -0.1048 H   0  0  0  0  0  0  0  0  0  0  0  0
   -2.5780   -4.5370   -0.7302 H   0  0  0  0  0  0  0  0  0  0  0  0
    1.0772   -3.7859   -1.3513 H   0  0  0  0  0  0  0  0  0  0  0  0
   -0.3457   -4.5742   -2.1343 H   0  0  0  0  0  0  0  0  0  0  0  0
    1.7401   -6.0416   -2.0325 H   0  0  0  0  0  0  0  0  0  0  0  0
    1.5967   -7.5219   -1.0496 H   0  0  0  0  0  0  0  0  0  0  0  0
    3.0136   -4.9807   -0.0190 H   0  0  0  0  0  0  0  0  0  0  0  0
    3.7197   -8.7301    0.0119 H   0  0  0  0  0  0  0  0  0  0  0  0
    3.1373   -8.9154    1.7012 H   0  0  0  0  0  0  0  0  0  0  0  0
    4.0238   -6.8615   -2.0373 H   0  0  0  0  0  0  0  0  0  0  0  0
    5.1175   -4.8308    0.9158 H   0  0  0  0  0  0  0  0  0  0  0  0
    6.2512   -6.9923    1.2282 H   0  0  0  0  0  0  0  0  0  0  0  0
    7.6907   -6.4108    0.3121 H   0  0  0  0  0  0  0  0  0  0  0  0
    7.2664   -5.6561    1.8946 H   0  0  0  0  0  0  0  0  0  0  0  0
    7.7049   -3.9526   -0.4093 H   0  0  0  0  0  0  0  0  0  0  0  0
    6.6550   -0.4708    0.7357 H   0  0  0  0  0  0  0  0  0  0  0  0
    8.9175   -0.7658    1.7040 H   0  0  0  0  0  0  0  0  0  0  0  0
    8.8863   -2.5288    1.3127 H   0  0  0  0  0  0  0  0  0  0  0  0
    7.7326   -1.8448    2.5308 H   0  0  0  0  0  0  0  0  0  0  0  0
    8.3771   -1.9740   -1.2848 H   0  0  0  0  0  0  0  0  0  0  0  0
    8.1459    1.2196    0.3826 H   0  0  0  0  0  0  0  0  0  0  0  0
   10.2239    1.5858   -1.0048 H   0  0  0  0  0  0  0  0  0  0  0  0
    9.4232    3.1108   -0.4938 H   0  0  0  0  0  0  0  0  0  0  0  0
    9.2221    2.5315   -2.1848 H   0  0  0  0  0  0  0  0  0  0  0  0
    6.0527    1.7420   -1.4807 H   0  0  0  0  0  0  0  0  0  0  0  0
    6.9209    5.0861   -1.7439 H   0  0  0  0  0  0  0  0  0  0  0  0
    5.6614    3.6410   -3.1176 H   0  0  0  0  0  0  0  0  0  0  0  0
    4.3595    3.3951   -1.9071 H   0  0  0  0  0  0  0  0  0  0  0  0
    4.5439    4.9935   -2.7456 H   0  0  0  0  0  0  0  0  0  0  0  0
    5.9660    6.5579   -0.2921 H   0  0  0  0  0  0  0  0  0  0  0  0
    3.0042    4.7508   -0.7458 H   0  0  0  0  0  0  0  0  0  0  0  0
    3.9271    2.7353    0.4667 H   0  0  0  0  0  0  0  0  0  0  0  0
    2.1368    2.8489    0.6226 H   0  0  0  0  0  0  0  0  0  0  0  0
    3.1865    3.3400    2.0062 H   0  0  0  0  0  0  0  0  0  0  0  0
    2.2248    6.3715    1.5343 H   0  0  0  0  0  0  0  0  0  0  0  0
   -0.4145    5.3710    2.2961 H   0  0  0  0  0  0  0  0  0  0  0  0
   -0.3429    7.8668    0.4854 H   0  0  0  0  0  0  0  0  0  0  0  0
    0.3115    7.6652    2.1691 H   0  0  0  0  0  0  0  0  0  0  0  0
   -1.4547    7.6966    1.8952 H   0  0  0  0  0  0  0  0  0  0  0  0
   -1.9986    5.7869   -0.2869 H   0  0  0  0  0  0  0  0  0  0  0  0
   -2.9506    3.6293   -0.8170 H   0  0  0  0  0  0  0  0  0  0  0  0
   -2.2825    1.2647   -0.5183 H   0  0  0  0  0  0  0  0  0  0  0  0
   -0.9570    2.4140   -0.1090 H   0  0  0  0  0  0  0  0  0  0  0  0
    0.1605    0.4519    0.7208 H   0  0  0  0  0  0  0  0  0  0  0  0
   -0.0472   -0.2980    2.3231 H   0  0  0  0  0  0  0  0  0  0  0  0
   -4.6643    1.9557   -0.1322 H   0  0  0  0  0  0  0  0  0  0  0  0
   -6.7800    5.0630    0.8697 H   0  0  0  0  0  0  0  0  0  0  0  0
   -6.5901    5.3564   -1.5892 H   0  0  0  0  0  0  0  0  0  0  0  0
   -5.0496    5.6727   -0.6993 H   0  0  0  0  0  0  0  0  0  0  0  0
   -5.2360    4.1409   -1.6225 H   0  0  0  0  0  0  0  0  0  0  0  0
   -8.1097    3.1213    0.7940 H   0  0  0  0  0  0  0  0  0  0  0  0
   -7.9915    0.6851    0.0832 H   0  0  0  0  0  0  0  0  0  0  0  0
  -10.3497    0.3946   -0.5903 H   0  0  0  0  0  0  0  0  0  0  0  0
  -10.0837    2.1165   -0.1671 H   0  0  0  0  0  0  0  0  0  0  0  0
  -10.1827    1.6139   -1.9084 H   0  0  0  0  0  0  0  0  0  0  0  0
   -7.9693    0.4309   -2.9465 H   0  0  0  0  0  0  0  0  0  0  0  0
  1  2  1  0
  2  3  2  0
  2  4  1  0
  4  5  1  0
  5  6  1  0
  6  7  1  0
  7  8  1  0
  8  9  1  0
  9 10  2  0
 10 11  1  0
 11 12  2  0
 12 13  1  0
 13 14  2  0
 13 15  1  0
 15 16  1  0
 16 17  1  0
 17 18  1  0
 18 19  1  0
 19 20  1  0
 19 21  2  0
 18 22  1  0
 22 23  1  0
 23 24  2  0
 23 25  1  0
 25 26  1  0
 25 27  1  0
 27 28  1  0
 28 29  2  0
 28 30  1  0
 30 31  1  0
 30 32  1  0
 32 33  1  0
 33 34  2  0
 33 35  1  0
 35 36  1  0
 35 37  1  0
 37 38  1  0
 38 39  2  0
 38 40  1  0
 40 41  1  0
 40 42  1  0
 42 43  1  0
 43 44  2  0
 43 45  1  0
 45 46  1  0
 45 47  1  0
 47 48  1  0
 48 49  2  0
 48 50  1  0
 50 51  1  0
 50 52  1  0
 52 53  1  0
 53 54  2  0
 53 55  1  0
 55 56  1  0
 56 57  1  0
 57 58  1  0
 55 59  1  0
 59 60  1  0
 60 61  2  0
 60 62  1  0
 62 63  1  0
 62 64  1  0
 64 65  1  0
 65 66  2  0
 65 67  1  0
 67 68  1  0
 67 69  1  0
 69 70  1  0
 70 71  2  0
 70  5  1  0
 14  9  1  0
 58 11  1  0
  1 72  1  0
  1 73  1  0
  1 74  1  0
  4 75  1  0
  5 76  1  1
  6 77  1  0
  6 78  1  0
  8 79  1  0
  8 80  1  0
 10 81  1  0
 12 82  1  0
 14 83  1  0
 15 84  1  0
 15 85  1  0
 17 86  1  0
 17 87  1  0
 18 88  1  1
 20 89  1  0
 20 90  1  0
 22 91  1  0
 25 92  1  1
 26 93  1  0
 26 94  1  0
 26 95  1  0
 27 96  1  0
 30 97  1  1
 31 98  1  0
 31 99  1  0
 31100  1  0
 32101  1  0
 35102  1  1
 36103  1  0
 36104  1  0
 36105  1  0
 37106  1  0
 40107  1  6
 41108  1  0
 41109  1  0
 41110  1  0
 42111  1  0
 45112  1  6
 46113  1  0
 46114  1  0
 46115  1  0
 47116  1  0
 50117  1  1
 51118  1  0
 51119  1  0
 51120  1  0
 52121  1  0
 55122  1  6
 56123  1  0
 56124  1  0
 58125  1  0
 58126  1  0
 59127  1  0
 62128  1  1
 63129  1  0
 63130  1  0
 63131  1  0
 64132  1  0
 67133  1  1
 68134  1  0
 68135  1  0
 68136  1  0
 69137  1  0
M  END
