
     RDKit          3D

117119  0  0  0  0  0  0  0  0999 V2000
    9.3930    1.2411    2.8813 C   0  0  0  0  0  0  0  0  0  0  0  0
    8.4652    0.4324    2.0334 C   0  0  0  0  0  0  0  0  0  0  0  0
    8.8347   -0.7072    1.6418 O   0  0  0  0  0  0  0  0  0  0  0  0
    7.1811    0.9494    1.6580 N   0  0  0  0  0  0  0  0  0  0  0  0
    6.2697    0.2349    0.7598 C   0  0  2  0  0  0  0  0  0  0  0  0
    5.6199    1.2321   -0.2202 C   0  0  0  0  0  0  0  0  0  0  0  0
    4.4658    2.4093    0.5811 S   0  0  0  0  0  0  0  0  0  0  0  0
    4.0156    3.3243   -0.9438 C   0  0  0  0  0  0  0  0  0  0  0  0
    2.5201    3.2698   -1.1500 C   0  0  0  0  0  0  0  0  0  0  0  0
    1.7328    4.4230   -1.0039 C   0  0  0  0  0  0  0  0  0  0  0  0
    0.3511    4.3806   -1.2377 C   0  0  0  0  0  0  0  0  0  0  0  0
   -0.2538    3.1626   -1.5796 C   0  0  0  0  0  0  0  0  0  0  0  0
    0.5196    2.0007   -1.7590 C   0  0  0  0  0  0  0  0  0  0  0  0
    1.9098    2.0725   -1.5527 C   0  0  0  0  0  0  0  0  0  0  0  0
   -0.1935    0.7243   -2.1829 C   0  0  0  0  0  0  0  0  0  0  0  0
    0.8852   -0.7129   -2.5483 S   0  0  0  0  0  0  0  0  0  0  0  0
    1.0600   -1.2602   -0.8074 C   0  0  0  0  0  0  0  0  0  0  0  0
    2.2208   -2.2655   -0.6615 C   0  0  1  0  0  0  0  0  0  0  0  0
    3.5064   -1.5847   -0.8582 N   0  0  0  0  0  0  0  0  0  0  0  0
    4.7775   -2.2487   -0.8540 C   0  0  0  0  0  0  0  0  0  0  0  0
    5.4597   -2.2537   -1.9137 O   0  0  0  0  0  0  0  0  0  0  0  0
    5.3278   -2.8810    0.4047 C   0  0  1  0  0  0  0  0  0  0  0  0
    6.7698   -3.3834    0.2636 C   0  0  0  0  0  0  0  0  0  0  0  0
    5.2103   -1.9963    1.5722 N   0  0  0  0  0  0  0  0  0  0  0  0
    5.2687   -0.5545    1.5806 C   0  0  0  0  0  0  0  0  0  0  0  0
    4.5492    0.0591    2.4111 O   0  0  0  0  0  0  0  0  0  0  0  0
    2.1517   -2.9227    0.6954 C   0  0  0  0  0  0  0  0  0  0  0  0
    2.2162   -2.1737    1.7117 O   0  0  0  0  0  0  0  0  0  0  0  0
    2.0336   -4.3463    0.9012 N   0  0  0  0  0  0  0  0  0  0  0  0
    1.5073   -5.3697   -0.0203 C   0  0  2  0  0  0  0  0  0  0  0  0
    2.5183   -5.7668   -1.1051 C   0  0  0  0  0  0  0  0  0  0  0  0
    0.1393   -5.0072   -0.5528 C   0  0  0  0  0  0  0  0  0  0  0  0
    0.0075   -4.1983   -1.5094 O   0  0  0  0  0  0  0  0  0  0  0  0
   -1.0285   -5.5901    0.0442 N   0  0  0  0  0  0  0  0  0  0  0  0
   -2.2475   -4.8125    0.2868 C   0  0  2  0  0  0  0  0  0  0  0  0
   -2.5741   -4.8606    1.7798 C   0  0  0  0  0  0  0  0  0  0  0  0
   -3.3900   -5.3654   -0.5342 C   0  0  0  0  0  0  0  0  0  0  0  0
   -3.4085   -6.5947   -0.8165 O   0  0  0  0  0  0  0  0  0  0  0  0
   -4.4422   -4.5206   -1.0383 N   0  0  0  0  0  0  0  0  0  0  0  0
   -4.9639   -3.3475   -0.3254 C   0  0  2  0  0  0  0  0  0  0  0  0
   -6.0686   -3.7944    0.6361 C   0  0  0  0  0  0  0  0  0  0  0  0
   -5.5048   -2.3202   -1.2970 C   0  0  0  0  0  0  0  0  0  0  0  0
   -6.1419   -2.7052   -2.3161 O   0  0  0  0  0  0  0  0  0  0  0  0
   -5.3132   -0.9104   -1.1008 N   0  0  0  0  0  0  0  0  0  0  0  0
   -5.2889   -0.2606    0.2148 C   0  0  2  0  0  0  0  0  0  0  0  0
   -6.7139    0.1138    0.6333 C   0  0  0  0  0  0  0  0  0  0  0  0
   -4.3119    0.8956    0.1976 C   0  0  0  0  0  0  0  0  0  0  0  0
   -3.1156    0.6545   -0.1030 O   0  0  0  0  0  0  0  0  0  0  0  0
   -4.6542    2.2252    0.6102 N   0  0  0  0  0  0  0  0  0  0  0  0
   -5.5303    3.1132   -0.1670 C   0  0  2  0  0  0  0  0  0  0  0  0
   -5.0869    3.1905   -1.6330 C   0  0  0  0  0  0  0  0  0  0  0  0
   -5.6206    4.4842    0.4693 C   0  0  0  0  0  0  0  0  0  0  0  0
   -6.7494    5.0322    0.5621 O   0  0  0  0  0  0  0  0  0  0  0  0
   -4.4909    5.1126    1.0903 N   0  0  0  0  0  0  0  0  0  0  0  0
   -3.3689    5.6519    0.3186 C   0  0  1  0  0  0  0  0  0  0  0  0
   -3.5883    7.1261    0.0813 C   0  0  0  0  0  0  0  0  0  0  0  0
   -3.6095    8.0545    1.1705 N   0  0  0  0  0  0  0  0  0  0  0  0
   -3.7299    7.5535   -1.0983 O   0  0  0  0  0  0  0  0  0  0  0  0
   -2.0398    5.3447    1.0445 C   0  0  0  0  0  0  0  0  0  0  0  0
   -0.6054    6.3353    0.4671 S   0  0  0  0  0  0  0  0  0  0  0  0
   -0.4512    5.6517   -1.2230 C   0  0  0  0  0  0  0  0  0  0  0  0
    9.6343    0.6892    3.8179 H   0  0  0  0  0  0  0  0  0  0  0  0
   10.3318    1.4365    2.3219 H   0  0  0  0  0  0  0  0  0  0  0  0
    8.9310    2.2134    3.1474 H   0  0  0  0  0  0  0  0  0  0  0  0
    6.8508    1.8272    2.1168 H   0  0  0  0  0  0  0  0  0  0  0  0
    6.8622   -0.4614    0.1390 H   0  0  0  0  0  0  0  0  0  0  0  0
    6.4258    1.8073   -0.7199 H   0  0  0  0  0  0  0  0  0  0  0  0
    5.0862    0.6863   -1.0156 H   0  0  0  0  0  0  0  0  0  0  0  0
    4.5161    2.9205   -1.8534 H   0  0  0  0  0  0  0  0  0  0  0  0
    4.3563    4.3774   -0.8253 H   0  0  0  0  0  0  0  0  0  0  0  0
    2.1966    5.3589   -0.7238 H   0  0  0  0  0  0  0  0  0  0  0  0
   -1.3236    3.1266   -1.7648 H   0  0  0  0  0  0  0  0  0  0  0  0
    2.5413    1.2221   -1.7231 H   0  0  0  0  0  0  0  0  0  0  0  0
   -0.9359    0.4412   -1.4091 H   0  0  0  0  0  0  0  0  0  0  0  0
   -0.7621    0.9338   -3.1123 H   0  0  0  0  0  0  0  0  0  0  0  0
    0.1071   -1.7328   -0.4967 H   0  0  0  0  0  0  0  0  0  0  0  0
    1.2491   -0.3857   -0.1505 H   0  0  0  0  0  0  0  0  0  0  0  0
    2.1189   -3.0061   -1.4584 H   0  0  0  0  0  0  0  0  0  0  0  0
    3.4820   -0.7295   -1.4484 H   0  0  0  0  0  0  0  0  0  0  0  0
    4.7193   -3.7872    0.5928 H   0  0  0  0  0  0  0  0  0  0  0  0
    7.4619   -2.5811   -0.0476 H   0  0  0  0  0  0  0  0  0  0  0  0
    7.1210   -3.8030    1.2269 H   0  0  0  0  0  0  0  0  0  0  0  0
    6.8134   -4.2011   -0.4873 H   0  0  0  0  0  0  0  0  0  0  0  0
    4.8591   -2.4487    2.4475 H   0  0  0  0  0  0  0  0  0  0  0  0
    2.2077   -4.6692    1.8794 H   0  0  0  0  0  0  0  0  0  0  0  0
    1.3710   -6.2958    0.5875 H   0  0  0  0  0  0  0  0  0  0  0  0
    2.1849   -6.7040   -1.5915 H   0  0  0  0  0  0  0  0  0  0  0  0
    2.6343   -5.0109   -1.9004 H   0  0  0  0  0  0  0  0  0  0  0  0
    3.5128   -5.9507   -0.6413 H   0  0  0  0  0  0  0  0  0  0  0  0
   -0.9607   -6.5596    0.4317 H   0  0  0  0  0  0  0  0  0  0  0  0
   -2.0753   -3.7528   -0.0046 H   0  0  0  0  0  0  0  0  0  0  0  0
   -3.4368   -4.2085    2.0230 H   0  0  0  0  0  0  0  0  0  0  0  0
   -1.6994   -4.5014    2.3607 H   0  0  0  0  0  0  0  0  0  0  0  0
   -2.8091   -5.9025    2.0896 H   0  0  0  0  0  0  0  0  0  0  0  0
   -5.0371   -4.9255   -1.8018 H   0  0  0  0  0  0  0  0  0  0  0  0
   -4.1449   -2.8800    0.2543 H   0  0  0  0  0  0  0  0  0  0  0  0
   -6.9611   -4.1478    0.0740 H   0  0  0  0  0  0  0  0  0  0  0  0
   -6.3693   -2.9617    1.3031 H   0  0  0  0  0  0  0  0  0  0  0  0
   -5.7095   -4.6232    1.2770 H   0  0  0  0  0  0  0  0  0  0  0  0
   -5.4754   -0.2995   -1.9317 H   0  0  0  0  0  0  0  0  0  0  0  0
   -4.9072   -0.9607    0.9849 H   0  0  0  0  0  0  0  0  0  0  0  0
   -7.2888   -0.8021    0.8774 H   0  0  0  0  0  0  0  0  0  0  0  0
   -6.7099    0.7637    1.5335 H   0  0  0  0  0  0  0  0  0  0  0  0
   -7.2528    0.6152   -0.1951 H   0  0  0  0  0  0  0  0  0  0  0  0
   -4.0669    2.6245    1.3771 H   0  0  0  0  0  0  0  0  0  0  0  0
   -6.5600    2.7024   -0.1697 H   0  0  0  0  0  0  0  0  0  0  0  0
   -5.2916    2.2257   -2.1370 H   0  0  0  0  0  0  0  0  0  0  0  0
   -5.6531    3.9807   -2.1642 H   0  0  0  0  0  0  0  0  0  0  0  0
   -4.0082    3.3798   -1.7311 H   0  0  0  0  0  0  0  0  0  0  0  0
   -4.6458    5.5176    2.0408 H   0  0  0  0  0  0  0  0  0  0  0  0
   -3.3329    5.1498   -0.6607 H   0  0  0  0  0  0  0  0  0  0  0  0
   -3.5040    7.7373    2.1573 H   0  0  0  0  0  0  0  0  0  0  0  0
   -3.7358    9.0727    0.9838 H   0  0  0  0  0  0  0  0  0  0  0  0
   -1.8021    4.2627    0.9424 H   0  0  0  0  0  0  0  0  0  0  0  0
   -2.1584    5.5510    2.1296 H   0  0  0  0  0  0  0  0  0  0  0  0
   -1.4413    5.5215   -1.7050 H   0  0  0  0  0  0  0  0  0  0  0  0
    0.0827    6.4068   -1.8363 H   0  0  0  0  0  0  0  0  0  0  0  0
  1  2  1  0
  2  3  2  0
  2  4  1  0
  4  5  1  0
  5  6  1  0
  6  7  1  0
  7  8  1  0
  8  9  1  0
  9 10  1  0
 10 11  2  0
 11 12  1  0
 12 13  2  0
 13 14  1  0
 13 15  1  0
 15 16  1  0
 16 17  1  0
 17 18  1  0
 18 19  1  0
 19 20  1  0
 20 21  2  0
 20 22  1  0
 22 23  1  0
 22 24  1  0
 24 25  1  0
 25 26  2  0
 18 27  1  0
 27 28  2  0
 27 29  1  0
 29 30  1  0
 30 31  1  0
 30 32  1  0
 32 33  2  0
 32 34  1  0
 34 35  1  0
 35 36  1  0
 35 37  1  0
 37 38  2  0
 37 39  1  0
 39 40  1  0
 40 41  1  0
 40 42  1  0
 42 43  2  0
 42 44  1  0
 44 45  1  0
 45 46  1  0
 45 47  1  0
 47 48  2  0
 47 49  1  0
 49 50  1  0
 50 51  1  0
 50 52  1  0
 52 53  2  0
 52 54  1  0
 54 55  1  0
 55 56  1  0
 56 57  1  0
 56 58  2  0
 55 59  1  0
 59 60  1  0
 60 61  1  0
 25  5  1  0
 14  9  2  0
 61 11  1  0
  1 62  1  0
  1 63  1  0
  1 64  1  0
  4 65  1  0
  5 66  1  6
  6 67  1  0
  6 68  1  0
  8 69  1  0
  8 70  1  0
 10 71  1  0
 12 72  1  0
 14 73  1  0
 15 74  1  0
 15 75  1  0
 17 76  1  0
 17 77  1  0
 18 78  1  6
 19 79  1  0
 22 80  1  1
 23 81  1  0
 23 82  1  0
 23 83  1  0
 24 84  1  0
 29 85  1  0
 30 86  1  1
 31 87  1  0
 31 88  1  0
 31 89  1  0
 34 90  1  0
 35 91  1  6
 36 92  1  0
 36 93  1  0
 36 94  1  0
 39 95  1  0
 40 96  1  1
 41 97  1  0
 41 98  1  0
 41 99  1  0
 44100  1  0
 45101  1  1
 46102  1  0
 46103  1  0
 46104  1  0
 49105  1  0
 50106  1  6
 51107  1  0
 51108  1  0
 51109  1  0
 54110  1  0
 55111  1  6
 57112  1  0
 57113  1  0
 59114  1  0
 59115  1  0
 61116  1  0
 61117  1  0
M  END
