
     RDKit          3D

147149  0  0  0  0  0  0  0  0999 V2000
   10.3290    1.7041    3.6226 C   0  0  0  0  0  0  0  0  0  0  0  0
    9.9011    1.9779    2.2075 C   0  0  0  0  0  0  0  0  0  0  0  0
   10.2986    3.0245    1.6195 O   0  0  0  0  0  0  0  0  0  0  0  0
    9.0552    1.0480    1.5252 N   0  0  0  0  0  0  0  0  0  0  0  0
    7.5902    1.2317    1.4747 C   0  0  2  0  0  0  0  0  0  0  0  0
    7.2187    2.7476    1.3089 C   0  0  0  0  0  0  0  0  0  0  0  0
    5.4199    3.0507    1.1374 S   0  0  0  0  0  0  0  0  0  0  0  0
    5.4135    4.0540   -0.4070 C   0  0  0  0  0  0  0  0  0  0  0  0
    4.7164    3.2749   -1.4782 C   0  0  0  0  0  0  0  0  0  0  0  0
    3.4079    3.6191   -1.8604 C   0  0  0  0  0  0  0  0  0  0  0  0
    2.6403    2.7193   -2.6154 C   0  0  0  0  0  0  0  0  0  0  0  0
    3.1769    1.4961   -2.9894 C   0  0  0  0  0  0  0  0  0  0  0  0
    4.5118    1.1867   -2.6870 C   0  0  0  0  0  0  0  0  0  0  0  0
    5.3060    2.1085   -1.9774 C   0  0  0  0  0  0  0  0  0  0  0  0
    4.8366   -0.2752   -2.5684 C   0  0  0  0  0  0  0  0  0  0  0  0
    4.5500   -1.2447   -4.1241 S   0  0  0  0  0  0  0  0  0  0  0  0
    3.0903   -2.2227   -3.5570 C   0  0  0  0  0  0  0  0  0  0  0  0
    3.2707   -3.2716   -2.3683 C   0  0  1  0  0  0  0  0  0  0  0  0
    4.6366   -3.3483   -1.7708 N   0  0  0  0  0  0  0  0  0  0  0  0
    5.0852   -4.5567   -1.1616 C   0  0  0  0  0  0  0  0  0  0  0  0
    5.1749   -5.6014   -1.8702 O   0  0  0  0  0  0  0  0  0  0  0  0
    5.6211   -4.5903    0.2556 C   0  0  1  0  0  0  0  0  0  0  0  0
    7.1261   -4.2364    0.3013 C   0  0  0  0  0  0  0  0  0  0  0  0
    4.7870   -3.8089    1.1766 N   0  0  0  0  0  0  0  0  0  0  0  0
    5.2171   -2.7870    2.1083 C   0  0  0  0  0  0  0  0  0  0  0  0
    4.7349   -2.8248    3.2633 O   0  0  0  0  0  0  0  0  0  0  0  0
    5.8371   -1.4899    1.6172 C   0  0  1  0  0  0  0  0  0  0  0  0
    4.7054   -0.6903    1.0116 C   0  0  0  0  0  0  0  0  0  0  0  0
    6.4791   -0.7520    2.7117 N   0  0  0  0  0  0  0  0  0  0  0  0
    6.9257    0.6188    2.6740 C   0  0  0  0  0  0  0  0  0  0  0  0
    6.9086    1.3200    3.7202 O   0  0  0  0  0  0  0  0  0  0  0  0
    2.2126   -3.0450   -1.3030 C   0  0  0  0  0  0  0  0  0  0  0  0
    1.9647   -1.8774   -0.9102 O   0  0  0  0  0  0  0  0  0  0  0  0
    1.6360   -4.1233   -0.5700 N   0  0  0  0  0  0  0  0  0  0  0  0
    0.6798   -5.1053   -1.1079 C   0  0  2  0  0  0  0  0  0  0  0  0
    1.3309   -6.0948   -2.0941 C   0  0  0  0  0  0  0  0  0  0  0  0
   -0.5648   -4.4450   -1.6962 C   0  0  0  0  0  0  0  0  0  0  0  0
   -0.6046   -4.1488   -2.9177 O   0  0  0  0  0  0  0  0  0  0  0  0
   -1.6650   -4.0454   -0.8540 N   0  0  0  0  0  0  0  0  0  0  0  0
   -2.6775   -4.9619   -0.2810 C   0  0  2  0  0  0  0  0  0  0  0  0
   -2.5015   -6.4624   -0.6154 C   0  0  0  0  0  0  0  0  0  0  0  0
   -4.0524   -4.5601   -0.6909 C   0  0  0  0  0  0  0  0  0  0  0  0
   -4.3007   -4.4369   -1.9211 O   0  0  0  0  0  0  0  0  0  0  0  0
   -5.1277   -4.4492    0.2614 N   0  0  0  0  0  0  0  0  0  0  0  0
   -5.0346   -3.5557    1.4123 C   0  0  2  0  0  0  0  0  0  0  0  0
   -6.3370   -3.5850    2.2480 C   0  0  0  0  0  0  0  0  0  0  0  0
   -4.7537   -2.1660    0.9537 C   0  0  0  0  0  0  0  0  0  0  0  0
   -3.8071   -1.5225    1.5448 O   0  0  0  0  0  0  0  0  0  0  0  0
   -5.3785   -1.6215   -0.2180 N   0  0  0  0  0  0  0  0  0  0  0  0
   -6.2321   -0.4417   -0.1150 C   0  0  2  0  0  0  0  0  0  0  0  0
   -6.8997   -0.1716   -1.4507 C   0  0  0  0  0  0  0  0  0  0  0  0
   -5.3548    0.6804    0.3436 C   0  0  0  0  0  0  0  0  0  0  0  0
   -4.4143    1.0276   -0.4157 O   0  0  0  0  0  0  0  0  0  0  0  0
   -5.2885    0.9658    1.7595 N   0  0  0  0  0  0  0  0  0  0  0  0
   -6.4932    1.3136    2.5662 C   0  0  2  0  0  0  0  0  0  0  0  0
   -6.9446    0.1146    3.4174 C   0  0  0  0  0  0  0  0  0  0  0  0
   -7.6667    1.8467    1.7423 C   0  0  0  0  0  0  0  0  0  0  0  0
   -8.7526    1.1987    1.6581 O   0  0  0  0  0  0  0  0  0  0  0  0
   -7.5054    3.0400    0.9575 N   0  0  0  0  0  0  0  0  0  0  0  0
   -7.9655    4.3086    1.4795 C   0  0  2  0  0  0  0  0  0  0  0  0
   -9.4312    4.5669    1.1102 C   0  0  0  0  0  0  0  0  0  0  0  0
   -7.0665    5.4192    0.9935 C   0  0  0  0  0  0  0  0  0  0  0  0
   -7.2787    6.6229    1.3049 O   0  0  0  0  0  0  0  0  0  0  0  0
   -5.9727    5.1201    0.0848 N   0  0  0  0  0  0  0  0  0  0  0  0
   -4.6649    4.5983    0.5520 C   0  0  2  0  0  0  0  0  0  0  0  0
   -4.5839    4.5094    2.0989 C   0  0  0  0  0  0  0  0  0  0  0  0
   -3.5648    5.4827    0.0655 C   0  0  0  0  0  0  0  0  0  0  0  0
   -3.4253    6.6231    0.5956 O   0  0  0  0  0  0  0  0  0  0  0  0
   -2.8117    5.1670   -1.1106 N   0  0  0  0  0  0  0  0  0  0  0  0
   -2.0125    3.9311   -1.2558 C   0  0  1  0  0  0  0  0  0  0  0  0
   -2.2694    3.3859   -2.6381 C   0  0  0  0  0  0  0  0  0  0  0  0
   -1.8766    4.1027   -3.8125 N   0  0  0  0  0  0  0  0  0  0  0  0
   -2.9426    2.3295   -2.7755 O   0  0  0  0  0  0  0  0  0  0  0  0
   -0.5267    4.2691   -1.0316 C   0  0  0  0  0  0  0  0  0  0  0  0
    0.5089    2.7520   -1.0501 S   0  0  0  0  0  0  0  0  0  0  0  0
    1.1924    2.9537   -2.7433 C   0  0  0  0  0  0  0  0  0  0  0  0
    9.9194    2.5130    4.2821 H   0  0  0  0  0  0  0  0  0  0  0  0
    9.9915    0.7485    3.9689 H   0  0  0  0  0  0  0  0  0  0  0  0
   11.4659    1.7762    3.6963 H   0  0  0  0  0  0  0  0  0  0  0  0
    9.4030    0.0655    1.4627 H   0  0  0  0  0  0  0  0  0  0  0  0
    7.2527    0.7124    0.5433 H   0  0  0  0  0  0  0  0  0  0  0  0
    7.7842    3.1793    0.4436 H   0  0  0  0  0  0  0  0  0  0  0  0
    7.5494    3.2942    2.1809 H   0  0  0  0  0  0  0  0  0  0  0  0
    6.4003    4.3667   -0.7340 H   0  0  0  0  0  0  0  0  0  0  0  0
    4.8153    4.9721   -0.1627 H   0  0  0  0  0  0  0  0  0  0  0  0
    2.9400    4.5279   -1.4933 H   0  0  0  0  0  0  0  0  0  0  0  0
    2.6102    0.7660   -3.5634 H   0  0  0  0  0  0  0  0  0  0  0  0
    6.3575    1.8916   -1.7686 H   0  0  0  0  0  0  0  0  0  0  0  0
    4.1312   -0.6428   -1.8025 H   0  0  0  0  0  0  0  0  0  0  0  0
    5.8508   -0.4389   -2.1405 H   0  0  0  0  0  0  0  0  0  0  0  0
    2.2842   -1.4800   -3.3042 H   0  0  0  0  0  0  0  0  0  0  0  0
    2.7075   -2.7327   -4.4264 H   0  0  0  0  0  0  0  0  0  0  0  0
    3.0982   -4.2466   -2.8256 H   0  0  0  0  0  0  0  0  0  0  0  0
    5.4158   -2.8784   -2.3066 H   0  0  0  0  0  0  0  0  0  0  0  0
    5.5727   -5.6586    0.6002 H   0  0  0  0  0  0  0  0  0  0  0  0
    7.4732   -4.0160    1.3354 H   0  0  0  0  0  0  0  0  0  0  0  0
    7.7310   -5.1232   -0.0863 H   0  0  0  0  0  0  0  0  0  0  0  0
    7.3364   -3.3526   -0.3951 H   0  0  0  0  0  0  0  0  0  0  0  0
    3.8684   -4.2665    1.4006 H   0  0  0  0  0  0  0  0  0  0  0  0
    6.6154   -1.6888    0.8521 H   0  0  0  0  0  0  0  0  0  0  0  0
    4.2239   -1.3231    0.2171 H   0  0  0  0  0  0  0  0  0  0  0  0
    3.9124   -0.4660    1.7412 H   0  0  0  0  0  0  0  0  0  0  0  0
    5.0606    0.2487    0.5587 H   0  0  0  0  0  0  0  0  0  0  0  0
    6.4866   -1.1659    3.6611 H   0  0  0  0  0  0  0  0  0  0  0  0
    1.6282   -4.0324    0.4690 H   0  0  0  0  0  0  0  0  0  0  0  0
    0.3489   -5.7102   -0.2470 H   0  0  0  0  0  0  0  0  0  0  0  0
    2.3006   -6.4268   -1.6932 H   0  0  0  0  0  0  0  0  0  0  0  0
    0.6770   -6.9757   -2.2190 H   0  0  0  0  0  0  0  0  0  0  0  0
    1.4708   -5.6410   -3.1215 H   0  0  0  0  0  0  0  0  0  0  0  0
   -1.8848   -3.0231   -0.8031 H   0  0  0  0  0  0  0  0  0  0  0  0
   -2.5611   -4.8939    0.8326 H   0  0  0  0  0  0  0  0  0  0  0  0
   -3.1380   -7.0555    0.0554 H   0  0  0  0  0  0  0  0  0  0  0  0
   -2.8907   -6.6508   -1.6677 H   0  0  0  0  0  0  0  0  0  0  0  0
   -1.4640   -6.8195   -0.5433 H   0  0  0  0  0  0  0  0  0  0  0  0
   -6.0796   -4.7404   -0.0630 H   0  0  0  0  0  0  0  0  0  0  0  0
   -4.2186   -3.9065    2.0795 H   0  0  0  0  0  0  0  0  0  0  0  0
   -6.4553   -4.5876    2.7021 H   0  0  0  0  0  0  0  0  0  0  0  0
   -6.2851   -2.8122    3.0554 H   0  0  0  0  0  0  0  0  0  0  0  0
   -7.2235   -3.3587    1.5997 H   0  0  0  0  0  0  0  0  0  0  0  0
   -4.7632   -1.5762   -1.0615 H   0  0  0  0  0  0  0  0  0  0  0  0
   -7.0147   -0.6365    0.6446 H   0  0  0  0  0  0  0  0  0  0  0  0
   -7.8722   -0.7075   -1.4978 H   0  0  0  0  0  0  0  0  0  0  0  0
   -7.0857    0.8956   -1.6232 H   0  0  0  0  0  0  0  0  0  0  0  0
   -6.3052   -0.5847   -2.3369 H   0  0  0  0  0  0  0  0  0  0  0  0
   -4.3824    1.3675    2.1051 H   0  0  0  0  0  0  0  0  0  0  0  0
   -6.1931    2.0679    3.3037 H   0  0  0  0  0  0  0  0  0  0  0  0
   -6.0897   -0.3733    3.9249 H   0  0  0  0  0  0  0  0  0  0  0  0
   -7.4847   -0.6510    2.8268 H   0  0  0  0  0  0  0  0  0  0  0  0
   -7.6122    0.4553    4.2313 H   0  0  0  0  0  0  0  0  0  0  0  0
   -7.5575    2.9032   -0.0904 H   0  0  0  0  0  0  0  0  0  0  0  0
   -7.9016    4.3316    2.5648 H   0  0  0  0  0  0  0  0  0  0  0  0
   -9.9167    5.1786    1.9237 H   0  0  0  0  0  0  0  0  0  0  0  0
  -10.0173    3.6213    1.0328 H   0  0  0  0  0  0  0  0  0  0  0  0
   -9.5601    5.1151    0.1487 H   0  0  0  0  0  0  0  0  0  0  0  0
   -5.9716    5.6380   -0.8469 H   0  0  0  0  0  0  0  0  0  0  0  0
   -4.5690    3.5858    0.1299 H   0  0  0  0  0  0  0  0  0  0  0  0
   -4.4430    5.4961    2.6063 H   0  0  0  0  0  0  0  0  0  0  0  0
   -5.5038    4.0643    2.5470 H   0  0  0  0  0  0  0  0  0  0  0  0
   -3.7141    3.8719    2.3807 H   0  0  0  0  0  0  0  0  0  0  0  0
   -2.5699    5.9770   -1.7341 H   0  0  0  0  0  0  0  0  0  0  0  0
   -2.2961    3.1859   -0.5094 H   0  0  0  0  0  0  0  0  0  0  0  0
   -1.2219    4.9046   -3.7707 H   0  0  0  0  0  0  0  0  0  0  0  0
   -2.3273    3.9075   -4.7407 H   0  0  0  0  0  0  0  0  0  0  0  0
   -0.1700    5.0547   -1.7647 H   0  0  0  0  0  0  0  0  0  0  0  0
   -0.4276    4.7659   -0.0448 H   0  0  0  0  0  0  0  0  0  0  0  0
    0.7102    2.2484   -3.4359 H   0  0  0  0  0  0  0  0  0  0  0  0
    1.0306    3.9536   -3.1556 H   0  0  0  0  0  0  0  0  0  0  0  0
  1  2  1  0
  2  3  2  0
  2  4  1  0
  4  5  1  0
  5  6  1  0
  6  7  1  0
  7  8  1  0
  8  9  1  0
  9 10  2  0
 10 11  1  0
 11 12  2  0
 12 13  1  0
 13 14  2  0
 13 15  1  0
 15 16  1  0
 16 17  1  0
 17 18  1  0
 18 19  1  0
 19 20  1  0
 20 21  2  0
 20 22  1  0
 22 23  1  0
 22 24  1  0
 24 25  1  0
 25 26  2  0
 25 27  1  0
 27 28  1  0
 27 29  1  0
 29 30  1  0
 30 31  2  0
 18 32  1  0
 32 33  2  0
 32 34  1  0
 34 35  1  0
 35 36  1  0
 35 37  1  0
 37 38  2  0
 37 39  1  0
 39 40  1  0
 40 41  1  0
 40 42  1  0
 42 43  2  0
 42 44  1  0
 44 45  1  0
 45 46  1  0
 45 47  1  0
 47 48  2  0
 47 49  1  0
 49 50  1  0
 50 51  1  0
 50 52  1  0
 52 53  2  0
 52 54  1  0
 54 55  1  0
 55 56  1  0
 55 57  1  0
 57 58  2  0
 57 59  1  0
 59 60  1  0
 60 61  1  0
 60 62  1  0
 62 63  2  0
 62 64  1  0
 64 65  1  0
 65 66  1  0
 65 67  1  0
 67 68  2  0
 67 69  1  0
 69 70  1  0
 70 71  1  0
 71 72  1  0
 71 73  2  0
 70 74  1  0
 74 75  1  0
 75 76  1  0
 30  5  1  0
 14  9  1  0
 76 11  1  0
  1 77  1  0
  1 78  1  0
  1 79  1  0
  4 80  1  0
  5 81  1  6
  6 82  1  0
  6 83  1  0
  8 84  1  0
  8 85  1  0
 10 86  1  0
 12 87  1  0
 14 88  1  0
 15 89  1  0
 15 90  1  0
 17 91  1  0
 17 92  1  0
 18 93  1  6
 19 94  1  0
 22 95  1  1
 23 96  1  0
 23 97  1  0
 23 98  1  0
 24 99  1  0
 27100  1  6
 28101  1  0
 28102  1  0
 28103  1  0
 29104  1  0
 34105  1  0
 35106  1  1
 36107  1  0
 36108  1  0
 36109  1  0
 39110  1  0
 40111  1  1
 41112  1  0
 41113  1  0
 41114  1  0
 44115  1  0
 45116  1  1
 46117  1  0
 46118  1  0
 46119  1  0
 49120  1  0
 50121  1  1
 51122  1  0
 51123  1  0
 51124  1  0
 54125  1  0
 55126  1  1
 56127  1  0
 56128  1  0
 56129  1  0
 59130  1  0
 60131  1  1
 61132  1  0
 61133  1  0
 61134  1  0
 64135  1  0
 65136  1  6
 66137  1  0
 66138  1  0
 66139  1  0
 69140  1  0
 70141  1  1
 72142  1  0
 72143  1  0
 74144  1  0
 74145  1  0
 76146  1  0
 76147  1  0
M  END
