
     RDKit          3D

147149  0  0  0  0  0  0  0  0999 V2000
  -12.0544    3.2524   -0.6168 C   0  0  0  0  0  0  0  0  0  0  0  0
  -10.6972    2.9941   -0.0469 C   0  0  0  0  0  0  0  0  0  0  0  0
  -10.3139    3.6447    0.9682 O   0  0  0  0  0  0  0  0  0  0  0  0
   -9.8425    2.0204   -0.6567 N   0  0  0  0  0  0  0  0  0  0  0  0
   -8.5258    1.6708   -0.1048 C   0  0  2  0  0  0  0  0  0  0  0  0
   -7.4171    2.3866   -0.8928 C   0  0  0  0  0  0  0  0  0  0  0  0
   -5.9786    2.6923    0.2056 S   0  0  0  0  0  0  0  0  0  0  0  0
   -4.8937    3.4157   -1.0716 C   0  0  0  0  0  0  0  0  0  0  0  0
   -3.4805    3.0457   -0.7363 C   0  0  0  0  0  0  0  0  0  0  0  0
   -2.9597    1.8177   -1.1730 C   0  0  0  0  0  0  0  0  0  0  0  0
   -1.6846    1.4010   -0.7589 C   0  0  0  0  0  0  0  0  0  0  0  0
   -0.9285    2.2117    0.0974 C   0  0  0  0  0  0  0  0  0  0  0  0
   -1.4511    3.4268    0.5672 C   0  0  0  0  0  0  0  0  0  0  0  0
   -2.7171    3.8507    0.1288 C   0  0  0  0  0  0  0  0  0  0  0  0
   -0.6939    4.2176    1.6012 C   0  0  0  0  0  0  0  0  0  0  0  0
   -0.3449    5.9203    1.0383 S   0  0  0  0  0  0  0  0  0  0  0  0
    0.8605    5.4621   -0.2697 C   0  0  0  0  0  0  0  0  0  0  0  0
    1.8926    6.5771   -0.5086 C   0  0  1  0  0  0  0  0  0  0  0  0
    1.2256    7.8945   -0.8565 C   0  0  0  0  0  0  0  0  0  0  0  0
    1.6041    9.1261   -0.2175 N   0  0  0  0  0  0  0  0  0  0  0  0
    0.2871    7.9111   -1.6909 O   0  0  0  0  0  0  0  0  0  0  0  0
    2.7458    6.7138    0.6837 N   0  0  0  0  0  0  0  0  0  0  0  0
    4.0297    6.0792    0.8614 C   0  0  0  0  0  0  0  0  0  0  0  0
    4.3831    5.7543    2.0276 O   0  0  0  0  0  0  0  0  0  0  0  0
    5.0041    5.8662   -0.2791 C   0  0  1  0  0  0  0  0  0  0  0  0
    6.2960    6.6567   -0.0495 C   0  0  0  0  0  0  0  0  0  0  0  0
    5.2779    4.4400   -0.4761 N   0  0  0  0  0  0  0  0  0  0  0  0
    6.2256    3.7010    0.3057 C   0  0  0  0  0  0  0  0  0  0  0  0
    6.0398    3.5524    1.5438 O   0  0  0  0  0  0  0  0  0  0  0  0
    7.4553    3.1293   -0.3505 C   0  0  1  0  0  0  0  0  0  0  0  0
    8.7220    3.7148    0.2925 C   0  0  0  0  0  0  0  0  0  0  0  0
    7.4792    1.6665   -0.2483 N   0  0  0  0  0  0  0  0  0  0  0  0
    8.3391    0.8837   -1.0956 C   0  0  0  0  0  0  0  0  0  0  0  0
    8.6470    1.3196   -2.2417 O   0  0  0  0  0  0  0  0  0  0  0  0
    8.8629   -0.4700   -0.6525 C   0  0  1  0  0  0  0  0  0  0  0  0
   10.3187   -0.6524   -1.1038 C   0  0  0  0  0  0  0  0  0  0  0  0
    8.8025   -0.5974    0.8107 N   0  0  0  0  0  0  0  0  0  0  0  0
    8.5059   -1.8035    1.5325 C   0  0  0  0  0  0  0  0  0  0  0  0
    8.9066   -1.8970    2.7257 O   0  0  0  0  0  0  0  0  0  0  0  0
    7.7643   -2.9701    0.9087 C   0  0  1  0  0  0  0  0  0  0  0  0
    8.7642   -3.9431    0.2730 C   0  0  0  0  0  0  0  0  0  0  0  0
    6.9750   -3.6836    1.9203 N   0  0  0  0  0  0  0  0  0  0  0  0
    5.7330   -4.3639    1.6602 C   0  0  0  0  0  0  0  0  0  0  0  0
    5.0979   -4.8480    2.6330 O   0  0  0  0  0  0  0  0  0  0  0  0
    5.1635   -4.5209    0.2632 C   0  0  1  0  0  0  0  0  0  0  0  0
    4.5304   -5.8990    0.0524 C   0  0  0  0  0  0  0  0  0  0  0  0
    4.2186   -3.4420   -0.0399 N   0  0  0  0  0  0  0  0  0  0  0  0
    2.8749   -3.4258    0.4720 C   0  0  0  0  0  0  0  0  0  0  0  0
    2.6805   -3.5347    1.7110 O   0  0  0  0  0  0  0  0  0  0  0  0
    1.6777   -3.3755   -0.4515 C   0  0  1  0  0  0  0  0  0  0  0  0
    2.0210   -2.8202   -1.8398 C   0  0  0  0  0  0  0  0  0  0  0  0
    1.0866   -4.7097   -0.5705 N   0  0  0  0  0  0  0  0  0  0  0  0
   -0.2073   -4.9034   -1.1424 C   0  0  0  0  0  0  0  0  0  0  0  0
   -0.2958   -5.1895   -2.3691 O   0  0  0  0  0  0  0  0  0  0  0  0
   -1.4592   -4.9238   -0.3007 C   0  0  1  0  0  0  0  0  0  0  0  0
   -1.7886   -6.3638    0.1100 C   0  0  0  0  0  0  0  0  0  0  0  0
   -1.3453   -4.0723    0.8843 N   0  0  0  0  0  0  0  0  0  0  0  0
   -2.5127   -3.6921    1.6216 C   0  0  0  0  0  0  0  0  0  0  0  0
   -2.7665   -4.2891    2.7039 O   0  0  0  0  0  0  0  0  0  0  0  0
   -3.3986   -2.5325    1.2117 C   0  0  1  0  0  0  0  0  0  0  0  0
   -2.9004   -1.6747    0.0273 C   0  0  0  0  0  0  0  0  0  0  0  0
   -1.2142   -1.0498    0.3149 S   0  0  0  0  0  0  0  0  0  0  0  0
   -1.1608    0.0470   -1.1484 C   0  0  0  0  0  0  0  0  0  0  0  0
   -4.7781   -3.0009    1.0083 N   0  0  0  0  0  0  0  0  0  0  0  0
   -5.2057   -3.8774   -0.0522 C   0  0  0  0  0  0  0  0  0  0  0  0
   -4.5818   -3.9125   -1.1397 O   0  0  0  0  0  0  0  0  0  0  0  0
   -6.4299   -4.7358    0.1034 C   0  0  1  0  0  0  0  0  0  0  0  0
   -6.2407   -5.7382    1.2443 C   0  0  0  0  0  0  0  0  0  0  0  0
   -7.6265   -3.9152    0.3208 N   0  0  0  0  0  0  0  0  0  0  0  0
   -8.0679   -2.9270   -0.6321 C   0  0  0  0  0  0  0  0  0  0  0  0
   -7.4079   -2.7528   -1.6946 O   0  0  0  0  0  0  0  0  0  0  0  0
   -9.3471   -2.1372   -0.4469 C   0  0  1  0  0  0  0  0  0  0  0  0
   -9.9425   -2.2110    0.9653 C   0  0  0  0  0  0  0  0  0  0  0  0
   -9.1404   -0.7391   -0.8304 N   0  0  0  0  0  0  0  0  0  0  0  0
   -8.2983    0.1701   -0.0937 C   0  0  0  0  0  0  0  0  0  0  0  0
   -7.3210   -0.2858    0.5686 O   0  0  0  0  0  0  0  0  0  0  0  0
  -12.5882    4.0258   -0.0227 H   0  0  0  0  0  0  0  0  0  0  0  0
  -11.9452    3.5995   -1.6658 H   0  0  0  0  0  0  0  0  0  0  0  0
  -12.6415    2.3108   -0.5993 H   0  0  0  0  0  0  0  0  0  0  0  0
  -10.1082    1.6932   -1.6156 H   0  0  0  0  0  0  0  0  0  0  0  0
   -8.4919    1.9949    0.9611 H   0  0  0  0  0  0  0  0  0  0  0  0
   -7.7878    3.3746   -1.2517 H   0  0  0  0  0  0  0  0  0  0  0  0
   -7.1094    1.7811   -1.7752 H   0  0  0  0  0  0  0  0  0  0  0  0
   -5.0172    4.5224   -1.0694 H   0  0  0  0  0  0  0  0  0  0  0  0
   -5.1408    3.0536   -2.0929 H   0  0  0  0  0  0  0  0  0  0  0  0
   -3.5548    1.1784   -1.8196 H   0  0  0  0  0  0  0  0  0  0  0  0
    0.0365    1.8679    0.4465 H   0  0  0  0  0  0  0  0  0  0  0  0
   -3.1233    4.7909    0.4947 H   0  0  0  0  0  0  0  0  0  0  0  0
    0.2619    3.7202    1.8852 H   0  0  0  0  0  0  0  0  0  0  0  0
   -1.3194    4.2780    2.5189 H   0  0  0  0  0  0  0  0  0  0  0  0
    1.4114    4.5371    0.0091 H   0  0  0  0  0  0  0  0  0  0  0  0
    0.3023    5.2574   -1.2118 H   0  0  0  0  0  0  0  0  0  0  0  0
    2.4855    6.2753   -1.3910 H   0  0  0  0  0  0  0  0  0  0  0  0
    2.4589    9.1940    0.3765 H   0  0  0  0  0  0  0  0  0  0  0  0
    1.0536    9.9906   -0.4032 H   0  0  0  0  0  0  0  0  0  0  0  0
    2.2918    7.0685    1.5538 H   0  0  0  0  0  0  0  0  0  0  0  0
    4.5852    6.2676   -1.2250 H   0  0  0  0  0  0  0  0  0  0  0  0
    6.0824    7.7456   -0.0234 H   0  0  0  0  0  0  0  0  0  0  0  0
    6.7748    6.3687    0.9132 H   0  0  0  0  0  0  0  0  0  0  0  0
    7.0094    6.4562   -0.8760 H   0  0  0  0  0  0  0  0  0  0  0  0
    4.8552    3.9615   -1.3109 H   0  0  0  0  0  0  0  0  0  0  0  0
    7.4445    3.4309   -1.4221 H   0  0  0  0  0  0  0  0  0  0  0  0
    8.7818    3.4443    1.3713 H   0  0  0  0  0  0  0  0  0  0  0  0
    9.6289    3.3214   -0.2193 H   0  0  0  0  0  0  0  0  0  0  0  0
    8.7293    4.8181    0.1935 H   0  0  0  0  0  0  0  0  0  0  0  0
    7.0712    1.2257    0.6065 H   0  0  0  0  0  0  0  0  0  0  0  0
    8.2429   -1.2422   -1.1474 H   0  0  0  0  0  0  0  0  0  0  0  0
   10.9504    0.1757   -0.7176 H   0  0  0  0  0  0  0  0  0  0  0  0
   10.7271   -1.6080   -0.7183 H   0  0  0  0  0  0  0  0  0  0  0  0
   10.3835   -0.6716   -2.2172 H   0  0  0  0  0  0  0  0  0  0  0  0
    9.2064    0.1930    1.3691 H   0  0  0  0  0  0  0  0  0  0  0  0
    7.0762   -2.5760    0.1369 H   0  0  0  0  0  0  0  0  0  0  0  0
    9.2975   -3.4574   -0.5697 H   0  0  0  0  0  0  0  0  0  0  0  0
    9.5039   -4.2858    1.0284 H   0  0  0  0  0  0  0  0  0  0  0  0
    8.2361   -4.8328   -0.1278 H   0  0  0  0  0  0  0  0  0  0  0  0
    7.3780   -3.8058    2.8784 H   0  0  0  0  0  0  0  0  0  0  0  0
    5.9888   -4.4647   -0.4756 H   0  0  0  0  0  0  0  0  0  0  0  0
    4.1294   -5.9757   -0.9823 H   0  0  0  0  0  0  0  0  0  0  0  0
    3.6946   -6.0645    0.7635 H   0  0  0  0  0  0  0  0  0  0  0  0
    5.2893   -6.6962    0.1929 H   0  0  0  0  0  0  0  0  0  0  0  0
    4.4806   -2.7682   -0.7973 H   0  0  0  0  0  0  0  0  0  0  0  0
    0.9427   -2.6878    0.0038 H   0  0  0  0  0  0  0  0  0  0  0  0
    2.7451   -3.4793   -2.3588 H   0  0  0  0  0  0  0  0  0  0  0  0
    2.4419   -1.7986   -1.7472 H   0  0  0  0  0  0  0  0  0  0  0  0
    1.1040   -2.7525   -2.4623 H   0  0  0  0  0  0  0  0  0  0  0  0
    1.7398   -5.5159   -0.6667 H   0  0  0  0  0  0  0  0  0  0  0  0
   -2.2832   -4.5510   -0.9307 H   0  0  0  0  0  0  0  0  0  0  0  0
   -0.9918   -6.7753    0.7665 H   0  0  0  0  0  0  0  0  0  0  0  0
   -2.7541   -6.3921    0.6599 H   0  0  0  0  0  0  0  0  0  0  0  0
   -1.8878   -7.0081   -0.7917 H   0  0  0  0  0  0  0  0  0  0  0  0
   -0.4637   -4.1253    1.4325 H   0  0  0  0  0  0  0  0  0  0  0  0
   -3.4067   -1.8562    2.0894 H   0  0  0  0  0  0  0  0  0  0  0  0
   -2.9003   -2.2364   -0.9217 H   0  0  0  0  0  0  0  0  0  0  0  0
   -3.5728   -0.7992   -0.0731 H   0  0  0  0  0  0  0  0  0  0  0  0
   -1.7334   -0.3971   -1.9972 H   0  0  0  0  0  0  0  0  0  0  0  0
   -0.1035    0.1500   -1.4915 H   0  0  0  0  0  0  0  0  0  0  0  0
   -5.4647   -2.8018    1.7714 H   0  0  0  0  0  0  0  0  0  0  0  0
   -6.5795   -5.3180   -0.8339 H   0  0  0  0  0  0  0  0  0  0  0  0
   -6.1894   -5.2145    2.2221 H   0  0  0  0  0  0  0  0  0  0  0  0
   -5.3002   -6.3214    1.1019 H   0  0  0  0  0  0  0  0  0  0  0  0
   -7.0934   -6.4525    1.2653 H   0  0  0  0  0  0  0  0  0  0  0  0
   -8.3021   -4.2241    1.0662 H   0  0  0  0  0  0  0  0  0  0  0  0
  -10.1006   -2.5777   -1.1388 H   0  0  0  0  0  0  0  0  0  0  0  0
  -10.3520   -3.2228    1.1587 H   0  0  0  0  0  0  0  0  0  0  0  0
   -9.1748   -1.9661    1.7298 H   0  0  0  0  0  0  0  0  0  0  0  0
  -10.7851   -1.4928    1.0541 H   0  0  0  0  0  0  0  0  0  0  0  0
   -9.6340   -0.4107   -1.6900 H   0  0  0  0  0  0  0  0  0  0  0  0
  1  2  1  0
  2  3  2  0
  2  4  1  0
  4  5  1  0
  5  6  1  0
  6  7  1  0
  7  8  1  0
  8  9  1  0
  9 10  2  0
 10 11  1  0
 11 12  2  0
 12 13  1  0
 13 14  2  0
 13 15  1  0
 15 16  1  0
 16 17  1  0
 17 18  1  0
 18 19  1  0
 19 20  1  0
 19 21  2  0
 18 22  1  0
 22 23  1  0
 23 24  2  0
 23 25  1  0
 25 26  1  0
 25 27  1  0
 27 28  1  0
 28 29  2  0
 28 30  1  0
 30 31  1  0
 30 32  1  0
 32 33  1  0
 33 34  2  0
 33 35  1  0
 35 36  1  0
 35 37  1  0
 37 38  1  0
 38 39  2  0
 38 40  1  0
 40 41  1  0
 40 42  1  0
 42 43  1  0
 43 44  2  0
 43 45  1  0
 45 46  1  0
 45 47  1  0
 47 48  1  0
 48 49  2  0
 48 50  1  0
 50 51  1  0
 50 52  1  0
 52 53  1  0
 53 54  2  0
 53 55  1  0
 55 56  1  0
 55 57  1  0
 57 58  1  0
 58 59  2  0
 58 60  1  0
 60 61  1  0
 61 62  1  0
 62 63  1  0
 60 64  1  0
 64 65  1  0
 65 66  2  0
 65 67  1  0
 67 68  1  0
 67 69  1  0
 69 70  1  0
 70 71  2  0
 70 72  1  0
 72 73  1  0
 72 74  1  0
 74 75  1  0
 75 76  2  0
 75  5  1  0
 14  9  1  0
 63 11  1  0
  1 77  1  0
  1 78  1  0
  1 79  1  0
  4 80  1  0
  5 81  1  1
  6 82  1  0
  6 83  1  0
  8 84  1  0
  8 85  1  0
 10 86  1  0
 12 87  1  0
 14 88  1  0
 15 89  1  0
 15 90  1  0
 17 91  1  0
 17 92  1  0
 18 93  1  6
 20 94  1  0
 20 95  1  0
 22 96  1  0
 25 97  1  6
 26 98  1  0
 26 99  1  0
 26100  1  0
 27101  1  0
 30102  1  6
 31103  1  0
 31104  1  0
 31105  1  0
 32106  1  0
 35107  1  6
 36108  1  0
 36109  1  0
 36110  1  0
 37111  1  0
 40112  1  6
 41113  1  0
 41114  1  0
 41115  1  0
 42116  1  0
 45117  1  6
 46118  1  0
 46119  1  0
 46120  1  0
 47121  1  0
 50122  1  1
 51123  1  0
 51124  1  0
 51125  1  0
 52126  1  0
 55127  1  6
 56128  1  0
 56129  1  0
 56130  1  0
 57131  1  0
 60132  1  1
 61133  1  0
 61134  1  0
 63135  1  0
 63136  1  0
 64137  1  0
 67138  1  6
 68139  1  0
 68140  1  0
 68141  1  0
 69142  1  0
 72143  1  6
 73144  1  0
 73145  1  0
 73146  1  0
 74147  1  0
M  END
