
     RDKit          3D

147149  0  0  0  0  0  0  0  0999 V2000
  -11.7693    3.5193   -0.6088 C   0  0  0  0  0  0  0  0  0  0  0  0
  -10.6559    2.6888   -0.0518 C   0  0  0  0  0  0  0  0  0  0  0  0
  -10.6779    2.3666    1.1686 O   0  0  0  0  0  0  0  0  0  0  0  0
   -9.5734    2.2691   -0.8995 N   0  0  0  0  0  0  0  0  0  0  0  0
   -8.4850    1.3840   -0.4761 C   0  0  1  0  0  0  0  0  0  0  0  0
   -7.5003    2.1144    0.4651 C   0  0  0  0  0  0  0  0  0  0  0  0
   -6.5771    3.4341   -0.4149 S   0  0  0  0  0  0  0  0  0  0  0  0
   -5.2823    2.3753   -1.1654 C   0  0  0  0  0  0  0  0  0  0  0  0
   -4.0076    2.4236   -0.3656 C   0  0  0  0  0  0  0  0  0  0  0  0
   -3.6880    1.3855    0.5200 C   0  0  0  0  0  0  0  0  0  0  0  0
   -2.4879    1.4104    1.2468 C   0  0  0  0  0  0  0  0  0  0  0  0
   -1.5876    2.4689    1.0566 C   0  0  0  0  0  0  0  0  0  0  0  0
   -1.8471    3.4629    0.0961 C   0  0  0  0  0  0  0  0  0  0  0  0
   -3.0806    3.4573   -0.5769 C   0  0  0  0  0  0  0  0  0  0  0  0
   -0.7906    4.4932   -0.2318 C   0  0  0  0  0  0  0  0  0  0  0  0
    0.7714    3.6393   -0.6477 S   0  0  0  0  0  0  0  0  0  0  0  0
    1.6737    5.0411   -1.4090 C   0  0  0  0  0  0  0  0  0  0  0  0
    2.1500    6.1340   -0.4153 C   0  0  1  0  0  0  0  0  0  0  0  0
    1.2302    7.3297   -0.3256 C   0  0  0  0  0  0  0  0  0  0  0  0
    1.4347    8.3119    0.6957 N   0  0  0  0  0  0  0  0  0  0  0  0
    0.3224    7.5175   -1.1827 O   0  0  0  0  0  0  0  0  0  0  0  0
    2.3920    5.5775    0.9229 N   0  0  0  0  0  0  0  0  0  0  0  0
    3.6743    5.6107    1.5675 C   0  0  0  0  0  0  0  0  0  0  0  0
    3.7345    5.9234    2.7887 O   0  0  0  0  0  0  0  0  0  0  0  0
    4.9495    5.2671    0.8352 C   0  0  1  0  0  0  0  0  0  0  0  0
    5.7528    6.5544    0.5796 C   0  0  0  0  0  0  0  0  0  0  0  0
    5.7328    4.3168    1.6429 N   0  0  0  0  0  0  0  0  0  0  0  0
    7.0828    3.9480    1.3268 C   0  0  0  0  0  0  0  0  0  0  0  0
    7.9952    4.1975    2.1679 O   0  0  0  0  0  0  0  0  0  0  0  0
    7.4010    3.1760    0.0772 C   0  0  1  0  0  0  0  0  0  0  0  0
    8.5354    3.8416   -0.7075 C   0  0  0  0  0  0  0  0  0  0  0  0
    7.7897    1.8138    0.4311 N   0  0  0  0  0  0  0  0  0  0  0  0
    6.9446    0.6860    0.1968 C   0  0  0  0  0  0  0  0  0  0  0  0
    5.8519    0.5806    0.8266 O   0  0  0  0  0  0  0  0  0  0  0  0
    7.3687   -0.4025   -0.7473 C   0  0  1  0  0  0  0  0  0  0  0  0
    7.3758    0.1238   -2.1835 C   0  0  0  0  0  0  0  0  0  0  0  0
    8.7064   -0.8799   -0.3915 N   0  0  0  0  0  0  0  0  0  0  0  0
    9.1143   -2.2448   -0.5725 C   0  0  0  0  0  0  0  0  0  0  0  0
   10.1423   -2.4769   -1.2644 O   0  0  0  0  0  0  0  0  0  0  0  0
    8.3545   -3.4077    0.0329 C   0  0  1  0  0  0  0  0  0  0  0  0
    9.3400   -4.4108    0.6412 C   0  0  0  0  0  0  0  0  0  0  0  0
    7.4344   -2.9443    1.0839 N   0  0  0  0  0  0  0  0  0  0  0  0
    6.0781   -3.4041    1.2611 C   0  0  0  0  0  0  0  0  0  0  0  0
    5.5126   -3.1715    2.3603 O   0  0  0  0  0  0  0  0  0  0  0  0
    5.3386   -4.2063    0.2040 C   0  0  1  0  0  0  0  0  0  0  0  0
    5.6733   -5.6961    0.3435 C   0  0  0  0  0  0  0  0  0  0  0  0
    3.8824   -4.0263    0.3022 N   0  0  0  0  0  0  0  0  0  0  0  0
    2.9916   -4.5611   -0.7016 C   0  0  0  0  0  0  0  0  0  0  0  0
    3.4191   -4.7790   -1.8703 O   0  0  0  0  0  0  0  0  0  0  0  0
    1.5434   -4.8596   -0.3854 C   0  0  1  0  0  0  0  0  0  0  0  0
    1.3994   -5.5522    0.9739 C   0  0  0  0  0  0  0  0  0  0  0  0
    0.7673   -3.6196   -0.4180 N   0  0  0  0  0  0  0  0  0  0  0  0
   -0.3421   -3.3992   -1.3102 C   0  0  0  0  0  0  0  0  0  0  0  0
   -0.3331   -2.3753   -2.0463 O   0  0  0  0  0  0  0  0  0  0  0  0
   -1.5453   -4.3133   -1.3727 C   0  0  1  0  0  0  0  0  0  0  0  0
   -1.4158   -5.3336   -2.5159 C   0  0  0  0  0  0  0  0  0  0  0  0
   -1.7949   -4.9932   -0.0937 N   0  0  0  0  0  0  0  0  0  0  0  0
   -2.4351   -4.4372    1.0785 C   0  0  0  0  0  0  0  0  0  0  0  0
   -2.7970   -5.2365    1.9862 O   0  0  0  0  0  0  0  0  0  0  0  0
   -2.6003   -2.9489    1.3615 C   0  0  1  0  0  0  0  0  0  0  0  0
   -1.3036   -2.3604    1.9841 C   0  0  0  0  0  0  0  0  0  0  0  0
   -0.7809   -0.7048    1.3880 S   0  0  0  0  0  0  0  0  0  0  0  0
   -2.1189    0.2745    2.1599 C   0  0  0  0  0  0  0  0  0  0  0  0
   -3.0974   -2.2177    0.1903 N   0  0  0  0  0  0  0  0  0  0  0  0
   -4.4176   -2.3885   -0.3533 C   0  0  0  0  0  0  0  0  0  0  0  0
   -4.5891   -2.1144   -1.5693 O   0  0  0  0  0  0  0  0  0  0  0  0
   -5.5920   -2.8413    0.5006 C   0  0  1  0  0  0  0  0  0  0  0  0
   -5.9949   -1.7610    1.5175 C   0  0  0  0  0  0  0  0  0  0  0  0
   -6.7510   -3.2192   -0.3194 N   0  0  0  0  0  0  0  0  0  0  0  0
   -7.6060   -2.2680   -0.9769 C   0  0  0  0  0  0  0  0  0  0  0  0
   -7.1128   -1.4187   -1.7733 O   0  0  0  0  0  0  0  0  0  0  0  0
   -9.1062   -2.2694   -0.7740 C   0  0  1  0  0  0  0  0  0  0  0  0
   -9.5600   -3.0525    0.4642 C   0  0  0  0  0  0  0  0  0  0  0  0
   -9.6080   -0.8897   -0.7273 N   0  0  0  0  0  0  0  0  0  0  0  0
   -9.0294    0.1150    0.1277 C   0  0  0  0  0  0  0  0  0  0  0  0
   -8.9694   -0.0878    1.3753 O   0  0  0  0  0  0  0  0  0  0  0  0
  -11.5833    3.7764   -1.6693 H   0  0  0  0  0  0  0  0  0  0  0  0
  -12.7303    2.9531   -0.5439 H   0  0  0  0  0  0  0  0  0  0  0  0
  -11.8670    4.4579   -0.0203 H   0  0  0  0  0  0  0  0  0  0  0  0
   -9.5750    2.5843   -1.8966 H   0  0  0  0  0  0  0  0  0  0  0  0
   -7.9132    1.0804   -1.3797 H   0  0  0  0  0  0  0  0  0  0  0  0
   -6.7700    1.4067    0.8995 H   0  0  0  0  0  0  0  0  0  0  0  0
   -8.0596    2.5719    1.3119 H   0  0  0  0  0  0  0  0  0  0  0  0
   -5.6223    1.3314   -1.2884 H   0  0  0  0  0  0  0  0  0  0  0  0
   -5.0933    2.7588   -2.1908 H   0  0  0  0  0  0  0  0  0  0  0  0
   -4.3725    0.5619    0.6504 H   0  0  0  0  0  0  0  0  0  0  0  0
   -0.6521    2.4849    1.6105 H   0  0  0  0  0  0  0  0  0  0  0  0
   -3.3066    4.2436   -1.2868 H   0  0  0  0  0  0  0  0  0  0  0  0
   -1.1055    5.1097   -1.0995 H   0  0  0  0  0  0  0  0  0  0  0  0
   -0.6370    5.1584    0.6449 H   0  0  0  0  0  0  0  0  0  0  0  0
    2.5744    4.5928   -1.8856 H   0  0  0  0  0  0  0  0  0  0  0  0
    1.0741    5.4584   -2.2407 H   0  0  0  0  0  0  0  0  0  0  0  0
    3.0985    6.5368   -0.8287 H   0  0  0  0  0  0  0  0  0  0  0  0
    0.9710    9.2410    0.6441 H   0  0  0  0  0  0  0  0  0  0  0  0
    2.1196    8.1371    1.4621 H   0  0  0  0  0  0  0  0  0  0  0  0
    1.5616    5.4053    1.5319 H   0  0  0  0  0  0  0  0  0  0  0  0
    4.7063    4.7907   -0.1424 H   0  0  0  0  0  0  0  0  0  0  0  0
    6.1170    6.9847    1.5414 H   0  0  0  0  0  0  0  0  0  0  0  0
    6.6265    6.3343   -0.0704 H   0  0  0  0  0  0  0  0  0  0  0  0
    5.1303    7.3141    0.0617 H   0  0  0  0  0  0  0  0  0  0  0  0
    5.2962    3.8289    2.4527 H   0  0  0  0  0  0  0  0  0  0  0  0
    6.5022    3.1496   -0.5774 H   0  0  0  0  0  0  0  0  0  0  0  0
    8.2528    4.8688   -1.0158 H   0  0  0  0  0  0  0  0  0  0  0  0
    8.7588    3.2518   -1.6229 H   0  0  0  0  0  0  0  0  0  0  0  0
    9.4654    3.8904   -0.0929 H   0  0  0  0  0  0  0  0  0  0  0  0
    8.6827    1.6583    0.9590 H   0  0  0  0  0  0  0  0  0  0  0  0
    6.6392   -1.2408   -0.6988 H   0  0  0  0  0  0  0  0  0  0  0  0
    6.3856    0.5564   -2.4398 H   0  0  0  0  0  0  0  0  0  0  0  0
    8.1618    0.9028   -2.3034 H   0  0  0  0  0  0  0  0  0  0  0  0
    7.5929   -0.7117   -2.8850 H   0  0  0  0  0  0  0  0  0  0  0  0
    9.4780   -0.1707   -0.3582 H   0  0  0  0  0  0  0  0  0  0  0  0
    7.8188   -3.9108   -0.7924 H   0  0  0  0  0  0  0  0  0  0  0  0
    8.7976   -5.2167    1.1736 H   0  0  0  0  0  0  0  0  0  0  0  0
   10.0117   -3.9081    1.3732 H   0  0  0  0  0  0  0  0  0  0  0  0
    9.9574   -4.8760   -0.1557 H   0  0  0  0  0  0  0  0  0  0  0  0
    7.8412   -2.3659    1.8532 H   0  0  0  0  0  0  0  0  0  0  0  0
    5.6524   -3.8447   -0.8021 H   0  0  0  0  0  0  0  0  0  0  0  0
    5.1875   -6.2805   -0.4770 H   0  0  0  0  0  0  0  0  0  0  0  0
    6.7674   -5.8695    0.2710 H   0  0  0  0  0  0  0  0  0  0  0  0
    5.3036   -6.0867    1.3221 H   0  0  0  0  0  0  0  0  0  0  0  0
    3.4616   -3.6521    1.1797 H   0  0  0  0  0  0  0  0  0  0  0  0
    1.1744   -5.5611   -1.1583 H   0  0  0  0  0  0  0  0  0  0  0  0
    1.6855   -4.8805    1.8105 H   0  0  0  0  0  0  0  0  0  0  0  0
    2.0281   -6.4654    1.0039 H   0  0  0  0  0  0  0  0  0  0  0  0
    0.3463   -5.8627    1.1453 H   0  0  0  0  0  0  0  0  0  0  0  0
    1.2018   -2.7658    0.0076 H   0  0  0  0  0  0  0  0  0  0  0  0
   -2.4349   -3.7204   -1.6418 H   0  0  0  0  0  0  0  0  0  0  0  0
   -2.3582   -5.9147   -2.5962 H   0  0  0  0  0  0  0  0  0  0  0  0
   -1.2479   -4.8101   -3.4818 H   0  0  0  0  0  0  0  0  0  0  0  0
   -0.5922   -6.0494   -2.3446 H   0  0  0  0  0  0  0  0  0  0  0  0
   -1.6114   -6.0195   -0.0620 H   0  0  0  0  0  0  0  0  0  0  0  0
   -3.3655   -2.8575    2.1632 H   0  0  0  0  0  0  0  0  0  0  0  0
   -0.4501   -3.0473    1.8169 H   0  0  0  0  0  0  0  0  0  0  0  0
   -1.4173   -2.3078    3.0922 H   0  0  0  0  0  0  0  0  0  0  0  0
   -1.7491    0.6780    3.1236 H   0  0  0  0  0  0  0  0  0  0  0  0
   -3.0083   -0.3492    2.3819 H   0  0  0  0  0  0  0  0  0  0  0  0
   -2.4179   -1.7088   -0.4175 H   0  0  0  0  0  0  0  0  0  0  0  0
   -5.2648   -3.7510    1.0623 H   0  0  0  0  0  0  0  0  0  0  0  0
   -6.8732   -2.0961    2.1002 H   0  0  0  0  0  0  0  0  0  0  0  0
   -5.1722   -1.5411    2.2246 H   0  0  0  0  0  0  0  0  0  0  0  0
   -6.2632   -0.8312    0.9813 H   0  0  0  0  0  0  0  0  0  0  0  0
   -7.0307   -4.2301   -0.3417 H   0  0  0  0  0  0  0  0  0  0  0  0
   -9.5471   -2.7734   -1.6561 H   0  0  0  0  0  0  0  0  0  0  0  0
   -9.1293   -2.6276    1.3936 H   0  0  0  0  0  0  0  0  0  0  0  0
   -9.2572   -4.1159    0.3782 H   0  0  0  0  0  0  0  0  0  0  0  0
  -10.6689   -3.0289    0.5408 H   0  0  0  0  0  0  0  0  0  0  0  0
  -10.2334   -0.5706   -1.5011 H   0  0  0  0  0  0  0  0  0  0  0  0
  1  2  1  0
  2  3  2  0
  2  4  1  0
  4  5  1  0
  5  6  1  0
  6  7  1  0
  7  8  1  0
  8  9  1  0
  9 10  2  0
 10 11  1  0
 11 12  2  0
 12 13  1  0
 13 14  2  0
 13 15  1  0
 15 16  1  0
 16 17  1  0
 17 18  1  0
 18 19  1  0
 19 20  1  0
 19 21  2  0
 18 22  1  0
 22 23  1  0
 23 24  2  0
 23 25  1  0
 25 26  1  0
 25 27  1  0
 27 28  1  0
 28 29  2  0
 28 30  1  0
 30 31  1  0
 30 32  1  0
 32 33  1  0
 33 34  2  0
 33 35  1  0
 35 36  1  0
 35 37  1  0
 37 38  1  0
 38 39  2  0
 38 40  1  0
 40 41  1  0
 40 42  1  0
 42 43  1  0
 43 44  2  0
 43 45  1  0
 45 46  1  0
 45 47  1  0
 47 48  1  0
 48 49  2  0
 48 50  1  0
 50 51  1  0
 50 52  1  0
 52 53  1  0
 53 54  2  0
 53 55  1  0
 55 56  1  0
 55 57  1  0
 57 58  1  0
 58 59  2  0
 58 60  1  0
 60 61  1  0
 61 62  1  0
 62 63  1  0
 60 64  1  0
 64 65  1  0
 65 66  2  0
 65 67  1  0
 67 68  1  0
 67 69  1  0
 69 70  1  0
 70 71  2  0
 70 72  1  0
 72 73  1  0
 72 74  1  0
 74 75  1  0
 75 76  2  0
 75  5  1  0
 14  9  1  0
 63 11  1  0
  1 77  1  0
  1 78  1  0
  1 79  1  0
  4 80  1  0
  5 81  1  6
  6 82  1  0
  6 83  1  0
  8 84  1  0
  8 85  1  0
 10 86  1  0
 12 87  1  0
 14 88  1  0
 15 89  1  0
 15 90  1  0
 17 91  1  0
 17 92  1  0
 18 93  1  6
 20 94  1  0
 20 95  1  0
 22 96  1  0
 25 97  1  6
 26 98  1  0
 26 99  1  0
 26100  1  0
 27101  1  0
 30102  1  6
 31103  1  0
 31104  1  0
 31105  1  0
 32106  1  0
 35107  1  6
 36108  1  0
 36109  1  0
 36110  1  0
 37111  1  0
 40112  1  6
 41113  1  0
 41114  1  0
 41115  1  0
 42116  1  0
 45117  1  6
 46118  1  0
 46119  1  0
 46120  1  0
 47121  1  0
 50122  1  6
 51123  1  0
 51124  1  0
 51125  1  0
 52126  1  0
 55127  1  6
 56128  1  0
 56129  1  0
 56130  1  0
 57131  1  0
 60132  1  1
 61133  1  0
 61134  1  0
 63135  1  0
 63136  1  0
 64137  1  0
 67138  1  1
 68139  1  0
 68140  1  0
 68141  1  0
 69142  1  0
 72143  1  6
 73144  1  0
 73145  1  0
 73146  1  0
 74147  1  0
M  END
