
     RDKit          3D

157159  0  0  0  0  0  0  0  0999 V2000
  -10.5719   -3.6154   -0.6133 C   0  0  0  0  0  0  0  0  0  0  0  0
   -9.5246   -2.8848    0.1771 C   0  0  0  0  0  0  0  0  0  0  0  0
   -9.5760   -2.9430    1.4446 O   0  0  0  0  0  0  0  0  0  0  0  0
   -8.4974   -2.1480   -0.5119 N   0  0  0  0  0  0  0  0  0  0  0  0
   -7.1497   -1.9468    0.0630 C   0  0  2  0  0  0  0  0  0  0  0  0
   -6.5420   -3.2613    0.7123 C   0  0  0  0  0  0  0  0  0  0  0  0
   -6.5023   -4.8304   -0.3235 S   0  0  0  0  0  0  0  0  0  0  0  0
   -5.7927   -4.2032   -1.9216 C   0  0  0  0  0  0  0  0  0  0  0  0
   -4.3919   -3.6380   -1.8398 C   0  0  0  0  0  0  0  0  0  0  0  0
   -3.5358   -3.9620   -0.8098 C   0  0  0  0  0  0  0  0  0  0  0  0
   -2.6344   -3.0216   -0.3258 C   0  0  0  0  0  0  0  0  0  0  0  0
   -2.3890   -1.8758   -1.0637 C   0  0  0  0  0  0  0  0  0  0  0  0
   -3.3016   -1.4972   -2.0884 C   0  0  0  0  0  0  0  0  0  0  0  0
   -3.9827   -2.5753   -2.6658 C   0  0  0  0  0  0  0  0  0  0  0  0
   -4.2284   -0.2621   -1.8356 C   0  0  0  0  0  0  0  0  0  0  0  0
   -4.2866   -0.0654   -0.0169 S   0  0  0  0  0  0  0  0  0  0  0  0
   -3.1993    1.2825    0.1057 C   0  0  0  0  0  0  0  0  0  0  0  0
   -4.0118    2.5603   -0.1662 C   0  0  1  0  0  0  0  0  0  0  0  0
   -4.2795    3.2994    1.0878 N   0  0  0  0  0  0  0  0  0  0  0  0
   -5.2125    4.3809    1.1647 C   0  0  0  0  0  0  0  0  0  0  0  0
   -4.7606    5.5311    1.4322 O   0  0  0  0  0  0  0  0  0  0  0  0
   -6.7231    4.2006    1.0339 C   0  0  1  0  0  0  0  0  0  0  0  0
   -7.2095    4.2954   -0.4264 C   0  0  0  0  0  0  0  0  0  0  0  0
   -7.1353    2.9869    1.7317 N   0  0  0  0  0  0  0  0  0  0  0  0
   -8.4572    2.3838    1.6644 C   0  0  0  0  0  0  0  0  0  0  0  0
   -9.3739    2.8249    2.4134 O   0  0  0  0  0  0  0  0  0  0  0  0
   -8.7244    1.1812    0.7869 C   0  0  1  0  0  0  0  0  0  0  0  0
   -9.5514    1.5107   -0.4372 C   0  0  0  0  0  0  0  0  0  0  0  0
   -7.5018    0.5256    0.3563 N   0  0  0  0  0  0  0  0  0  0  0  0
   -7.2032   -0.6867    1.0301 C   0  0  0  0  0  0  0  0  0  0  0  0
   -7.2869   -0.8012    2.3002 O   0  0  0  0  0  0  0  0  0  0  0  0
   -3.2398    3.3227   -1.2176 C   0  0  0  0  0  0  0  0  0  0  0  0
   -3.7507    3.5637   -2.3432 O   0  0  0  0  0  0  0  0  0  0  0  0
   -1.8361    3.6594   -1.0246 N   0  0  0  0  0  0  0  0  0  0  0  0
   -1.4328    4.6321    0.0082 C   0  0  2  0  0  0  0  0  0  0  0  0
   -1.9116    6.0036   -0.4761 C   0  0  0  0  0  0  0  0  0  0  0  0
    0.0522    4.6270    0.1999 C   0  0  0  0  0  0  0  0  0  0  0  0
    0.7423    3.7104   -0.2969 O   0  0  0  0  0  0  0  0  0  0  0  0
    0.6758    5.6237    1.0267 N   0  0  0  0  0  0  0  0  0  0  0  0
    1.9404    6.2609    0.7383 C   0  0  2  0  0  0  0  0  0  0  0  0
    1.7560    7.7741    0.9972 C   0  0  0  0  0  0  0  0  0  0  0  0
    2.4308    6.0289   -0.6725 C   0  0  0  0  0  0  0  0  0  0  0  0
    1.6319    6.1480   -1.6561 O   0  0  0  0  0  0  0  0  0  0  0  0
    3.8178    5.7859   -0.9441 N   0  0  0  0  0  0  0  0  0  0  0  0
    4.8496    6.7107   -0.5227 C   0  0  2  0  0  0  0  0  0  0  0  0
    4.6773    8.0588   -1.3019 C   0  0  0  0  0  0  0  0  0  0  0  0
    6.2695    6.1862   -0.7320 C   0  0  0  0  0  0  0  0  0  0  0  0
    7.1850    6.9672   -1.1213 O   0  0  0  0  0  0  0  0  0  0  0  0
    6.6008    4.7890   -0.6030 N   0  0  0  0  0  0  0  0  0  0  0  0
    5.9825    3.8330    0.3315 C   0  0  2  0  0  0  0  0  0  0  0  0
    6.4642    4.1340    1.7463 C   0  0  0  0  0  0  0  0  0  0  0  0
    6.2527    2.4133   -0.1232 C   0  0  0  0  0  0  0  0  0  0  0  0
    5.5394    1.9631   -1.0713 O   0  0  0  0  0  0  0  0  0  0  0  0
    7.3005    1.6089    0.4847 N   0  0  0  0  0  0  0  0  0  0  0  0
    8.2733    0.8282   -0.2508 C   0  0  2  0  0  0  0  0  0  0  0  0
    9.2049    1.7472   -1.1006 C   0  0  0  0  0  0  0  0  0  0  0  0
    7.7032   -0.2664   -1.1467 C   0  0  0  0  0  0  0  0  0  0  0  0
    6.8103    0.0153   -2.0221 O   0  0  0  0  0  0  0  0  0  0  0  0
    8.2613   -1.6138   -1.1704 N   0  0  0  0  0  0  0  0  0  0  0  0
    8.8965   -2.2956   -0.0524 C   0  0  2  0  0  0  0  0  0  0  0  0
   10.3218   -1.7169    0.1981 C   0  0  0  0  0  0  0  0  0  0  0  0
    9.0198   -3.7820   -0.3563 C   0  0  0  0  0  0  0  0  0  0  0  0
    9.9596   -4.2037   -1.1075 O   0  0  0  0  0  0  0  0  0  0  0  0
    8.1298   -4.7435    0.2080 N   0  0  0  0  0  0  0  0  0  0  0  0
    6.6931   -4.5326    0.3085 C   0  0  2  0  0  0  0  0  0  0  0  0
    6.3409   -4.5605    1.7942 C   0  0  0  0  0  0  0  0  0  0  0  0
    5.9580   -5.5630   -0.5488 C   0  0  0  0  0  0  0  0  0  0  0  0
    6.5940   -6.1581   -1.4464 O   0  0  0  0  0  0  0  0  0  0  0  0
    4.5257   -5.7658   -0.5068 N   0  0  0  0  0  0  0  0  0  0  0  0
    3.7913   -6.3046    0.6368 C   0  0  2  0  0  0  0  0  0  0  0  0
    3.4182   -7.7652    0.3565 C   0  0  0  0  0  0  0  0  0  0  0  0
    2.6218   -5.4229    0.9662 C   0  0  0  0  0  0  0  0  0  0  0  0
    2.7998   -4.1762    1.0614 O   0  0  0  0  0  0  0  0  0  0  0  0
    1.3694   -5.9193    1.3695 N   0  0  0  0  0  0  0  0  0  0  0  0
    0.3300   -6.4423    0.4668 C   0  0  1  0  0  0  0  0  0  0  0  0
   -0.1577   -7.7803    0.9690 C   0  0  0  0  0  0  0  0  0  0  0  0
   -0.1481   -8.9203    0.1024 N   0  0  0  0  0  0  0  0  0  0  0  0
   -0.5009   -7.9182    2.1616 O   0  0  0  0  0  0  0  0  0  0  0  0
   -0.8666   -5.4470    0.3635 C   0  0  0  0  0  0  0  0  0  0  0  0
   -0.5858   -3.8675    1.2874 S   0  0  0  0  0  0  0  0  0  0  0  0
   -2.2521   -3.1738    1.1410 C   0  0  0  0  0  0  0  0  0  0  0  0
  -11.0581   -2.9225   -1.3316 H   0  0  0  0  0  0  0  0  0  0  0  0
  -10.0817   -4.4347   -1.2042 H   0  0  0  0  0  0  0  0  0  0  0  0
  -11.3484   -4.0979    0.0320 H   0  0  0  0  0  0  0  0  0  0  0  0
   -8.7084   -1.8831   -1.5123 H   0  0  0  0  0  0  0  0  0  0  0  0
   -6.5341   -1.7708   -0.8609 H   0  0  0  0  0  0  0  0  0  0  0  0
   -5.4902   -3.1131    0.9678 H   0  0  0  0  0  0  0  0  0  0  0  0
   -7.1059   -3.4265    1.6245 H   0  0  0  0  0  0  0  0  0  0  0  0
   -6.4567   -3.4267   -2.4045 H   0  0  0  0  0  0  0  0  0  0  0  0
   -5.7405   -5.0785   -2.5762 H   0  0  0  0  0  0  0  0  0  0  0  0
   -3.7390   -4.8366   -0.2167 H   0  0  0  0  0  0  0  0  0  0  0  0
   -1.7704   -1.1379   -0.6534 H   0  0  0  0  0  0  0  0  0  0  0  0
   -4.5275   -2.3166   -3.5441 H   0  0  0  0  0  0  0  0  0  0  0  0
   -3.8893    0.6439   -2.3788 H   0  0  0  0  0  0  0  0  0  0  0  0
   -5.3037   -0.4748   -2.2208 H   0  0  0  0  0  0  0  0  0  0  0  0
   -2.7658    1.2350    1.1799 H   0  0  0  0  0  0  0  0  0  0  0  0
   -2.3899    1.0197   -0.6054 H   0  0  0  0  0  0  0  0  0  0  0  0
   -4.9783    2.3418   -0.6472 H   0  0  0  0  0  0  0  0  0  0  0  0
   -3.6409    3.1915    1.9121 H   0  0  0  0  0  0  0  0  0  0  0  0
   -7.1751    5.0459    1.5710 H   0  0  0  0  0  0  0  0  0  0  0  0
   -6.7824    5.1913   -0.9037 H   0  0  0  0  0  0  0  0  0  0  0  0
   -8.3191    4.3846   -0.4072 H   0  0  0  0  0  0  0  0  0  0  0  0
   -6.9267    3.3906   -1.0040 H   0  0  0  0  0  0  0  0  0  0  0  0
   -6.7411    2.9078    2.7014 H   0  0  0  0  0  0  0  0  0  0  0  0
   -9.3685    0.4679    1.3877 H   0  0  0  0  0  0  0  0  0  0  0  0
  -10.2605    0.6789   -0.7019 H   0  0  0  0  0  0  0  0  0  0  0  0
  -10.1654    2.4587   -0.2971 H   0  0  0  0  0  0  0  0  0  0  0  0
   -8.9225    1.7086   -1.3680 H   0  0  0  0  0  0  0  0  0  0  0  0
   -6.7524    1.0211   -0.1620 H   0  0  0  0  0  0  0  0  0  0  0  0
   -1.3020    3.6738   -1.9161 H   0  0  0  0  0  0  0  0  0  0  0  0
   -1.9282    4.4068    0.9898 H   0  0  0  0  0  0  0  0  0  0  0  0
   -2.9873    5.9517   -0.8384 H   0  0  0  0  0  0  0  0  0  0  0  0
   -1.3219    6.3295   -1.3601 H   0  0  0  0  0  0  0  0  0  0  0  0
   -1.8630    6.7677    0.3360 H   0  0  0  0  0  0  0  0  0  0  0  0
    0.1989    5.7875    1.9452 H   0  0  0  0  0  0  0  0  0  0  0  0
    2.6818    5.8657    1.4534 H   0  0  0  0  0  0  0  0  0  0  0  0
    2.7119    8.3236    0.9640 H   0  0  0  0  0  0  0  0  0  0  0  0
    1.0661    8.2061    0.2183 H   0  0  0  0  0  0  0  0  0  0  0  0
    1.2925    7.9317    1.9913 H   0  0  0  0  0  0  0  0  0  0  0  0
    4.0411    4.9997   -1.5791 H   0  0  0  0  0  0  0  0  0  0  0  0
    4.7365    6.9314    0.5603 H   0  0  0  0  0  0  0  0  0  0  0  0
    4.6952    8.9548   -0.5793 H   0  0  0  0  0  0  0  0  0  0  0  0
    5.4462    8.2040   -2.0747 H   0  0  0  0  0  0  0  0  0  0  0  0
    3.6893    8.0836   -1.8343 H   0  0  0  0  0  0  0  0  0  0  0  0
    7.5452    4.5528   -0.9501 H   0  0  0  0  0  0  0  0  0  0  0  0
    4.8852    3.9277    0.2859 H   0  0  0  0  0  0  0  0  0  0  0  0
    5.6467    4.7280    2.2912 H   0  0  0  0  0  0  0  0  0  0  0  0
    6.6710    3.2280    2.3715 H   0  0  0  0  0  0  0  0  0  0  0  0
    7.4074    4.7125    1.7217 H   0  0  0  0  0  0  0  0  0  0  0  0
    6.9069    1.0169    1.2592 H   0  0  0  0  0  0  0  0  0  0  0  0
    8.8998    0.3607    0.5454 H   0  0  0  0  0  0  0  0  0  0  0  0
   10.0183    2.1533   -0.4200 H   0  0  0  0  0  0  0  0  0  0  0  0
    8.6391    2.5400   -1.5342 H   0  0  0  0  0  0  0  0  0  0  0  0
    9.6658    1.1627   -1.9162 H   0  0  0  0  0  0  0  0  0  0  0  0
    8.2934   -2.0556   -2.1124 H   0  0  0  0  0  0  0  0  0  0  0  0
    8.2645   -2.1481    0.8599 H   0  0  0  0  0  0  0  0  0  0  0  0
   10.4085   -1.4090    1.2670 H   0  0  0  0  0  0  0  0  0  0  0  0
   11.1442   -2.4375   -0.0132 H   0  0  0  0  0  0  0  0  0  0  0  0
   10.5292   -0.8520   -0.4616 H   0  0  0  0  0  0  0  0  0  0  0  0
    8.5178   -5.7030    0.4099 H   0  0  0  0  0  0  0  0  0  0  0  0
    6.3870   -3.5657   -0.0936 H   0  0  0  0  0  0  0  0  0  0  0  0
    6.4720   -5.5696    2.2392 H   0  0  0  0  0  0  0  0  0  0  0  0
    5.3132   -4.1650    1.9739 H   0  0  0  0  0  0  0  0  0  0  0  0
    7.0563   -3.8715    2.3383 H   0  0  0  0  0  0  0  0  0  0  0  0
    4.0898   -5.8745   -1.4269 H   0  0  0  0  0  0  0  0  0  0  0  0
    4.4264   -6.3087    1.5520 H   0  0  0  0  0  0  0  0  0  0  0  0
    4.3378   -8.3272    0.1419 H   0  0  0  0  0  0  0  0  0  0  0  0
    2.9179   -8.2147    1.2383 H   0  0  0  0  0  0  0  0  0  0  0  0
    2.7509   -7.8238   -0.5490 H   0  0  0  0  0  0  0  0  0  0  0  0
    1.0800   -5.6993    2.3486 H   0  0  0  0  0  0  0  0  0  0  0  0
    0.7476   -6.5754   -0.5603 H   0  0  0  0  0  0  0  0  0  0  0  0
   -0.2681   -8.7992   -0.9198 H   0  0  0  0  0  0  0  0  0  0  0  0
    0.1248   -9.8580    0.4948 H   0  0  0  0  0  0  0  0  0  0  0  0
   -1.8177   -5.8982    0.6722 H   0  0  0  0  0  0  0  0  0  0  0  0
   -0.9929   -5.1665   -0.7298 H   0  0  0  0  0  0  0  0  0  0  0  0
   -2.9517   -3.8471    1.6814 H   0  0  0  0  0  0  0  0  0  0  0  0
   -2.3029   -2.1991    1.7232 H   0  0  0  0  0  0  0  0  0  0  0  0
  1  2  1  0
  2  3  2  0
  2  4  1  0
  4  5  1  0
  5  6  1  0
  6  7  1  0
  7  8  1  0
  8  9  1  0
  9 10  2  0
 10 11  1  0
 11 12  2  0
 12 13  1  0
 13 14  2  0
 13 15  1  0
 15 16  1  0
 16 17  1  0
 17 18  1  0
 18 19  1  0
 19 20  1  0
 20 21  2  0
 20 22  1  0
 22 23  1  0
 22 24  1  0
 24 25  1  0
 25 26  2  0
 25 27  1  0
 27 28  1  0
 27 29  1  0
 29 30  1  0
 30 31  2  0
 18 32  1  0
 32 33  2  0
 32 34  1  0
 34 35  1  0
 35 36  1  0
 35 37  1  0
 37 38  2  0
 37 39  1  0
 39 40  1  0
 40 41  1  0
 40 42  1  0
 42 43  2  0
 42 44  1  0
 44 45  1  0
 45 46  1  0
 45 47  1  0
 47 48  2  0
 47 49  1  0
 49 50  1  0
 50 51  1  0
 50 52  1  0
 52 53  2  0
 52 54  1  0
 54 55  1  0
 55 56  1  0
 55 57  1  0
 57 58  2  0
 57 59  1  0
 59 60  1  0
 60 61  1  0
 60 62  1  0
 62 63  2  0
 62 64  1  0
 64 65  1  0
 65 66  1  0
 65 67  1  0
 67 68  2  0
 67 69  1  0
 69 70  1  0
 70 71  1  0
 70 72  1  0
 72 73  2  0
 72 74  1  0
 74 75  1  0
 75 76  1  0
 76 77  1  0
 76 78  2  0
 75 79  1  0
 79 80  1  0
 80 81  1  0
 30  5  1  0
 14  9  1  0
 81 11  1  0
  1 82  1  0
  1 83  1  0
  1 84  1  0
  4 85  1  0
  5 86  1  6
  6 87  1  0
  6 88  1  0
  8 89  1  0
  8 90  1  0
 10 91  1  0
 12 92  1  0
 14 93  1  0
 15 94  1  0
 15 95  1  0
 17 96  1  0
 17 97  1  0
 18 98  1  6
 19 99  1  0
 22100  1  1
 23101  1  0
 23102  1  0
 23103  1  0
 24104  1  0
 27105  1  1
 28106  1  0
 28107  1  0
 28108  1  0
 29109  1  0
 34110  1  0
 35111  1  1
 36112  1  0
 36113  1  0
 36114  1  0
 39115  1  0
 40116  1  1
 41117  1  0
 41118  1  0
 41119  1  0
 44120  1  0
 45121  1  1
 46122  1  0
 46123  1  0
 46124  1  0
 49125  1  0
 50126  1  1
 51127  1  0
 51128  1  0
 51129  1  0
 54130  1  0
 55131  1  1
 56132  1  0
 56133  1  0
 56134  1  0
 59135  1  0
 60136  1  1
 61137  1  0
 61138  1  0
 61139  1  0
 64140  1  0
 65141  1  6
 66142  1  0
 66143  1  0
 66144  1  0
 69145  1  0
 70146  1  1
 71147  1  0
 71148  1  0
 71149  1  0
 74150  1  0
 75151  1  6
 77152  1  0
 77153  1  0
 79154  1  0
 79155  1  0
 81156  1  0
 81157  1  0
M  END
