
     RDKit          3D

157159  0  0  0  0  0  0  0  0999 V2000
  -11.1503    3.0928    1.9078 C   0  0  0  0  0  0  0  0  0  0  0  0
   -9.7501    2.5827    1.7863 C   0  0  0  0  0  0  0  0  0  0  0  0
   -8.9026    2.8566    2.6954 O   0  0  0  0  0  0  0  0  0  0  0  0
   -9.3956    1.7410    0.6880 N   0  0  0  0  0  0  0  0  0  0  0  0
   -8.0388    1.6738    0.1199 C   0  0  2  0  0  0  0  0  0  0  0  0
   -8.0800    2.2934   -1.3190 C   0  0  0  0  0  0  0  0  0  0  0  0
   -7.2231    3.9345   -1.4035 S   0  0  0  0  0  0  0  0  0  0  0  0
   -5.8138    3.4636   -2.4820 C   0  0  0  0  0  0  0  0  0  0  0  0
   -4.6588    3.0695   -1.6156 C   0  0  0  0  0  0  0  0  0  0  0  0
   -4.1391    1.7765   -1.6546 C   0  0  0  0  0  0  0  0  0  0  0  0
   -3.2177    1.3463   -0.6796 C   0  0  0  0  0  0  0  0  0  0  0  0
   -2.6724    2.2872    0.2048 C   0  0  0  0  0  0  0  0  0  0  0  0
   -3.1455    3.6074    0.2118 C   0  0  0  0  0  0  0  0  0  0  0  0
   -4.1543    3.9824   -0.6831 C   0  0  0  0  0  0  0  0  0  0  0  0
   -2.6533    4.5963    1.2463 C   0  0  0  0  0  0  0  0  0  0  0  0
   -2.2700    6.2253    0.5126 S   0  0  0  0  0  0  0  0  0  0  0  0
   -0.8566    5.6701   -0.5190 C   0  0  0  0  0  0  0  0  0  0  0  0
    0.2206    6.7550   -0.6664 C   0  0  1  0  0  0  0  0  0  0  0  0
   -0.3028    7.9542   -1.4328 C   0  0  0  0  0  0  0  0  0  0  0  0
   -0.9245    9.0630   -0.7821 N   0  0  0  0  0  0  0  0  0  0  0  0
   -0.1823    7.9780   -2.6904 O   0  0  0  0  0  0  0  0  0  0  0  0
    0.7131    7.1621    0.6560 N   0  0  0  0  0  0  0  0  0  0  0  0
    1.9639    6.6970    1.2014 C   0  0  0  0  0  0  0  0  0  0  0  0
    1.9571    6.2622    2.3901 O   0  0  0  0  0  0  0  0  0  0  0  0
    3.2822    6.7990    0.4498 C   0  0  1  0  0  0  0  0  0  0  0  0
    3.2880    7.9557   -0.5773 C   0  0  0  0  0  0  0  0  0  0  0  0
    4.3507    7.0286    1.4174 N   0  0  0  0  0  0  0  0  0  0  0  0
    5.7331    6.7049    1.1979 C   0  0  0  0  0  0  0  0  0  0  0  0
    6.6158    7.5047    1.6049 O   0  0  0  0  0  0  0  0  0  0  0  0
    6.1694    5.4156    0.5245 C   0  0  1  0  0  0  0  0  0  0  0  0
    6.7214    5.7720   -0.8678 C   0  0  0  0  0  0  0  0  0  0  0  0
    7.1894    4.7713    1.3702 N   0  0  0  0  0  0  0  0  0  0  0  0
    8.1526    3.7940    0.9481 C   0  0  0  0  0  0  0  0  0  0  0  0
    9.3104    3.8408    1.4516 O   0  0  0  0  0  0  0  0  0  0  0  0
    7.8009    2.6376    0.0444 C   0  0  1  0  0  0  0  0  0  0  0  0
    8.6941    2.7004   -1.2090 C   0  0  0  0  0  0  0  0  0  0  0  0
    8.0059    1.3838    0.7727 N   0  0  0  0  0  0  0  0  0  0  0  0
    8.0727    0.0855    0.1571 C   0  0  0  0  0  0  0  0  0  0  0  0
    7.3208   -0.1845   -0.8218 O   0  0  0  0  0  0  0  0  0  0  0  0
    9.0473   -0.9654    0.6487 C   0  0  1  0  0  0  0  0  0  0  0  0
   10.1746   -0.3474    1.4960 C   0  0  0  0  0  0  0  0  0  0  0  0
    8.3681   -2.0064    1.4104 N   0  0  0  0  0  0  0  0  0  0  0  0
    7.2211   -2.7610    0.9140 C   0  0  0  0  0  0  0  0  0  0  0  0
    6.1217   -2.6524    1.5272 O   0  0  0  0  0  0  0  0  0  0  0  0
    7.3085   -3.7603   -0.2259 C   0  0  1  0  0  0  0  0  0  0  0  0
    8.6748   -3.7831   -0.9363 C   0  0  0  0  0  0  0  0  0  0  0  0
    6.9826   -5.1179    0.2329 N   0  0  0  0  0  0  0  0  0  0  0  0
    5.7798   -5.4712    0.9350 C   0  0  0  0  0  0  0  0  0  0  0  0
    5.8801   -5.8868    2.1211 O   0  0  0  0  0  0  0  0  0  0  0  0
    4.4188   -5.5614    0.2571 C   0  0  1  0  0  0  0  0  0  0  0  0
    4.2743   -4.7370   -1.0266 C   0  0  0  0  0  0  0  0  0  0  0  0
    4.1180   -6.9584   -0.0541 N   0  0  0  0  0  0  0  0  0  0  0  0
    2.9617   -7.5979    0.4886 C   0  0  0  0  0  0  0  0  0  0  0  0
    3.0485   -8.2016    1.5929 O   0  0  0  0  0  0  0  0  0  0  0  0
    1.6461   -7.5065   -0.2423 C   0  0  1  0  0  0  0  0  0  0  0  0
    0.7754   -8.7503    0.0639 C   0  0  0  0  0  0  0  0  0  0  0  0
    1.0025   -6.2616    0.1578 N   0  0  0  0  0  0  0  0  0  0  0  0
   -0.3308   -5.8148   -0.1842 C   0  0  0  0  0  0  0  0  0  0  0  0
   -0.8390   -4.9101    0.5170 O   0  0  0  0  0  0  0  0  0  0  0  0
   -1.1202   -6.3970   -1.3159 C   0  0  1  0  0  0  0  0  0  0  0  0
   -2.3311   -7.1976   -0.8049 C   0  0  0  0  0  0  0  0  0  0  0  0
   -1.4638   -5.3816   -2.2871 N   0  0  0  0  0  0  0  0  0  0  0  0
   -2.7244   -4.7145   -2.3739 C   0  0  0  0  0  0  0  0  0  0  0  0
   -3.6867   -5.2459   -2.9889 O   0  0  0  0  0  0  0  0  0  0  0  0
   -3.0182   -3.6191   -1.3681 C   0  0  1  0  0  0  0  0  0  0  0  0
   -3.5762   -2.3659   -2.0840 C   0  0  0  0  0  0  0  0  0  0  0  0
   -4.3324   -1.1549   -0.9358 S   0  0  0  0  0  0  0  0  0  0  0  0
   -2.8670   -0.1206   -0.5496 C   0  0  0  0  0  0  0  0  0  0  0  0
   -3.9030   -4.0538   -0.2659 N   0  0  0  0  0  0  0  0  0  0  0  0
   -5.1720   -4.7329   -0.4331 C   0  0  0  0  0  0  0  0  0  0  0  0
   -5.1802   -5.9512   -0.7858 O   0  0  0  0  0  0  0  0  0  0  0  0
   -6.5120   -4.0038   -0.2407 C   0  0  1  0  0  0  0  0  0  0  0  0
   -7.7035   -4.9923   -0.2677 C   0  0  0  0  0  0  0  0  0  0  0  0
   -6.4901   -3.1430    0.9650 N   0  0  0  0  0  0  0  0  0  0  0  0
   -7.6557   -2.7216    1.6971 C   0  0  0  0  0  0  0  0  0  0  0  0
   -8.5297   -3.5734    2.0597 O   0  0  0  0  0  0  0  0  0  0  0  0
   -7.8150   -1.2669    2.1500 C   0  0  1  0  0  0  0  0  0  0  0  0
   -7.3999   -1.1438    3.6228 C   0  0  0  0  0  0  0  0  0  0  0  0
   -7.0313   -0.3357    1.3317 N   0  0  0  0  0  0  0  0  0  0  0  0
   -7.6278    0.2374    0.1576 C   0  0  0  0  0  0  0  0  0  0  0  0
   -7.8784   -0.5352   -0.8206 O   0  0  0  0  0  0  0  0  0  0  0  0
  -11.6412    2.6825    2.8178 H   0  0  0  0  0  0  0  0  0  0  0  0
  -11.1098    4.2063    1.9760 H   0  0  0  0  0  0  0  0  0  0  0  0
  -11.7400    2.8139    1.0043 H   0  0  0  0  0  0  0  0  0  0  0  0
  -10.1456    1.2065    0.2162 H   0  0  0  0  0  0  0  0  0  0  0  0
   -7.3361    2.2679    0.7336 H   0  0  0  0  0  0  0  0  0  0  0  0
   -9.1422    2.5300   -1.5873 H   0  0  0  0  0  0  0  0  0  0  0  0
   -7.7280    1.5922   -2.1102 H   0  0  0  0  0  0  0  0  0  0  0  0
   -5.5294    4.3520   -3.0763 H   0  0  0  0  0  0  0  0  0  0  0  0
   -6.0947    2.6539   -3.1948 H   0  0  0  0  0  0  0  0  0  0  0  0
   -4.4794    1.1087   -2.4236 H   0  0  0  0  0  0  0  0  0  0  0  0
   -1.8861    1.9819    0.8781 H   0  0  0  0  0  0  0  0  0  0  0  0
   -4.6040    4.9753   -0.6046 H   0  0  0  0  0  0  0  0  0  0  0  0
   -3.4581    4.7410    2.0003 H   0  0  0  0  0  0  0  0  0  0  0  0
   -1.7566    4.2172    1.7797 H   0  0  0  0  0  0  0  0  0  0  0  0
   -0.3788    4.7688   -0.0831 H   0  0  0  0  0  0  0  0  0  0  0  0
   -1.2299    5.3759   -1.5206 H   0  0  0  0  0  0  0  0  0  0  0  0
    1.0452    6.2987   -1.2568 H   0  0  0  0  0  0  0  0  0  0  0  0
   -1.2857    9.8667   -1.3468 H   0  0  0  0  0  0  0  0  0  0  0  0
   -1.0646    9.0993    0.2482 H   0  0  0  0  0  0  0  0  0  0  0  0
    0.0106    7.4530    1.3607 H   0  0  0  0  0  0  0  0  0  0  0  0
    3.4469    5.8432   -0.0933 H   0  0  0  0  0  0  0  0  0  0  0  0
    2.7656    8.8413   -0.1740 H   0  0  0  0  0  0  0  0  0  0  0  0
    2.8146    7.6475   -1.5313 H   0  0  0  0  0  0  0  0  0  0  0  0
    4.3287    8.2464   -0.8082 H   0  0  0  0  0  0  0  0  0  0  0  0
    4.1803    7.7623    2.1499 H   0  0  0  0  0  0  0  0  0  0  0  0
    5.3158    4.7193    0.4068 H   0  0  0  0  0  0  0  0  0  0  0  0
    6.6795    4.8853   -1.5407 H   0  0  0  0  0  0  0  0  0  0  0  0
    6.1138    6.5683   -1.3521 H   0  0  0  0  0  0  0  0  0  0  0  0
    7.7693    6.1324   -0.7878 H   0  0  0  0  0  0  0  0  0  0  0  0
    7.3251    5.1405    2.3381 H   0  0  0  0  0  0  0  0  0  0  0  0
    6.7343    2.7092   -0.2838 H   0  0  0  0  0  0  0  0  0  0  0  0
    8.4059    1.9078   -1.9350 H   0  0  0  0  0  0  0  0  0  0  0  0
    8.6037    3.6834   -1.7337 H   0  0  0  0  0  0  0  0  0  0  0  0
    9.7577    2.5496   -0.9417 H   0  0  0  0  0  0  0  0  0  0  0  0
    7.8804    1.4013    1.8106 H   0  0  0  0  0  0  0  0  0  0  0  0
    9.5585   -1.4057   -0.2211 H   0  0  0  0  0  0  0  0  0  0  0  0
   10.8625   -1.1600    1.8735 H   0  0  0  0  0  0  0  0  0  0  0  0
    9.7739    0.1740    2.3905 H   0  0  0  0  0  0  0  0  0  0  0  0
   10.7677    0.3736    0.8935 H   0  0  0  0  0  0  0  0  0  0  0  0
    8.5137   -2.0728    2.4442 H   0  0  0  0  0  0  0  0  0  0  0  0
    6.5904   -3.4489   -1.0058 H   0  0  0  0  0  0  0  0  0  0  0  0
    9.5136   -3.8156   -0.1992 H   0  0  0  0  0  0  0  0  0  0  0  0
    8.7814   -2.8974   -1.5978 H   0  0  0  0  0  0  0  0  0  0  0  0
    8.7736   -4.6774   -1.5900 H   0  0  0  0  0  0  0  0  0  0  0  0
    7.7568   -5.8320    0.2573 H   0  0  0  0  0  0  0  0  0  0  0  0
    3.6764   -5.1578    0.9712 H   0  0  0  0  0  0  0  0  0  0  0  0
    5.0171   -5.0406   -1.7914 H   0  0  0  0  0  0  0  0  0  0  0  0
    4.3556   -3.6474   -0.7999 H   0  0  0  0  0  0  0  0  0  0  0  0
    3.2665   -4.9114   -1.4652 H   0  0  0  0  0  0  0  0  0  0  0  0
    4.8538   -7.5714   -0.4879 H   0  0  0  0  0  0  0  0  0  0  0  0
    1.8466   -7.4919   -1.3318 H   0  0  0  0  0  0  0  0  0  0  0  0
    0.2587   -8.6282    1.0383 H   0  0  0  0  0  0  0  0  0  0  0  0
    0.0590   -8.9577   -0.7497 H   0  0  0  0  0  0  0  0  0  0  0  0
    1.4223   -9.6545    0.1174 H   0  0  0  0  0  0  0  0  0  0  0  0
    1.6232   -5.4180    0.1338 H   0  0  0  0  0  0  0  0  0  0  0  0
   -0.4880   -7.1183   -1.8810 H   0  0  0  0  0  0  0  0  0  0  0  0
   -3.0541   -7.3609   -1.6329 H   0  0  0  0  0  0  0  0  0  0  0  0
   -2.8446   -6.6893    0.0421 H   0  0  0  0  0  0  0  0  0  0  0  0
   -2.0290   -8.1978   -0.4564 H   0  0  0  0  0  0  0  0  0  0  0  0
   -0.6920   -4.8927   -2.8208 H   0  0  0  0  0  0  0  0  0  0  0  0
   -2.0549   -3.2812   -0.9431 H   0  0  0  0  0  0  0  0  0  0  0  0
   -2.8748   -1.8534   -2.7813 H   0  0  0  0  0  0  0  0  0  0  0  0
   -4.4050   -2.6541   -2.7690 H   0  0  0  0  0  0  0  0  0  0  0  0
   -1.9936   -0.3844   -1.1868 H   0  0  0  0  0  0  0  0  0  0  0  0
   -2.5929   -0.3312    0.5217 H   0  0  0  0  0  0  0  0  0  0  0  0
   -3.7899   -3.5331    0.6290 H   0  0  0  0  0  0  0  0  0  0  0  0
   -6.6595   -3.3440   -1.1148 H   0  0  0  0  0  0  0  0  0  0  0  0
   -8.6795   -4.4565   -0.3181 H   0  0  0  0  0  0  0  0  0  0  0  0
   -7.6702   -5.6616    0.6291 H   0  0  0  0  0  0  0  0  0  0  0  0
   -7.6544   -5.6298   -1.1883 H   0  0  0  0  0  0  0  0  0  0  0  0
   -5.8689   -2.3203    0.7949 H   0  0  0  0  0  0  0  0  0  0  0  0
   -8.8925   -0.9739    2.1098 H   0  0  0  0  0  0  0  0  0  0  0  0
   -7.2148   -0.0901    3.9131 H   0  0  0  0  0  0  0  0  0  0  0  0
   -6.4760   -1.7751    3.8189 H   0  0  0  0  0  0  0  0  0  0  0  0
   -8.2292   -1.5197    4.2937 H   0  0  0  0  0  0  0  0  0  0  0  0
   -6.3207    0.2631    1.8156 H   0  0  0  0  0  0  0  0  0  0  0  0
  1  2  1  0
  2  3  2  0
  2  4  1  0
  4  5  1  0
  5  6  1  0
  6  7  1  0
  7  8  1  0
  8  9  1  0
  9 10  2  0
 10 11  1  0
 11 12  2  0
 12 13  1  0
 13 14  2  0
 13 15  1  0
 15 16  1  0
 16 17  1  0
 17 18  1  0
 18 19  1  0
 19 20  1  0
 19 21  2  0
 18 22  1  0
 22 23  1  0
 23 24  2  0
 23 25  1  0
 25 26  1  0
 25 27  1  0
 27 28  1  0
 28 29  2  0
 28 30  1  0
 30 31  1  0
 30 32  1  0
 32 33  1  0
 33 34  2  0
 33 35  1  0
 35 36  1  0
 35 37  1  0
 37 38  1  0
 38 39  2  0
 38 40  1  0
 40 41  1  0
 40 42  1  0
 42 43  1  0
 43 44  2  0
 43 45  1  0
 45 46  1  0
 45 47  1  0
 47 48  1  0
 48 49  2  0
 48 50  1  0
 50 51  1  0
 50 52  1  0
 52 53  1  0
 53 54  2  0
 53 55  1  0
 55 56  1  0
 55 57  1  0
 57 58  1  0
 58 59  2  0
 58 60  1  0
 60 61  1  0
 60 62  1  0
 62 63  1  0
 63 64  2  0
 63 65  1  0
 65 66  1  0
 66 67  1  0
 67 68  1  0
 65 69  1  0
 69 70  1  0
 70 71  2  0
 70 72  1  0
 72 73  1  0
 72 74  1  0
 74 75  1  0
 75 76  2  0
 75 77  1  0
 77 78  1  0
 77 79  1  0
 79 80  1  0
 80 81  2  0
 80  5  1  0
 14  9  1  0
 68 11  1  0
  1 82  1  0
  1 83  1  0
  1 84  1  0
  4 85  1  0
  5 86  1  1
  6 87  1  0
  6 88  1  0
  8 89  1  0
  8 90  1  0
 10 91  1  0
 12 92  1  0
 14 93  1  0
 15 94  1  0
 15 95  1  0
 17 96  1  0
 17 97  1  0
 18 98  1  6
 20 99  1  0
 20100  1  0
 22101  1  0
 25102  1  6
 26103  1  0
 26104  1  0
 26105  1  0
 27106  1  0
 30107  1  6
 31108  1  0
 31109  1  0
 31110  1  0
 32111  1  0
 35112  1  6
 36113  1  0
 36114  1  0
 36115  1  0
 37116  1  0
 40117  1  6
 41118  1  0
 41119  1  0
 41120  1  0
 42121  1  0
 45122  1  6
 46123  1  0
 46124  1  0
 46125  1  0
 47126  1  0
 50127  1  1
 51128  1  0
 51129  1  0
 51130  1  0
 52131  1  0
 55132  1  6
 56133  1  0
 56134  1  0
 56135  1  0
 57136  1  0
 60137  1  6
 61138  1  0
 61139  1  0
 61140  1  0
 62141  1  0
 65142  1  1
 66143  1  0
 66144  1  0
 68145  1  0
 68146  1  0
 69147  1  0
 72148  1  6
 73149  1  0
 73150  1  0
 73151  1  0
 74152  1  0
 77153  1  1
 78154  1  0
 78155  1  0
 78156  1  0
 79157  1  0
M  END
