
     RDKit          3D

157159  0  0  0  0  0  0  0  0999 V2000
  -12.3970   -1.5628    0.3819 C   0  0  0  0  0  0  0  0  0  0  0  0
  -11.0366   -2.1009    0.6958 C   0  0  0  0  0  0  0  0  0  0  0  0
  -10.8264   -2.6209    1.8251 O   0  0  0  0  0  0  0  0  0  0  0  0
   -9.9934   -2.0624   -0.2870 N   0  0  0  0  0  0  0  0  0  0  0  0
   -8.5991   -2.3786    0.0313 C   0  0  1  0  0  0  0  0  0  0  0  0
   -7.9307   -3.0973   -1.1514 C   0  0  0  0  0  0  0  0  0  0  0  0
   -6.3682   -3.9061   -0.6213 S   0  0  0  0  0  0  0  0  0  0  0  0
   -5.1967   -2.6996   -1.3403 C   0  0  0  0  0  0  0  0  0  0  0  0
   -4.0197   -2.5343   -0.4207 C   0  0  0  0  0  0  0  0  0  0  0  0
   -3.8777   -1.3664    0.3469 C   0  0  0  0  0  0  0  0  0  0  0  0
   -2.7736   -1.1929    1.1979 C   0  0  0  0  0  0  0  0  0  0  0  0
   -1.7865   -2.1880    1.2394 C   0  0  0  0  0  0  0  0  0  0  0  0
   -1.8940   -3.3400    0.4452 C   0  0  0  0  0  0  0  0  0  0  0  0
   -3.0220   -3.5188   -0.3716 C   0  0  0  0  0  0  0  0  0  0  0  0
   -0.7341   -4.2993    0.3749 C   0  0  0  0  0  0  0  0  0  0  0  0
    0.6651   -3.4637   -0.4712 S   0  0  0  0  0  0  0  0  0  0  0  0
    1.1039   -4.8264   -1.6057 C   0  0  0  0  0  0  0  0  0  0  0  0
    1.9297   -5.9116   -0.8945 C   0  0  1  0  0  0  0  0  0  0  0  0
    2.2581   -7.0250   -1.8571 C   0  0  0  0  0  0  0  0  0  0  0  0
    1.8713   -8.3717   -1.5814 N   0  0  0  0  0  0  0  0  0  0  0  0
    2.9006   -6.7691   -2.9168 O   0  0  0  0  0  0  0  0  0  0  0  0
    3.1739   -5.3490   -0.3669 N   0  0  0  0  0  0  0  0  0  0  0  0
    3.5127   -5.4510    1.0151 C   0  0  0  0  0  0  0  0  0  0  0  0
    2.9975   -4.6465    1.8435 O   0  0  0  0  0  0  0  0  0  0  0  0
    4.5327   -6.4505    1.4733 C   0  0  1  0  0  0  0  0  0  0  0  0
    4.1278   -7.8711    1.0652 C   0  0  0  0  0  0  0  0  0  0  0  0
    5.8369   -6.1007    0.9087 N   0  0  0  0  0  0  0  0  0  0  0  0
    6.5819   -4.9719    1.3861 C   0  0  0  0  0  0  0  0  0  0  0  0
    6.4539   -4.6015    2.5837 O   0  0  0  0  0  0  0  0  0  0  0  0
    7.4462   -4.1381    0.4746 C   0  0  1  0  0  0  0  0  0  0  0  0
    7.8496   -4.8404   -0.8252 C   0  0  0  0  0  0  0  0  0  0  0  0
    6.7394   -2.8980    0.1558 N   0  0  0  0  0  0  0  0  0  0  0  0
    7.0570   -1.6649    0.8132 C   0  0  0  0  0  0  0  0  0  0  0  0
    6.2944   -1.2427    1.7212 O   0  0  0  0  0  0  0  0  0  0  0  0
    8.2448   -0.8421    0.3981 C   0  0  1  0  0  0  0  0  0  0  0  0
    9.5585   -1.3888    0.9604 C   0  0  0  0  0  0  0  0  0  0  0  0
    8.3166   -0.7688   -1.0652 N   0  0  0  0  0  0  0  0  0  0  0  0
    8.4998    0.4686   -1.7727 C   0  0  0  0  0  0  0  0  0  0  0  0
    9.4165    0.5360   -2.6434 O   0  0  0  0  0  0  0  0  0  0  0  0
    7.6645    1.7034   -1.4828 C   0  0  1  0  0  0  0  0  0  0  0  0
    7.2522    2.3864   -2.7918 C   0  0  0  0  0  0  0  0  0  0  0  0
    6.4546    1.3647   -0.7297 N   0  0  0  0  0  0  0  0  0  0  0  0
    5.9062    2.0901    0.3945 C   0  0  0  0  0  0  0  0  0  0  0  0
    4.7910    1.7174    0.8515 O   0  0  0  0  0  0  0  0  0  0  0  0
    6.6052    3.2394    1.1039 C   0  0  1  0  0  0  0  0  0  0  0  0
    7.7681    2.7336    1.9684 C   0  0  0  0  0  0  0  0  0  0  0  0
    7.0590    4.2738    0.1667 N   0  0  0  0  0  0  0  0  0  0  0  0
    6.1979    5.1904   -0.5285 C   0  0  0  0  0  0  0  0  0  0  0  0
    6.7228    5.9751   -1.3639 O   0  0  0  0  0  0  0  0  0  0  0  0
    4.7334    5.3632   -0.1733 C   0  0  1  0  0  0  0  0  0  0  0  0
    4.6191    6.4808    0.8716 C   0  0  0  0  0  0  0  0  0  0  0  0
    3.9500    5.7039   -1.3710 N   0  0  0  0  0  0  0  0  0  0  0  0
    2.5998    5.2649   -1.5993 C   0  0  0  0  0  0  0  0  0  0  0  0
    2.2379    5.0440   -2.7870 O   0  0  0  0  0  0  0  0  0  0  0  0
    1.5678    5.2798   -0.4885 C   0  0  1  0  0  0  0  0  0  0  0  0
    1.0636    6.7202   -0.3115 C   0  0  0  0  0  0  0  0  0  0  0  0
    0.4363    4.3886   -0.7843 N   0  0  0  0  0  0  0  0  0  0  0  0
   -0.6612    4.2422    0.1317 C   0  0  0  0  0  0  0  0  0  0  0  0
   -0.4379    4.1900    1.3721 O   0  0  0  0  0  0  0  0  0  0  0  0
   -2.0886    4.1723   -0.3607 C   0  0  1  0  0  0  0  0  0  0  0  0
   -2.2984    5.0341   -1.6135 C   0  0  0  0  0  0  0  0  0  0  0  0
   -2.4645    2.7844   -0.6459 N   0  0  0  0  0  0  0  0  0  0  0  0
   -3.8054    2.2719   -0.5105 C   0  0  0  0  0  0  0  0  0  0  0  0
   -4.2528    1.5138   -1.4111 O   0  0  0  0  0  0  0  0  0  0  0  0
   -4.7035    2.5879    0.6746 C   0  0  1  0  0  0  0  0  0  0  0  0
   -3.9603    2.4670    2.0249 C   0  0  0  0  0  0  0  0  0  0  0  0
   -4.0731    0.7582    2.6974 S   0  0  0  0  0  0  0  0  0  0  0  0
   -2.5476    0.1069    1.9215 C   0  0  0  0  0  0  0  0  0  0  0  0
   -5.3273    3.9091    0.5219 N   0  0  0  0  0  0  0  0  0  0  0  0
   -6.5747    4.3060    1.1271 C   0  0  0  0  0  0  0  0  0  0  0  0
   -7.0303    5.4498    0.8579 O   0  0  0  0  0  0  0  0  0  0  0  0
   -7.3687    3.3810    2.0392 C   0  0  1  0  0  0  0  0  0  0  0  0
   -8.3439    4.1519    2.9346 C   0  0  0  0  0  0  0  0  0  0  0  0
   -8.0936    2.3189    1.3250 N   0  0  0  0  0  0  0  0  0  0  0  0
   -8.3954    2.2653   -0.0851 C   0  0  0  0  0  0  0  0  0  0  0  0
   -8.1875    3.2637   -0.8219 O   0  0  0  0  0  0  0  0  0  0  0  0
   -8.8295    0.9444   -0.6829 C   0  0  1  0  0  0  0  0  0  0  0  0
   -9.1840    1.0671   -2.1697 C   0  0  0  0  0  0  0  0  0  0  0  0
   -7.7530   -0.0284   -0.5189 N   0  0  0  0  0  0  0  0  0  0  0  0
   -7.8529   -1.1218    0.3995 C   0  0  0  0  0  0  0  0  0  0  0  0
   -7.2529   -1.0578    1.5094 O   0  0  0  0  0  0  0  0  0  0  0  0
  -12.6934   -0.8388    1.1723 H   0  0  0  0  0  0  0  0  0  0  0  0
  -13.1268   -2.3993    0.3574 H   0  0  0  0  0  0  0  0  0  0  0  0
  -12.4041   -1.0409   -0.6017 H   0  0  0  0  0  0  0  0  0  0  0  0
  -10.2252   -1.7214   -1.2490 H   0  0  0  0  0  0  0  0  0  0  0  0
   -8.5710   -3.0843    0.8937 H   0  0  0  0  0  0  0  0  0  0  0  0
   -7.7843   -2.4119   -2.0163 H   0  0  0  0  0  0  0  0  0  0  0  0
   -8.6043   -3.9081   -1.5037 H   0  0  0  0  0  0  0  0  0  0  0  0
   -5.6815   -1.7175   -1.5069 H   0  0  0  0  0  0  0  0  0  0  0  0
   -4.8588   -3.0644   -2.3318 H   0  0  0  0  0  0  0  0  0  0  0  0
   -4.6252   -0.5875    0.2711 H   0  0  0  0  0  0  0  0  0  0  0  0
   -0.9022   -2.0363    1.8485 H   0  0  0  0  0  0  0  0  0  0  0  0
   -3.0977   -4.4018   -0.9979 H   0  0  0  0  0  0  0  0  0  0  0  0
   -0.4171   -4.5579    1.4094 H   0  0  0  0  0  0  0  0  0  0  0  0
   -1.0396   -5.2392   -0.1306 H   0  0  0  0  0  0  0  0  0  0  0  0
    1.7027   -4.3906   -2.4379 H   0  0  0  0  0  0  0  0  0  0  0  0
    0.1868   -5.2610   -2.0615 H   0  0  0  0  0  0  0  0  0  0  0  0
    1.3226   -6.3227   -0.0611 H   0  0  0  0  0  0  0  0  0  0  0  0
    2.1386   -9.1376   -2.2392 H   0  0  0  0  0  0  0  0  0  0  0  0
    1.3547   -8.6206   -0.7027 H   0  0  0  0  0  0  0  0  0  0  0  0
    3.8281   -4.8306   -1.0081 H   0  0  0  0  0  0  0  0  0  0  0  0
    4.6011   -6.4360    2.5857 H   0  0  0  0  0  0  0  0  0  0  0  0
    3.0861   -8.0867    1.3875 H   0  0  0  0  0  0  0  0  0  0  0  0
    4.8045   -8.6047    1.5477 H   0  0  0  0  0  0  0  0  0  0  0  0
    4.1961   -7.9990   -0.0346 H   0  0  0  0  0  0  0  0  0  0  0  0
    6.2643   -6.7222    0.1801 H   0  0  0  0  0  0  0  0  0  0  0  0
    8.3817   -3.9130    1.0319 H   0  0  0  0  0  0  0  0  0  0  0  0
    8.3925   -5.7860   -0.5974 H   0  0  0  0  0  0  0  0  0  0  0  0
    6.9522   -5.0601   -1.4429 H   0  0  0  0  0  0  0  0  0  0  0  0
    8.5274   -4.1852   -1.4129 H   0  0  0  0  0  0  0  0  0  0  0  0
    5.8003   -2.9734   -0.2969 H   0  0  0  0  0  0  0  0  0  0  0  0
    8.1196    0.1699    0.8173 H   0  0  0  0  0  0  0  0  0  0  0  0
    9.4659   -1.6007    2.0473 H   0  0  0  0  0  0  0  0  0  0  0  0
   10.3629   -0.6386    0.8132 H   0  0  0  0  0  0  0  0  0  0  0  0
    9.8658   -2.3166    0.4284 H   0  0  0  0  0  0  0  0  0  0  0  0
    8.5401   -1.6469   -1.5874 H   0  0  0  0  0  0  0  0  0  0  0  0
    8.3101    2.3933   -0.9128 H   0  0  0  0  0  0  0  0  0  0  0  0
    8.1435    2.7892   -3.3197 H   0  0  0  0  0  0  0  0  0  0  0  0
    6.7441    1.6529   -3.4580 H   0  0  0  0  0  0  0  0  0  0  0  0
    6.5582    3.2312   -2.5935 H   0  0  0  0  0  0  0  0  0  0  0  0
    5.8655    0.5935   -1.1132 H   0  0  0  0  0  0  0  0  0  0  0  0
    5.8852    3.7027    1.8160 H   0  0  0  0  0  0  0  0  0  0  0  0
    8.1733    3.5710    2.5764 H   0  0  0  0  0  0  0  0  0  0  0  0
    8.5910    2.3286    1.3489 H   0  0  0  0  0  0  0  0  0  0  0  0
    7.4115    1.9410    2.6668 H   0  0  0  0  0  0  0  0  0  0  0  0
    8.0856    4.4301    0.0535 H   0  0  0  0  0  0  0  0  0  0  0  0
    4.3403    4.4279    0.2550 H   0  0  0  0  0  0  0  0  0  0  0  0
    5.2567    6.2515    1.7500 H   0  0  0  0  0  0  0  0  0  0  0  0
    4.9371    7.4570    0.4407 H   0  0  0  0  0  0  0  0  0  0  0  0
    3.5788    6.5722    1.2346 H   0  0  0  0  0  0  0  0  0  0  0  0
    4.4098    6.2181   -2.1603 H   0  0  0  0  0  0  0  0  0  0  0  0
    2.0425    4.9392    0.4560 H   0  0  0  0  0  0  0  0  0  0  0  0
    0.5040    7.0391   -1.2126 H   0  0  0  0  0  0  0  0  0  0  0  0
    0.3955    6.7849    0.5696 H   0  0  0  0  0  0  0  0  0  0  0  0
    1.9091    7.4227   -0.1563 H   0  0  0  0  0  0  0  0  0  0  0  0
    0.3558    3.9223   -1.7178 H   0  0  0  0  0  0  0  0  0  0  0  0
   -2.7326    4.5884    0.4418 H   0  0  0  0  0  0  0  0  0  0  0  0
   -1.7531    4.6053   -2.4816 H   0  0  0  0  0  0  0  0  0  0  0  0
   -3.3746    5.0808   -1.8797 H   0  0  0  0  0  0  0  0  0  0  0  0
   -1.9354    6.0679   -1.4362 H   0  0  0  0  0  0  0  0  0  0  0  0
   -1.8150    2.2417   -1.2610 H   0  0  0  0  0  0  0  0  0  0  0  0
   -5.5182    1.8337    0.6653 H   0  0  0  0  0  0  0  0  0  0  0  0
   -2.9045    2.7993    1.9634 H   0  0  0  0  0  0  0  0  0  0  0  0
   -4.4214    3.1391    2.7776 H   0  0  0  0  0  0  0  0  0  0  0  0
   -1.8178   -0.0450    2.7448 H   0  0  0  0  0  0  0  0  0  0  0  0
   -2.0850    0.8212    1.2126 H   0  0  0  0  0  0  0  0  0  0  0  0
   -4.9116    4.5898   -0.1518 H   0  0  0  0  0  0  0  0  0  0  0  0
   -6.6472    2.8834    2.7226 H   0  0  0  0  0  0  0  0  0  0  0  0
   -7.7890    4.9173    3.5275 H   0  0  0  0  0  0  0  0  0  0  0  0
   -9.1228    4.6546    2.3204 H   0  0  0  0  0  0  0  0  0  0  0  0
   -8.8417    3.4541    3.6408 H   0  0  0  0  0  0  0  0  0  0  0  0
   -8.3919    1.5000    1.8987 H   0  0  0  0  0  0  0  0  0  0  0  0
   -9.7359    0.6097   -0.1312 H   0  0  0  0  0  0  0  0  0  0  0  0
   -9.5022    0.0869   -2.5672 H   0  0  0  0  0  0  0  0  0  0  0  0
  -10.0173    1.7857   -2.3124 H   0  0  0  0  0  0  0  0  0  0  0  0
   -8.2975    1.4068   -2.7487 H   0  0  0  0  0  0  0  0  0  0  0  0
   -6.8016    0.2425   -0.8460 H   0  0  0  0  0  0  0  0  0  0  0  0
  1  2  1  0
  2  3  2  0
  2  4  1  0
  4  5  1  0
  5  6  1  0
  6  7  1  0
  7  8  1  0
  8  9  1  0
  9 10  2  0
 10 11  1  0
 11 12  2  0
 12 13  1  0
 13 14  2  0
 13 15  1  0
 15 16  1  0
 16 17  1  0
 17 18  1  0
 18 19  1  0
 19 20  1  0
 19 21  2  0
 18 22  1  0
 22 23  1  0
 23 24  2  0
 23 25  1  0
 25 26  1  0
 25 27  1  0
 27 28  1  0
 28 29  2  0
 28 30  1  0
 30 31  1  0
 30 32  1  0
 32 33  1  0
 33 34  2  0
 33 35  1  0
 35 36  1  0
 35 37  1  0
 37 38  1  0
 38 39  2  0
 38 40  1  0
 40 41  1  0
 40 42  1  0
 42 43  1  0
 43 44  2  0
 43 45  1  0
 45 46  1  0
 45 47  1  0
 47 48  1  0
 48 49  2  0
 48 50  1  0
 50 51  1  0
 50 52  1  0
 52 53  1  0
 53 54  2  0
 53 55  1  0
 55 56  1  0
 55 57  1  0
 57 58  1  0
 58 59  2  0
 58 60  1  0
 60 61  1  0
 60 62  1  0
 62 63  1  0
 63 64  2  0
 63 65  1  0
 65 66  1  0
 66 67  1  0
 67 68  1  0
 65 69  1  0
 69 70  1  0
 70 71  2  0
 70 72  1  0
 72 73  1  0
 72 74  1  0
 74 75  1  0
 75 76  2  0
 75 77  1  0
 77 78  1  0
 77 79  1  0
 79 80  1  0
 80 81  2  0
 80  5  1  0
 14  9  1  0
 68 11  1  0
  1 82  1  0
  1 83  1  0
  1 84  1  0
  4 85  1  0
  5 86  1  1
  6 87  1  0
  6 88  1  0
  8 89  1  0
  8 90  1  0
 10 91  1  0
 12 92  1  0
 14 93  1  0
 15 94  1  0
 15 95  1  0
 17 96  1  0
 17 97  1  0
 18 98  1  1
 20 99  1  0
 20100  1  0
 22101  1  0
 25102  1  1
 26103  1  0
 26104  1  0
 26105  1  0
 27106  1  0
 30107  1  1
 31108  1  0
 31109  1  0
 31110  1  0
 32111  1  0
 35112  1  1
 36113  1  0
 36114  1  0
 36115  1  0
 37116  1  0
 40117  1  1
 41118  1  0
 41119  1  0
 41120  1  0
 42121  1  0
 45122  1  1
 46123  1  0
 46124  1  0
 46125  1  0
 47126  1  0
 50127  1  1
 51128  1  0
 51129  1  0
 51130  1  0
 52131  1  0
 55132  1  1
 56133  1  0
 56134  1  0
 56135  1  0
 57136  1  0
 60137  1  1
 61138  1  0
 61139  1  0
 61140  1  0
 62141  1  0
 65142  1  1
 66143  1  0
 66144  1  0
 68145  1  0
 68146  1  0
 69147  1  0
 72148  1  1
 73149  1  0
 73150  1  0
 73151  1  0
 74152  1  0
 77153  1  1
 78154  1  0
 78155  1  0
 78156  1  0
 79157  1  0
M  END
