
     RDKit          3D

167169  0  0  0  0  0  0  0  0999 V2000
  -12.3583    1.6248   -1.2092 C   0  0  0  0  0  0  0  0  0  0  0  0
  -11.5659    2.8849   -1.0681 C   0  0  0  0  0  0  0  0  0  0  0  0
  -12.1633    3.9916   -1.1782 O   0  0  0  0  0  0  0  0  0  0  0  0
  -10.1457    2.8766   -0.8394 N   0  0  0  0  0  0  0  0  0  0  0  0
   -9.3666    1.6688   -0.5175 C   0  0  1  0  0  0  0  0  0  0  0  0
   -7.8473    1.9301   -0.6276 C   0  0  0  0  0  0  0  0  0  0  0  0
   -7.3077    3.3922    0.3510 S   0  0  0  0  0  0  0  0  0  0  0  0
   -6.1214    2.5582    1.4648 C   0  0  0  0  0  0  0  0  0  0  0  0
   -4.7674    2.3666    0.8220 C   0  0  0  0  0  0  0  0  0  0  0  0
   -4.0854    3.4502    0.2353 C   0  0  0  0  0  0  0  0  0  0  0  0
   -2.7830    3.2990   -0.2607 C   0  0  0  0  0  0  0  0  0  0  0  0
   -2.1752    2.0384   -0.1921 C   0  0  0  0  0  0  0  0  0  0  0  0
   -2.8077    0.9702    0.4498 C   0  0  0  0  0  0  0  0  0  0  0  0
   -4.1111    1.1352    0.9440 C   0  0  0  0  0  0  0  0  0  0  0  0
   -2.0542   -0.3083    0.6857 C   0  0  0  0  0  0  0  0  0  0  0  0
   -1.7679   -1.2095   -0.8835 S   0  0  0  0  0  0  0  0  0  0  0  0
   -3.4153   -1.9978   -0.9596 C   0  0  0  0  0  0  0  0  0  0  0  0
   -3.4752   -3.2779   -0.0968 C   0  0  1  0  0  0  0  0  0  0  0  0
   -4.8740   -3.5630    0.2501 N   0  0  0  0  0  0  0  0  0  0  0  0
   -5.8611   -3.8400   -0.7517 C   0  0  0  0  0  0  0  0  0  0  0  0
   -5.6726   -4.7823   -1.5720 O   0  0  0  0  0  0  0  0  0  0  0  0
   -7.1352   -3.0340   -0.7820 C   0  0  1  0  0  0  0  0  0  0  0  0
   -7.8723   -3.2133   -2.1180 C   0  0  0  0  0  0  0  0  0  0  0  0
   -7.9990   -3.4041    0.3465 N   0  0  0  0  0  0  0  0  0  0  0  0
   -8.9592   -2.5337    0.9713 C   0  0  0  0  0  0  0  0  0  0  0  0
   -9.4042   -2.8461    2.1074 O   0  0  0  0  0  0  0  0  0  0  0  0
   -9.5563   -1.3430    0.2529 C   0  0  1  0  0  0  0  0  0  0  0  0
  -10.8667   -1.7721   -0.4201 C   0  0  0  0  0  0  0  0  0  0  0  0
   -9.8282   -0.2384    1.1859 N   0  0  0  0  0  0  0  0  0  0  0  0
   -9.7159    1.1649    0.8702 C   0  0  0  0  0  0  0  0  0  0  0  0
   -9.9107    2.0063    1.7879 O   0  0  0  0  0  0  0  0  0  0  0  0
   -2.8154   -4.4701   -0.7563 C   0  0  0  0  0  0  0  0  0  0  0  0
   -1.9624   -4.2981   -1.6727 O   0  0  0  0  0  0  0  0  0  0  0  0
   -3.1239   -5.8086   -0.3497 N   0  0  0  0  0  0  0  0  0  0  0  0
   -2.5575   -6.4570    0.8382 C   0  0  2  0  0  0  0  0  0  0  0  0
   -2.6317   -5.5883    2.0951 C   0  0  0  0  0  0  0  0  0  0  0  0
   -1.1536   -6.9335    0.5610 C   0  0  0  0  0  0  0  0  0  0  0  0
   -0.9419   -8.1729    0.4752 O   0  0  0  0  0  0  0  0  0  0  0  0
   -0.0774   -5.9927    0.3616 N   0  0  0  0  0  0  0  0  0  0  0  0
    1.3109   -6.3572    0.0309 C   0  0  2  0  0  0  0  0  0  0  0  0
    1.3760   -7.2346   -1.2269 C   0  0  0  0  0  0  0  0  0  0  0  0
    1.9998   -7.0102    1.2065 C   0  0  0  0  0  0  0  0  0  0  0  0
    1.4240   -7.9361    1.8475 O   0  0  0  0  0  0  0  0  0  0  0  0
    3.3252   -6.6273    1.6020 N   0  0  0  0  0  0  0  0  0  0  0  0
    4.4329   -6.6439    0.6431 C   0  0  2  0  0  0  0  0  0  0  0  0
    4.8815   -8.0927    0.4159 C   0  0  0  0  0  0  0  0  0  0  0  0
    5.6084   -5.8153    1.1323 C   0  0  0  0  0  0  0  0  0  0  0  0
    5.6105   -5.3626    2.3080 O   0  0  0  0  0  0  0  0  0  0  0  0
    6.7831   -5.6249    0.3202 N   0  0  0  0  0  0  0  0  0  0  0  0
    6.7693   -5.5264   -1.1428 C   0  0  2  0  0  0  0  0  0  0  0  0
    8.0298   -6.1736   -1.7254 C   0  0  0  0  0  0  0  0  0  0  0  0
    6.6693   -4.0882   -1.5767 C   0  0  0  0  0  0  0  0  0  0  0  0
    6.2361   -3.8148   -2.7355 O   0  0  0  0  0  0  0  0  0  0  0  0
    7.1402   -3.0337   -0.7271 N   0  0  0  0  0  0  0  0  0  0  0  0
    6.2228   -1.9971   -0.2391 C   0  0  2  0  0  0  0  0  0  0  0  0
    5.8036   -1.0304   -1.3544 C   0  0  0  0  0  0  0  0  0  0  0  0
    6.8121   -1.2806    0.9595 C   0  0  0  0  0  0  0  0  0  0  0  0
    6.1360   -1.2374    2.0199 O   0  0  0  0  0  0  0  0  0  0  0  0
    8.1129   -0.6510    0.9500 N   0  0  0  0  0  0  0  0  0  0  0  0
    8.8101   -0.1630   -0.2422 C   0  0  2  0  0  0  0  0  0  0  0  0
   10.3195   -0.1644    0.0118 C   0  0  0  0  0  0  0  0  0  0  0  0
    8.3583    1.2356   -0.6000 C   0  0  0  0  0  0  0  0  0  0  0  0
    8.7941    1.7763   -1.6483 O   0  0  0  0  0  0  0  0  0  0  0  0
    7.4935    1.9785    0.2755 N   0  0  0  0  0  0  0  0  0  0  0  0
    7.7029    3.4068    0.5325 C   0  0  2  0  0  0  0  0  0  0  0  0
    9.0770    3.6299    1.1724 C   0  0  0  0  0  0  0  0  0  0  0  0
    6.6107    3.9325    1.4275 C   0  0  0  0  0  0  0  0  0  0  0  0
    6.5423    3.5555    2.6290 O   0  0  0  0  0  0  0  0  0  0  0  0
    5.5657    4.7542    0.8909 N   0  0  0  0  0  0  0  0  0  0  0  0
    5.6589    6.2033    0.6692 C   0  0  2  0  0  0  0  0  0  0  0  0
    7.0394    6.7841    1.0193 C   0  0  0  0  0  0  0  0  0  0  0  0
    4.5911    6.8915    1.4994 C   0  0  0  0  0  0  0  0  0  0  0  0
    4.5815    6.6801    2.7417 O   0  0  0  0  0  0  0  0  0  0  0  0
    3.5696    7.7494    0.9502 N   0  0  0  0  0  0  0  0  0  0  0  0
    3.5536    8.3270   -0.4032 C   0  0  2  0  0  0  0  0  0  0  0  0
    4.2545    9.6818   -0.3854 C   0  0  0  0  0  0  0  0  0  0  0  0
    2.1438    8.4741   -0.9291 C   0  0  0  0  0  0  0  0  0  0  0  0
    1.9724    8.7460   -2.1489 O   0  0  0  0  0  0  0  0  0  0  0  0
    0.9962    8.3681   -0.0764 N   0  0  0  0  0  0  0  0  0  0  0  0
    0.4319    7.0773    0.3283 C   0  0  1  0  0  0  0  0  0  0  0  0
   -0.8175    7.3023    1.1468 C   0  0  0  0  0  0  0  0  0  0  0  0
   -1.8945    8.0865    0.6204 N   0  0  0  0  0  0  0  0  0  0  0  0
   -0.9123    6.8028    2.3016 O   0  0  0  0  0  0  0  0  0  0  0  0
    0.1139    6.1944   -0.8916 C   0  0  0  0  0  0  0  0  0  0  0  0
   -0.2832    4.4951   -0.3395 S   0  0  0  0  0  0  0  0  0  0  0  0
   -2.0486    4.4845   -0.8514 C   0  0  0  0  0  0  0  0  0  0  0  0
  -12.2883    1.0204   -0.2804 H   0  0  0  0  0  0  0  0  0  0  0  0
  -13.4286    1.8584   -1.3958 H   0  0  0  0  0  0  0  0  0  0  0  0
  -11.9761    1.0442   -2.0734 H   0  0  0  0  0  0  0  0  0  0  0  0
   -9.6580    3.7949   -0.9394 H   0  0  0  0  0  0  0  0  0  0  0  0
   -9.6210    0.9026   -1.2762 H   0  0  0  0  0  0  0  0  0  0  0  0
   -7.6048    2.1437   -1.6896 H   0  0  0  0  0  0  0  0  0  0  0  0
   -7.2821    1.0169   -0.3456 H   0  0  0  0  0  0  0  0  0  0  0  0
   -6.5479    1.5986    1.8242 H   0  0  0  0  0  0  0  0  0  0  0  0
   -5.9955    3.2045    2.3538 H   0  0  0  0  0  0  0  0  0  0  0  0
   -4.5651    4.4218    0.2024 H   0  0  0  0  0  0  0  0  0  0  0  0
   -1.1780    1.8950   -0.5858 H   0  0  0  0  0  0  0  0  0  0  0  0
   -4.6013    0.3140    1.4516 H   0  0  0  0  0  0  0  0  0  0  0  0
   -2.5707   -0.9471    1.4306 H   0  0  0  0  0  0  0  0  0  0  0  0
   -1.0640   -0.0599    1.1222 H   0  0  0  0  0  0  0  0  0  0  0  0
   -4.1832   -1.2727   -0.6211 H   0  0  0  0  0  0  0  0  0  0  0  0
   -3.6469   -2.2365   -2.0173 H   0  0  0  0  0  0  0  0  0  0  0  0
   -2.9334   -3.0845    0.8464 H   0  0  0  0  0  0  0  0  0  0  0  0
   -5.2073   -3.1999    1.1691 H   0  0  0  0  0  0  0  0  0  0  0  0
   -6.8379   -1.9660   -0.6834 H   0  0  0  0  0  0  0  0  0  0  0  0
   -8.2576   -4.2502   -2.2114 H   0  0  0  0  0  0  0  0  0  0  0  0
   -7.1752   -3.0019   -2.9598 H   0  0  0  0  0  0  0  0  0  0  0  0
   -8.7188   -2.5067   -2.2101 H   0  0  0  0  0  0  0  0  0  0  0  0
   -7.8722   -4.3513    0.7736 H   0  0  0  0  0  0  0  0  0  0  0  0
   -8.8457   -0.9938   -0.5206 H   0  0  0  0  0  0  0  0  0  0  0  0
  -10.7320   -2.7200   -0.9798 H   0  0  0  0  0  0  0  0  0  0  0  0
  -11.6584   -1.9290    0.3444 H   0  0  0  0  0  0  0  0  0  0  0  0
  -11.2045   -1.0016   -1.1353 H   0  0  0  0  0  0  0  0  0  0  0  0
  -10.2350   -0.4724    2.1216 H   0  0  0  0  0  0  0  0  0  0  0  0
   -3.4120   -6.4540   -1.1247 H   0  0  0  0  0  0  0  0  0  0  0  0
   -3.1903   -7.3580    1.0435 H   0  0  0  0  0  0  0  0  0  0  0  0
   -2.3926   -6.1968    2.9928 H   0  0  0  0  0  0  0  0  0  0  0  0
   -1.9095   -4.7483    2.0530 H   0  0  0  0  0  0  0  0  0  0  0  0
   -3.6563   -5.1868    2.2271 H   0  0  0  0  0  0  0  0  0  0  0  0
   -0.2905   -4.9715    0.4060 H   0  0  0  0  0  0  0  0  0  0  0  0
    1.8595   -5.4196   -0.2046 H   0  0  0  0  0  0  0  0  0  0  0  0
    0.7605   -6.7826   -2.0328 H   0  0  0  0  0  0  0  0  0  0  0  0
    2.4211   -7.3118   -1.5946 H   0  0  0  0  0  0  0  0  0  0  0  0
    1.0137   -8.2651   -1.0307 H   0  0  0  0  0  0  0  0  0  0  0  0
    3.5657   -6.7961    2.6063 H   0  0  0  0  0  0  0  0  0  0  0  0
    4.0855   -6.2119   -0.3136 H   0  0  0  0  0  0  0  0  0  0  0  0
    5.7194   -8.1422   -0.3079 H   0  0  0  0  0  0  0  0  0  0  0  0
    5.2113   -8.5435    1.3798 H   0  0  0  0  0  0  0  0  0  0  0  0
    4.0374   -8.6915    0.0166 H   0  0  0  0  0  0  0  0  0  0  0  0
    7.6528   -5.3226    0.8178 H   0  0  0  0  0  0  0  0  0  0  0  0
    5.8993   -6.0761   -1.5569 H   0  0  0  0  0  0  0  0  0  0  0  0
    8.9324   -5.5890   -1.4502 H   0  0  0  0  0  0  0  0  0  0  0  0
    7.9520   -6.2186   -2.8325 H   0  0  0  0  0  0  0  0  0  0  0  0
    8.1296   -7.2157   -1.3444 H   0  0  0  0  0  0  0  0  0  0  0  0
    8.0277   -3.2067   -0.2048 H   0  0  0  0  0  0  0  0  0  0  0  0
    5.2927   -2.5016    0.1092 H   0  0  0  0  0  0  0  0  0  0  0  0
    5.0350   -1.5124   -1.9956 H   0  0  0  0  0  0  0  0  0  0  0  0
    6.6480   -0.7487   -2.0114 H   0  0  0  0  0  0  0  0  0  0  0  0
    5.3521   -0.1110   -0.9242 H   0  0  0  0  0  0  0  0  0  0  0  0
    8.4572   -0.3028    1.8753 H   0  0  0  0  0  0  0  0  0  0  0  0
    8.6308   -0.8454   -1.0946 H   0  0  0  0  0  0  0  0  0  0  0  0
   10.6453   -1.1722    0.3450 H   0  0  0  0  0  0  0  0  0  0  0  0
   10.8674    0.0884   -0.9229 H   0  0  0  0  0  0  0  0  0  0  0  0
   10.5821    0.5787    0.7988 H   0  0  0  0  0  0  0  0  0  0  0  0
    6.7028    1.4786    0.7476 H   0  0  0  0  0  0  0  0  0  0  0  0
    7.6629    3.9550   -0.4370 H   0  0  0  0  0  0  0  0  0  0  0  0
    9.1982    2.9886    2.0689 H   0  0  0  0  0  0  0  0  0  0  0  0
    9.8810    3.3785    0.4501 H   0  0  0  0  0  0  0  0  0  0  0  0
    9.2041    4.6907    1.4736 H   0  0  0  0  0  0  0  0  0  0  0  0
    4.6461    4.2893    0.7160 H   0  0  0  0  0  0  0  0  0  0  0  0
    5.5123    6.3673   -0.4111 H   0  0  0  0  0  0  0  0  0  0  0  0
    7.8132    6.3327    0.3661 H   0  0  0  0  0  0  0  0  0  0  0  0
    7.2909    6.5828    2.0844 H   0  0  0  0  0  0  0  0  0  0  0  0
    7.0493    7.8814    0.8529 H   0  0  0  0  0  0  0  0  0  0  0  0
    2.9081    8.1614    1.6497 H   0  0  0  0  0  0  0  0  0  0  0  0
    4.0738    7.6723   -1.1164 H   0  0  0  0  0  0  0  0  0  0  0  0
    4.3132   10.0985   -1.4112 H   0  0  0  0  0  0  0  0  0  0  0  0
    5.2848    9.5736    0.0068 H   0  0  0  0  0  0  0  0  0  0  0  0
    3.7070   10.3988    0.2645 H   0  0  0  0  0  0  0  0  0  0  0  0
    0.7598    9.2233    0.4845 H   0  0  0  0  0  0  0  0  0  0  0  0
    1.1796    6.5442    0.9556 H   0  0  0  0  0  0  0  0  0  0  0  0
   -2.7645    8.2306    1.1849 H   0  0  0  0  0  0  0  0  0  0  0  0
   -1.8210    8.5264   -0.3254 H   0  0  0  0  0  0  0  0  0  0  0  0
   -0.6918    6.6409   -1.5160 H   0  0  0  0  0  0  0  0  0  0  0  0
    1.0208    6.1069   -1.5281 H   0  0  0  0  0  0  0  0  0  0  0  0
   -2.1121    4.4378   -1.9621 H   0  0  0  0  0  0  0  0  0  0  0  0
   -2.5274    5.4291   -0.5105 H   0  0  0  0  0  0  0  0  0  0  0  0
  1  2  1  0
  2  3  2  0
  2  4  1  0
  4  5  1  0
  5  6  1  0
  6  7  1  0
  7  8  1  0
  8  9  1  0
  9 10  2  0
 10 11  1  0
 11 12  2  0
 12 13  1  0
 13 14  2  0
 13 15  1  0
 15 16  1  0
 16 17  1  0
 17 18  1  0
 18 19  1  0
 19 20  1  0
 20 21  2  0
 20 22  1  0
 22 23  1  0
 22 24  1  0
 24 25  1  0
 25 26  2  0
 25 27  1  0
 27 28  1  0
 27 29  1  0
 29 30  1  0
 30 31  2  0
 18 32  1  0
 32 33  2  0
 32 34  1  0
 34 35  1  0
 35 36  1  0
 35 37  1  0
 37 38  2  0
 37 39  1  0
 39 40  1  0
 40 41  1  0
 40 42  1  0
 42 43  2  0
 42 44  1  0
 44 45  1  0
 45 46  1  0
 45 47  1  0
 47 48  2  0
 47 49  1  0
 49 50  1  0
 50 51  1  0
 50 52  1  0
 52 53  2  0
 52 54  1  0
 54 55  1  0
 55 56  1  0
 55 57  1  0
 57 58  2  0
 57 59  1  0
 59 60  1  0
 60 61  1  0
 60 62  1  0
 62 63  2  0
 62 64  1  0
 64 65  1  0
 65 66  1  0
 65 67  1  0
 67 68  2  0
 67 69  1  0
 69 70  1  0
 70 71  1  0
 70 72  1  0
 72 73  2  0
 72 74  1  0
 74 75  1  0
 75 76  1  0
 75 77  1  0
 77 78  2  0
 77 79  1  0
 79 80  1  0
 80 81  1  0
 81 82  1  0
 81 83  2  0
 80 84  1  0
 84 85  1  0
 85 86  1  0
 30  5  1  0
 14  9  1  0
 86 11  1  0
  1 87  1  0
  1 88  1  0
  1 89  1  0
  4 90  1  0
  5 91  1  6
  6 92  1  0
  6 93  1  0
  8 94  1  0
  8 95  1  0
 10 96  1  0
 12 97  1  0
 14 98  1  0
 15 99  1  0
 15100  1  0
 17101  1  0
 17102  1  0
 18103  1  1
 19104  1  0
 22105  1  1
 23106  1  0
 23107  1  0
 23108  1  0
 24109  1  0
 27110  1  6
 28111  1  0
 28112  1  0
 28113  1  0
 29114  1  0
 34115  1  0
 35116  1  1
 36117  1  0
 36118  1  0
 36119  1  0
 39120  1  0
 40121  1  6
 41122  1  0
 41123  1  0
 41124  1  0
 44125  1  0
 45126  1  6
 46127  1  0
 46128  1  0
 46129  1  0
 49130  1  0
 50131  1  6
 51132  1  0
 51133  1  0
 51134  1  0
 54135  1  0
 55136  1  1
 56137  1  0
 56138  1  0
 56139  1  0
 59140  1  0
 60141  1  6
 61142  1  0
 61143  1  0
 61144  1  0
 64145  1  0
 65146  1  6
 66147  1  0
 66148  1  0
 66149  1  0
 69150  1  0
 70151  1  6
 71152  1  0
 71153  1  0
 71154  1  0
 74155  1  0
 75156  1  6
 76157  1  0
 76158  1  0
 76159  1  0
 79160  1  0
 80161  1  1
 82162  1  0
 82163  1  0
 84164  1  0
 84165  1  0
 86166  1  0
 86167  1  0
M  END
