
     RDKit          3D

117119  0  0  0  0  0  0  0  0999 V2000
    8.8504    1.1170    2.4176 C   0  0  0  0  0  0  0  0  0  0  0  0
    8.5888    2.0017    1.2326 C   0  0  0  0  0  0  0  0  0  0  0  0
    9.3345    3.0044    1.0654 O   0  0  0  0  0  0  0  0  0  0  0  0
    7.5234    1.7647    0.2921 N   0  0  0  0  0  0  0  0  0  0  0  0
    6.6060    0.6147    0.3265 C   0  0  1  0  0  0  0  0  0  0  0  0
    5.4531    0.8427    1.3390 C   0  0  0  0  0  0  0  0  0  0  0  0
    5.0598    2.6038    1.7102 S   0  0  0  0  0  0  0  0  0  0  0  0
    4.2280    3.0416    0.1430 C   0  0  0  0  0  0  0  0  0  0  0  0
    2.7373    3.1231    0.3305 C   0  0  0  0  0  0  0  0  0  0  0  0
    2.0711    4.3582    0.2798 C   0  0  0  0  0  0  0  0  0  0  0  0
    0.6717    4.4143    0.3690 C   0  0  0  0  0  0  0  0  0  0  0  0
   -0.0585    3.2215    0.4866 C   0  0  0  0  0  0  0  0  0  0  0  0
    0.5887    1.9779    0.5178 C   0  0  0  0  0  0  0  0  0  0  0  0
    1.9919    1.9443    0.4547 C   0  0  0  0  0  0  0  0  0  0  0  0
   -0.2627    0.7252    0.4622 C   0  0  0  0  0  0  0  0  0  0  0  0
    0.5977   -0.8018    0.9964 S   0  0  0  0  0  0  0  0  0  0  0  0
    1.2877   -1.2387   -0.6548 C   0  0  0  0  0  0  0  0  0  0  0  0
    2.3840   -2.3306   -0.6264 C   0  0  1  0  0  0  0  0  0  0  0  0
    3.2625   -2.2193    0.5478 N   0  0  0  0  0  0  0  0  0  0  0  0
    4.6915   -2.4133    0.5633 C   0  0  0  0  0  0  0  0  0  0  0  0
    5.2304   -2.7568    1.6512 O   0  0  0  0  0  0  0  0  0  0  0  0
    5.5987   -2.2091   -0.6319 C   0  0  1  0  0  0  0  0  0  0  0  0
    5.5565   -3.3953   -1.6046 C   0  0  0  0  0  0  0  0  0  0  0  0
    5.3312   -0.9362   -1.3162 N   0  0  0  0  0  0  0  0  0  0  0  0
    6.0688    0.2768   -1.0587 C   0  0  0  0  0  0  0  0  0  0  0  0
    6.2499    1.0811   -2.0161 O   0  0  0  0  0  0  0  0  0  0  0  0
    1.8091   -3.7238   -0.6988 C   0  0  0  0  0  0  0  0  0  0  0  0
    2.0991   -4.4499   -1.6874 O   0  0  0  0  0  0  0  0  0  0  0  0
    0.9211   -4.2148    0.3172 N   0  0  0  0  0  0  0  0  0  0  0  0
    1.0393   -5.5385    0.9395 C   0  0  2  0  0  0  0  0  0  0  0  0
    1.3051   -6.6712   -0.0583 C   0  0  0  0  0  0  0  0  0  0  0  0
   -0.1862   -5.8370    1.7767 C   0  0  0  0  0  0  0  0  0  0  0  0
   -0.0502   -5.9184    3.0280 O   0  0  0  0  0  0  0  0  0  0  0  0
   -1.4727   -6.1505    1.2099 N   0  0  0  0  0  0  0  0  0  0  0  0
   -2.2849   -5.2989    0.3211 C   0  0  2  0  0  0  0  0  0  0  0  0
   -1.8149   -5.3920   -1.1324 C   0  0  0  0  0  0  0  0  0  0  0  0
   -2.3852   -3.8704    0.8120 C   0  0  0  0  0  0  0  0  0  0  0  0
   -2.1648   -3.5956    2.0224 O   0  0  0  0  0  0  0  0  0  0  0  0
   -2.7877   -2.8195   -0.0790 N   0  0  0  0  0  0  0  0  0  0  0  0
   -4.1894   -2.3848   -0.1964 C   0  0  2  0  0  0  0  0  0  0  0  0
   -5.1180   -3.5851   -0.4287 C   0  0  0  0  0  0  0  0  0  0  0  0
   -4.3382   -1.4255   -1.3568 C   0  0  0  0  0  0  0  0  0  0  0  0
   -3.8283   -1.7477   -2.4640 O   0  0  0  0  0  0  0  0  0  0  0  0
   -5.0559   -0.1777   -1.2697 N   0  0  0  0  0  0  0  0  0  0  0  0
   -5.8502    0.2965   -0.1237 C   0  0  2  0  0  0  0  0  0  0  0  0
   -7.0505   -0.6218    0.1433 C   0  0  0  0  0  0  0  0  0  0  0  0
   -6.3777    1.6852   -0.3898 C   0  0  0  0  0  0  0  0  0  0  0  0
   -6.9976    1.9343   -1.4587 O   0  0  0  0  0  0  0  0  0  0  0  0
   -6.2967    2.6893    0.6217 N   0  0  0  0  0  0  0  0  0  0  0  0
   -5.0893    3.4960    0.8034 C   0  0  2  0  0  0  0  0  0  0  0  0
   -4.6255    3.4099    2.2575 C   0  0  0  0  0  0  0  0  0  0  0  0
   -5.3772    4.9372    0.4339 C   0  0  0  0  0  0  0  0  0  0  0  0
   -6.4003    5.4926    0.9156 O   0  0  0  0  0  0  0  0  0  0  0  0
   -4.5173    5.7060   -0.4244 N   0  0  0  0  0  0  0  0  0  0  0  0
   -3.1946    5.2612   -0.8713 C   0  0  1  0  0  0  0  0  0  0  0  0
   -3.3415    4.3728   -2.0815 C   0  0  0  0  0  0  0  0  0  0  0  0
   -4.0374    4.8295   -3.2427 N   0  0  0  0  0  0  0  0  0  0  0  0
   -2.8492    3.2130   -2.0710 O   0  0  0  0  0  0  0  0  0  0  0  0
   -2.2883    6.4679   -1.1763 C   0  0  0  0  0  0  0  0  0  0  0  0
   -0.5692    5.9412   -1.5154 S   0  0  0  0  0  0  0  0  0  0  0  0
   -0.0494    5.7235    0.2283 C   0  0  0  0  0  0  0  0  0  0  0  0
    8.1101    0.3078    2.5348 H   0  0  0  0  0  0  0  0  0  0  0  0
    9.8568    0.6606    2.3143 H   0  0  0  0  0  0  0  0  0  0  0  0
    8.8270    1.7284    3.3443 H   0  0  0  0  0  0  0  0  0  0  0  0
    7.3604    2.5185   -0.4177 H   0  0  0  0  0  0  0  0  0  0  0  0
    7.1893   -0.2711    0.6434 H   0  0  0  0  0  0  0  0  0  0  0  0
    4.5332    0.3112    1.0301 H   0  0  0  0  0  0  0  0  0  0  0  0
    5.7491    0.3844    2.3025 H   0  0  0  0  0  0  0  0  0  0  0  0
    4.6334    4.0210   -0.1911 H   0  0  0  0  0  0  0  0  0  0  0  0
    4.4469    2.3149   -0.6567 H   0  0  0  0  0  0  0  0  0  0  0  0
    2.6386    5.2726    0.1467 H   0  0  0  0  0  0  0  0  0  0  0  0
   -1.1375    3.2527    0.5243 H   0  0  0  0  0  0  0  0  0  0  0  0
    2.5201    1.0087    0.4749 H   0  0  0  0  0  0  0  0  0  0  0  0
   -1.1392    0.8520    1.1409 H   0  0  0  0  0  0  0  0  0  0  0  0
   -0.6583    0.5948   -0.5687 H   0  0  0  0  0  0  0  0  0  0  0  0
    1.7096   -0.3297   -1.1326 H   0  0  0  0  0  0  0  0  0  0  0  0
    0.4479   -1.5676   -1.3024 H   0  0  0  0  0  0  0  0  0  0  0  0
    2.9640   -2.1692   -1.5499 H   0  0  0  0  0  0  0  0  0  0  0  0
    2.8054   -2.2941    1.4840 H   0  0  0  0  0  0  0  0  0  0  0  0
    6.6467   -2.1920   -0.2606 H   0  0  0  0  0  0  0  0  0  0  0  0
    5.7928   -4.3352   -1.0591 H   0  0  0  0  0  0  0  0  0  0  0  0
    6.3268   -3.2506   -2.3901 H   0  0  0  0  0  0  0  0  0  0  0  0
    4.5781   -3.5042   -2.1128 H   0  0  0  0  0  0  0  0  0  0  0  0
    4.7676   -0.9574   -2.1905 H   0  0  0  0  0  0  0  0  0  0  0  0
    0.4000   -3.4975    0.8658 H   0  0  0  0  0  0  0  0  0  0  0  0
    1.9176   -5.5022    1.6223 H   0  0  0  0  0  0  0  0  0  0  0  0
    1.2361   -7.6601    0.4527 H   0  0  0  0  0  0  0  0  0  0  0  0
    0.5905   -6.6560   -0.9027 H   0  0  0  0  0  0  0  0  0  0  0  0
    2.3402   -6.5914   -0.4582 H   0  0  0  0  0  0  0  0  0  0  0  0
   -1.9967   -6.9208    1.6845 H   0  0  0  0  0  0  0  0  0  0  0  0
   -3.3198   -5.7077    0.3330 H   0  0  0  0  0  0  0  0  0  0  0  0
   -2.5765   -4.9585   -1.8114 H   0  0  0  0  0  0  0  0  0  0  0  0
   -0.8717   -4.8408   -1.2994 H   0  0  0  0  0  0  0  0  0  0  0  0
   -1.6897   -6.4585   -1.4230 H   0  0  0  0  0  0  0  0  0  0  0  0
   -2.0406   -2.1411   -0.3368 H   0  0  0  0  0  0  0  0  0  0  0  0
   -4.4771   -1.8896    0.7519 H   0  0  0  0  0  0  0  0  0  0  0  0
   -6.1413   -3.2592   -0.6865 H   0  0  0  0  0  0  0  0  0  0  0  0
   -4.7470   -4.2080   -1.2674 H   0  0  0  0  0  0  0  0  0  0  0  0
   -5.1760   -4.2031    0.4899 H   0  0  0  0  0  0  0  0  0  0  0  0
   -4.9901    0.4342   -2.1134 H   0  0  0  0  0  0  0  0  0  0  0  0
   -5.2088    0.3342    0.7818 H   0  0  0  0  0  0  0  0  0  0  0  0
   -7.7872   -0.1265    0.8129 H   0  0  0  0  0  0  0  0  0  0  0  0
   -7.5620   -0.9014   -0.8029 H   0  0  0  0  0  0  0  0  0  0  0  0
   -6.7428   -1.5371    0.6774 H   0  0  0  0  0  0  0  0  0  0  0  0
   -7.1740    2.9591    1.1180 H   0  0  0  0  0  0  0  0  0  0  0  0
   -4.2818    3.0771    0.1759 H   0  0  0  0  0  0  0  0  0  0  0  0
   -4.4015    2.3555    2.5242 H   0  0  0  0  0  0  0  0  0  0  0  0
   -5.4130    3.7906    2.9420 H   0  0  0  0  0  0  0  0  0  0  0  0
   -3.6998    4.0101    2.4000 H   0  0  0  0  0  0  0  0  0  0  0  0
   -4.8288    6.6750   -0.6666 H   0  0  0  0  0  0  0  0  0  0  0  0
   -2.7188    4.7062   -0.0437 H   0  0  0  0  0  0  0  0  0  0  0  0
   -4.4731    5.7776   -3.2667 H   0  0  0  0  0  0  0  0  0  0  0  0
   -4.1278    4.2115   -4.0793 H   0  0  0  0  0  0  0  0  0  0  0  0
   -2.6610    7.0181   -2.0658 H   0  0  0  0  0  0  0  0  0  0  0  0
   -2.2918    7.1815   -0.3271 H   0  0  0  0  0  0  0  0  0  0  0  0
   -0.9039    5.7533    0.9367 H   0  0  0  0  0  0  0  0  0  0  0  0
    0.6213    6.5746    0.4923 H   0  0  0  0  0  0  0  0  0  0  0  0
  1  2  1  0
  2  3  2  0
  2  4  1  0
  4  5  1  0
  5  6  1  0
  6  7  1  0
  7  8  1  0
  8  9  1  0
  9 10  1  0
 10 11  2  0
 11 12  1  0
 12 13  2  0
 13 14  1  0
 13 15  1  0
 15 16  1  0
 16 17  1  0
 17 18  1  0
 18 19  1  0
 19 20  1  0
 20 21  2  0
 20 22  1  0
 22 23  1  0
 22 24  1  0
 24 25  1  0
 25 26  2  0
 18 27  1  0
 27 28  2  0
 27 29  1  0
 29 30  1  0
 30 31  1  0
 30 32  1  0
 32 33  2  0
 32 34  1  0
 34 35  1  0
 35 36  1  0
 35 37  1  0
 37 38  2  0
 37 39  1  0
 39 40  1  0
 40 41  1  0
 40 42  1  0
 42 43  2  0
 42 44  1  0
 44 45  1  0
 45 46  1  0
 45 47  1  0
 47 48  2  0
 47 49  1  0
 49 50  1  0
 50 51  1  0
 50 52  1  0
 52 53  2  0
 52 54  1  0
 54 55  1  0
 55 56  1  0
 56 57  1  0
 56 58  2  0
 55 59  1  0
 59 60  1  0
 60 61  1  0
 25  5  1  0
 14  9  2  0
 61 11  1  0
  1 62  1  0
  1 63  1  0
  1 64  1  0
  4 65  1  0
  5 66  1  1
  6 67  1  0
  6 68  1  0
  8 69  1  0
  8 70  1  0
 10 71  1  0
 12 72  1  0
 14 73  1  0
 15 74  1  0
 15 75  1  0
 17 76  1  0
 17 77  1  0
 18 78  1  6
 19 79  1  0
 22 80  1  1
 23 81  1  0
 23 82  1  0
 23 83  1  0
 24 84  1  0
 29 85  1  0
 30 86  1  1
 31 87  1  0
 31 88  1  0
 31 89  1  0
 34 90  1  0
 35 91  1  6
 36 92  1  0
 36 93  1  0
 36 94  1  0
 39 95  1  0
 40 96  1  1
 41 97  1  0
 41 98  1  0
 41 99  1  0
 44100  1  0
 45101  1  1
 46102  1  0
 46103  1  0
 46104  1  0
 49105  1  0
 50106  1  6
 51107  1  0
 51108  1  0
 51109  1  0
 54110  1  0
 55111  1  1
 57112  1  0
 57113  1  0
 59114  1  0
 59115  1  0
 61116  1  0
 61117  1  0
M  END
