
     RDKit          3D

177179  0  0  0  0  0  0  0  0999 V2000
   12.3318    3.9256    3.7189 C   0  0  0  0  0  0  0  0  0  0  0  0
   11.0649    3.5785    3.0014 C   0  0  0  0  0  0  0  0  0  0  0  0
    9.9691    4.0501    3.4126 O   0  0  0  0  0  0  0  0  0  0  0  0
   11.1131    2.7276    1.8471 N   0  0  0  0  0  0  0  0  0  0  0  0
   10.0008    1.9122    1.3343 C   0  0  2  0  0  0  0  0  0  0  0  0
    8.7919    2.7593    0.8909 C   0  0  0  0  0  0  0  0  0  0  0  0
    9.2300    3.9764   -0.4051 S   0  0  0  0  0  0  0  0  0  0  0  0
    8.4117    3.1746   -1.8412 C   0  0  0  0  0  0  0  0  0  0  0  0
    6.9491    2.8574   -1.6135 C   0  0  0  0  0  0  0  0  0  0  0  0
    6.0762    3.8137   -1.0667 C   0  0  0  0  0  0  0  0  0  0  0  0
    4.7385    3.4822   -0.7746 C   0  0  0  0  0  0  0  0  0  0  0  0
    4.2767    2.1845   -1.0621 C   0  0  0  0  0  0  0  0  0  0  0  0
    5.1190    1.2468   -1.6806 C   0  0  0  0  0  0  0  0  0  0  0  0
    6.4546    1.5846   -1.9367 C   0  0  0  0  0  0  0  0  0  0  0  0
    4.5929   -0.1081   -2.0649 C   0  0  0  0  0  0  0  0  0  0  0  0
    4.5880   -1.2276   -0.6130 S   0  0  0  0  0  0  0  0  0  0  0  0
    5.3398   -2.6616   -1.4724 C   0  0  0  0  0  0  0  0  0  0  0  0
    5.0851   -4.0032   -0.7565 C   0  0  1  0  0  0  0  0  0  0  0  0
    5.5766   -3.9685    0.6236 N   0  0  0  0  0  0  0  0  0  0  0  0
    6.5541   -4.9107    1.0891 C   0  0  0  0  0  0  0  0  0  0  0  0
    6.1780   -5.9388    1.7098 O   0  0  0  0  0  0  0  0  0  0  0  0
    8.0287   -4.6623    0.8819 C   0  0  1  0  0  0  0  0  0  0  0  0
    8.4137   -4.9657   -0.5739 C   0  0  0  0  0  0  0  0  0  0  0  0
    8.3538   -3.2718    1.2264 N   0  0  0  0  0  0  0  0  0  0  0  0
    9.6367   -2.6732    0.9920 C   0  0  0  0  0  0  0  0  0  0  0  0
   10.6768   -3.3834    0.9564 O   0  0  0  0  0  0  0  0  0  0  0  0
    9.7346   -1.1802    0.8124 C   0  0  1  0  0  0  0  0  0  0  0  0
    8.6949   -0.7447   -0.2381 C   0  0  0  0  0  0  0  0  0  0  0  0
    9.5113   -0.5171    2.1093 N   0  0  0  0  0  0  0  0  0  0  0  0
    9.5512    0.8968    2.3646 C   0  0  0  0  0  0  0  0  0  0  0  0
    9.1561    1.3090    3.4879 O   0  0  0  0  0  0  0  0  0  0  0  0
    3.6385   -4.4385   -0.7930 C   0  0  0  0  0  0  0  0  0  0  0  0
    2.7965   -3.8309   -1.5055 O   0  0  0  0  0  0  0  0  0  0  0  0
    3.2394   -5.6216   -0.0924 N   0  0  0  0  0  0  0  0  0  0  0  0
    2.8829   -6.8577   -0.7938 C   0  0  2  0  0  0  0  0  0  0  0  0
    4.0979   -7.3868   -1.5684 C   0  0  0  0  0  0  0  0  0  0  0  0
    1.6715   -6.6538   -1.6833 C   0  0  0  0  0  0  0  0  0  0  0  0
    1.8216   -6.6193   -2.9366 O   0  0  0  0  0  0  0  0  0  0  0  0
    0.3557   -6.4322   -1.1480 N   0  0  0  0  0  0  0  0  0  0  0  0
   -0.0321   -6.6605    0.2536 C   0  0  2  0  0  0  0  0  0  0  0  0
   -0.2240   -8.1572    0.5136 C   0  0  0  0  0  0  0  0  0  0  0  0
   -1.2936   -5.8949    0.5694 C   0  0  0  0  0  0  0  0  0  0  0  0
   -1.2972   -5.0464    1.4988 O   0  0  0  0  0  0  0  0  0  0  0  0
   -2.4887   -6.0834   -0.2018 N   0  0  0  0  0  0  0  0  0  0  0  0
   -3.4467   -7.1493    0.1068 C   0  0  2  0  0  0  0  0  0  0  0  0
   -3.8907   -7.8162   -1.2004 C   0  0  0  0  0  0  0  0  0  0  0  0
   -4.5806   -6.5944    0.9407 C   0  0  0  0  0  0  0  0  0  0  0  0
   -4.2876   -6.0138    2.0235 O   0  0  0  0  0  0  0  0  0  0  0  0
   -5.9684   -6.7330    0.5715 N   0  0  0  0  0  0  0  0  0  0  0  0
   -7.0521   -6.3284    1.4693 C   0  0  2  0  0  0  0  0  0  0  0  0
   -7.3504   -7.4485    2.4685 C   0  0  0  0  0  0  0  0  0  0  0  0
   -8.2882   -5.9811    0.6676 C   0  0  0  0  0  0  0  0  0  0  0  0
   -8.9754   -6.9086    0.1599 O   0  0  0  0  0  0  0  0  0  0  0  0
   -8.7042   -4.6236    0.4629 N   0  0  0  0  0  0  0  0  0  0  0  0
   -7.7800   -3.4876    0.3927 C   0  0  2  0  0  0  0  0  0  0  0  0
   -7.9935   -2.5600    1.5907 C   0  0  0  0  0  0  0  0  0  0  0  0
   -7.9377   -2.8025   -0.9409 C   0  0  0  0  0  0  0  0  0  0  0  0
   -7.5716   -3.4039   -1.9826 O   0  0  0  0  0  0  0  0  0  0  0  0
   -8.4482   -1.4689   -1.0605 N   0  0  0  0  0  0  0  0  0  0  0  0
   -9.8756   -1.1809   -0.8848 C   0  0  2  0  0  0  0  0  0  0  0  0
  -10.5571   -1.0688   -2.2526 C   0  0  0  0  0  0  0  0  0  0  0  0
  -10.0567    0.0926   -0.0941 C   0  0  0  0  0  0  0  0  0  0  0  0
  -10.9200    0.1335    0.8227 O   0  0  0  0  0  0  0  0  0  0  0  0
   -9.2101    1.2323   -0.3447 N   0  0  0  0  0  0  0  0  0  0  0  0
   -8.7738    2.2036    0.6714 C   0  0  2  0  0  0  0  0  0  0  0  0
   -8.6890    1.5917    2.0805 C   0  0  0  0  0  0  0  0  0  0  0  0
   -9.6608    3.4255    0.6572 C   0  0  0  0  0  0  0  0  0  0  0  0
  -10.9057    3.2731    0.5078 O   0  0  0  0  0  0  0  0  0  0  0  0
   -9.1472    4.7550    0.8491 N   0  0  0  0  0  0  0  0  0  0  0  0
   -7.7872    5.0745    1.3056 C   0  0  2  0  0  0  0  0  0  0  0  0
   -7.8422    6.1551    2.3943 C   0  0  0  0  0  0  0  0  0  0  0  0
   -6.9224    5.4842    0.1353 C   0  0  0  0  0  0  0  0  0  0  0  0
   -6.3461    4.5899   -0.5454 O   0  0  0  0  0  0  0  0  0  0  0  0
   -6.8068    6.8554   -0.2626 N   0  0  0  0  0  0  0  0  0  0  0  0
   -5.4865    7.4460   -0.5333 C   0  0  2  0  0  0  0  0  0  0  0  0
   -5.5672    8.9692   -0.3922 C   0  0  0  0  0  0  0  0  0  0  0  0
   -5.0143    7.0724   -1.9199 C   0  0  0  0  0  0  0  0  0  0  0  0
   -5.8586    7.0372   -2.8574 O   0  0  0  0  0  0  0  0  0  0  0  0
   -3.6377    6.7674   -2.2213 N   0  0  0  0  0  0  0  0  0  0  0  0
   -2.4837    7.3059   -1.4932 C   0  0  2  0  0  0  0  0  0  0  0  0
   -2.0982    8.6639   -2.0787 C   0  0  0  0  0  0  0  0  0  0  0  0
   -1.2921    6.3739   -1.5698 C   0  0  0  0  0  0  0  0  0  0  0  0
   -1.1869    5.5445   -2.5157 O   0  0  0  0  0  0  0  0  0  0  0  0
   -0.2294    6.4994   -0.6168 N   0  0  0  0  0  0  0  0  0  0  0  0
    1.1220    6.9038   -1.0337 C   0  0  1  0  0  0  0  0  0  0  0  0
    1.7997    7.6944    0.0700 C   0  0  0  0  0  0  0  0  0  0  0  0
    1.1492    8.8362    0.6324 N   0  0  0  0  0  0  0  0  0  0  0  0
    2.9473    7.3863    0.4850 O   0  0  0  0  0  0  0  0  0  0  0  0
    1.9466    5.6936   -1.5397 C   0  0  0  0  0  0  0  0  0  0  0  0
    2.0927    4.3588   -0.2935 S   0  0  0  0  0  0  0  0  0  0  0  0
    3.9021    4.4640    0.0164 C   0  0  0  0  0  0  0  0  0  0  0  0
   13.0488    4.3919    3.0059 H   0  0  0  0  0  0  0  0  0  0  0  0
   12.1234    4.6288    4.5531 H   0  0  0  0  0  0  0  0  0  0  0  0
   12.7814    2.9955    4.1326 H   0  0  0  0  0  0  0  0  0  0  0  0
   12.0505    2.5747    1.4069 H   0  0  0  0  0  0  0  0  0  0  0  0
   10.3868    1.3854    0.4426 H   0  0  0  0  0  0  0  0  0  0  0  0
    7.9941    2.0760    0.5478 H   0  0  0  0  0  0  0  0  0  0  0  0
    8.3551    3.3129    1.7421 H   0  0  0  0  0  0  0  0  0  0  0  0
    8.9800    2.2573   -2.0997 H   0  0  0  0  0  0  0  0  0  0  0  0
    8.4912    3.8678   -2.7091 H   0  0  0  0  0  0  0  0  0  0  0  0
    6.4574    4.7961   -0.8155 H   0  0  0  0  0  0  0  0  0  0  0  0
    3.2623    1.8982   -0.8186 H   0  0  0  0  0  0  0  0  0  0  0  0
    7.1102    0.8520   -2.3925 H   0  0  0  0  0  0  0  0  0  0  0  0
    3.5536   -0.0220   -2.4456 H   0  0  0  0  0  0  0  0  0  0  0  0
    5.2034   -0.5116   -2.8987 H   0  0  0  0  0  0  0  0  0  0  0  0
    6.4299   -2.4815   -1.5504 H   0  0  0  0  0  0  0  0  0  0  0  0
    4.9371   -2.7411   -2.5083 H   0  0  0  0  0  0  0  0  0  0  0  0
    5.6541   -4.7735   -1.3230 H   0  0  0  0  0  0  0  0  0  0  0  0
    5.0314   -3.4369    1.3367 H   0  0  0  0  0  0  0  0  0  0  0  0
    8.6125   -5.3410    1.5454 H   0  0  0  0  0  0  0  0  0  0  0  0
    8.0506   -4.1625   -1.2504 H   0  0  0  0  0  0  0  0  0  0  0  0
    7.9903   -5.9392   -0.8968 H   0  0  0  0  0  0  0  0  0  0  0  0
    9.5152   -5.0281   -0.6774 H   0  0  0  0  0  0  0  0  0  0  0  0
    7.6057   -2.6566    1.6234 H   0  0  0  0  0  0  0  0  0  0  0  0
   10.7568   -0.9299    0.4423 H   0  0  0  0  0  0  0  0  0  0  0  0
    8.6640   -1.4623   -1.0857 H   0  0  0  0  0  0  0  0  0  0  0  0
    7.6836   -0.6770    0.2124 H   0  0  0  0  0  0  0  0  0  0  0  0
    8.9407    0.2368   -0.6807 H   0  0  0  0  0  0  0  0  0  0  0  0
    9.2514   -1.1199    2.9285 H   0  0  0  0  0  0  0  0  0  0  0  0
    3.4412   -5.6851    0.9309 H   0  0  0  0  0  0  0  0  0  0  0  0
    2.6455   -7.6373   -0.0374 H   0  0  0  0  0  0  0  0  0  0  0  0
    3.8534   -8.3638   -2.0378 H   0  0  0  0  0  0  0  0  0  0  0  0
    4.4045   -6.6733   -2.3680 H   0  0  0  0  0  0  0  0  0  0  0  0
    4.9575   -7.5282   -0.8767 H   0  0  0  0  0  0  0  0  0  0  0  0
   -0.3986   -6.2178   -1.8416 H   0  0  0  0  0  0  0  0  0  0  0  0
    0.7730   -6.2873    0.9226 H   0  0  0  0  0  0  0  0  0  0  0  0
    0.7396   -8.6971    0.4647 H   0  0  0  0  0  0  0  0  0  0  0  0
   -0.9004   -8.6037   -0.2450 H   0  0  0  0  0  0  0  0  0  0  0  0
   -0.6468   -8.3163    1.5285 H   0  0  0  0  0  0  0  0  0  0  0  0
   -2.8139   -5.2842   -0.7941 H   0  0  0  0  0  0  0  0  0  0  0  0
   -2.9537   -7.9337    0.7183 H   0  0  0  0  0  0  0  0  0  0  0  0
   -3.0031   -8.1677   -1.7671 H   0  0  0  0  0  0  0  0  0  0  0  0
   -4.4457   -7.0979   -1.8391 H   0  0  0  0  0  0  0  0  0  0  0  0
   -4.5311   -8.6999   -0.9870 H   0  0  0  0  0  0  0  0  0  0  0  0
   -6.2292   -7.2557   -0.2920 H   0  0  0  0  0  0  0  0  0  0  0  0
   -6.7441   -5.4397    2.0579 H   0  0  0  0  0  0  0  0  0  0  0  0
   -6.4616   -7.6203    3.1162 H   0  0  0  0  0  0  0  0  0  0  0  0
   -8.2040   -7.1690    3.1242 H   0  0  0  0  0  0  0  0  0  0  0  0
   -7.5836   -8.3972    1.9406 H   0  0  0  0  0  0  0  0  0  0  0  0
   -9.7166   -4.4402    0.2891 H   0  0  0  0  0  0  0  0  0  0  0  0
   -6.7255   -3.8391    0.4365 H   0  0  0  0  0  0  0  0  0  0  0  0
   -7.3016   -1.6913    1.5227 H   0  0  0  0  0  0  0  0  0  0  0  0
   -7.7724   -3.1029    2.5327 H   0  0  0  0  0  0  0  0  0  0  0  0
   -9.0394   -2.1948    1.6359 H   0  0  0  0  0  0  0  0  0  0  0  0
   -7.8759   -0.8004   -1.6254 H   0  0  0  0  0  0  0  0  0  0  0  0
  -10.3639   -2.0124   -0.3353 H   0  0  0  0  0  0  0  0  0  0  0  0
  -10.3444   -1.9798   -2.8491 H   0  0  0  0  0  0  0  0  0  0  0  0
  -10.1832   -0.1847   -2.8080 H   0  0  0  0  0  0  0  0  0  0  0  0
  -11.6597   -0.9812   -2.1285 H   0  0  0  0  0  0  0  0  0  0  0  0
   -8.7684    1.3158   -1.2889 H   0  0  0  0  0  0  0  0  0  0  0  0
   -7.7444    2.5049    0.3897 H   0  0  0  0  0  0  0  0  0  0  0  0
   -8.1625    0.6166    2.0464 H   0  0  0  0  0  0  0  0  0  0  0  0
   -9.6992    1.4475    2.5257 H   0  0  0  0  0  0  0  0  0  0  0  0
   -8.1227    2.2611    2.7627 H   0  0  0  0  0  0  0  0  0  0  0  0
   -9.7832    5.5552    0.6213 H   0  0  0  0  0  0  0  0  0  0  0  0
   -7.3141    4.1942    1.7862 H   0  0  0  0  0  0  0  0  0  0  0  0
   -6.8151    6.4434    2.7062 H   0  0  0  0  0  0  0  0  0  0  0  0
   -8.3779    7.0590    2.0397 H   0  0  0  0  0  0  0  0  0  0  0  0
   -8.3837    5.7662    3.2819 H   0  0  0  0  0  0  0  0  0  0  0  0
   -7.6206    7.4804   -0.0794 H   0  0  0  0  0  0  0  0  0  0  0  0
   -4.7816    7.0694    0.2340 H   0  0  0  0  0  0  0  0  0  0  0  0
   -5.9940    9.2319    0.6021 H   0  0  0  0  0  0  0  0  0  0  0  0
   -6.2217    9.4031   -1.1791 H   0  0  0  0  0  0  0  0  0  0  0  0
   -4.5602    9.4242   -0.4585 H   0  0  0  0  0  0  0  0  0  0  0  0
   -3.4623    6.4185   -3.1901 H   0  0  0  0  0  0  0  0  0  0  0  0
   -2.7338    7.4388   -0.4198 H   0  0  0  0  0  0  0  0  0  0  0  0
   -1.3578    9.1696   -1.4276 H   0  0  0  0  0  0  0  0  0  0  0  0
   -1.6578    8.5397   -3.0898 H   0  0  0  0  0  0  0  0  0  0  0  0
   -2.9882    9.3196   -2.1673 H   0  0  0  0  0  0  0  0  0  0  0  0
   -0.5033    6.6204    0.3883 H   0  0  0  0  0  0  0  0  0  0  0  0
    1.0236    7.6063   -1.8924 H   0  0  0  0  0  0  0  0  0  0  0  0
    0.2056    9.1355    0.3022 H   0  0  0  0  0  0  0  0  0  0  0  0
    1.5826    9.3482    1.4331 H   0  0  0  0  0  0  0  0  0  0  0  0
    2.9364    6.0340   -1.9054 H   0  0  0  0  0  0  0  0  0  0  0  0
    1.4344    5.2612   -2.4213 H   0  0  0  0  0  0  0  0  0  0  0  0
    4.2701    5.4919   -0.1735 H   0  0  0  0  0  0  0  0  0  0  0  0
    4.0645    4.2622    1.0975 H   0  0  0  0  0  0  0  0  0  0  0  0
  1  2  1  0
  2  3  2  0
  2  4  1  0
  4  5  1  0
  5  6  1  0
  6  7  1  0
  7  8  1  0
  8  9  1  0
  9 10  2  0
 10 11  1  0
 11 12  2  0
 12 13  1  0
 13 14  2  0
 13 15  1  0
 15 16  1  0
 16 17  1  0
 17 18  1  0
 18 19  1  0
 19 20  1  0
 20 21  2  0
 20 22  1  0
 22 23  1  0
 22 24  1  0
 24 25  1  0
 25 26  2  0
 25 27  1  0
 27 28  1  0
 27 29  1  0
 29 30  1  0
 30 31  2  0
 18 32  1  0
 32 33  2  0
 32 34  1  0
 34 35  1  0
 35 36  1  0
 35 37  1  0
 37 38  2  0
 37 39  1  0
 39 40  1  0
 40 41  1  0
 40 42  1  0
 42 43  2  0
 42 44  1  0
 44 45  1  0
 45 46  1  0
 45 47  1  0
 47 48  2  0
 47 49  1  0
 49 50  1  0
 50 51  1  0
 50 52  1  0
 52 53  2  0
 52 54  1  0
 54 55  1  0
 55 56  1  0
 55 57  1  0
 57 58  2  0
 57 59  1  0
 59 60  1  0
 60 61  1  0
 60 62  1  0
 62 63  2  0
 62 64  1  0
 64 65  1  0
 65 66  1  0
 65 67  1  0
 67 68  2  0
 67 69  1  0
 69 70  1  0
 70 71  1  0
 70 72  1  0
 72 73  2  0
 72 74  1  0
 74 75  1  0
 75 76  1  0
 75 77  1  0
 77 78  2  0
 77 79  1  0
 79 80  1  0
 80 81  1  0
 80 82  1  0
 82 83  2  0
 82 84  1  0
 84 85  1  0
 85 86  1  0
 86 87  1  0
 86 88  2  0
 85 89  1  0
 89 90  1  0
 90 91  1  0
 30  5  1  0
 14  9  1  0
 91 11  1  0
  1 92  1  0
  1 93  1  0
  1 94  1  0
  4 95  1  0
  5 96  1  6
  6 97  1  0
  6 98  1  0
  8 99  1  0
  8100  1  0
 10101  1  0
 12102  1  0
 14103  1  0
 15104  1  0
 15105  1  0
 17106  1  0
 17107  1  0
 18108  1  6
 19109  1  0
 22110  1  1
 23111  1  0
 23112  1  0
 23113  1  0
 24114  1  0
 27115  1  6
 28116  1  0
 28117  1  0
 28118  1  0
 29119  1  0
 34120  1  0
 35121  1  1
 36122  1  0
 36123  1  0
 36124  1  0
 39125  1  0
 40126  1  1
 41127  1  0
 41128  1  0
 41129  1  0
 44130  1  0
 45131  1  1
 46132  1  0
 46133  1  0
 46134  1  0
 49135  1  0
 50136  1  1
 51137  1  0
 51138  1  0
 51139  1  0
 54140  1  0
 55141  1  6
 56142  1  0
 56143  1  0
 56144  1  0
 59145  1  0
 60146  1  1
 61147  1  0
 61148  1  0
 61149  1  0
 64150  1  0
 65151  1  6
 66152  1  0
 66153  1  0
 66154  1  0
 69155  1  0
 70156  1  1
 71157  1  0
 71158  1  0
 71159  1  0
 74160  1  0
 75161  1  1
 76162  1  0
 76163  1  0
 76164  1  0
 79165  1  0
 80166  1  1
 81167  1  0
 81168  1  0
 81169  1  0
 84170  1  0
 85171  1  6
 87172  1  0
 87173  1  0
 89174  1  0
 89175  1  0
 91176  1  0
 91177  1  0
M  END
