
     RDKit          3D

177179  0  0  0  0  0  0  0  0999 V2000
  -11.7888   -4.7441   -0.0978 C   0  0  0  0  0  0  0  0  0  0  0  0
  -11.2066   -3.4907   -0.6652 C   0  0  0  0  0  0  0  0  0  0  0  0
  -11.6824   -3.0237   -1.7384 O   0  0  0  0  0  0  0  0  0  0  0  0
  -10.1496   -2.8042    0.0204 N   0  0  0  0  0  0  0  0  0  0  0  0
   -8.9106   -2.3437   -0.6206 C   0  0  1  0  0  0  0  0  0  0  0  0
   -8.1539   -3.5150   -1.2682 C   0  0  0  0  0  0  0  0  0  0  0  0
   -7.8758   -4.9217   -0.1206 S   0  0  0  0  0  0  0  0  0  0  0  0
   -6.8279   -4.1016    1.1452 C   0  0  0  0  0  0  0  0  0  0  0  0
   -5.6675   -3.3295    0.5725 C   0  0  0  0  0  0  0  0  0  0  0  0
   -4.8235   -3.9194   -0.3782 C   0  0  0  0  0  0  0  0  0  0  0  0
   -3.7321   -3.2118   -0.8977 C   0  0  0  0  0  0  0  0  0  0  0  0
   -3.4555   -1.9214   -0.4219 C   0  0  0  0  0  0  0  0  0  0  0  0
   -4.2638   -1.3310    0.5637 C   0  0  0  0  0  0  0  0  0  0  0  0
   -5.3616   -2.0502    1.0631 C   0  0  0  0  0  0  0  0  0  0  0  0
   -3.8377   -0.0240    1.1845 C   0  0  0  0  0  0  0  0  0  0  0  0
   -5.2534    1.1109    1.4292 S   0  0  0  0  0  0  0  0  0  0  0  0
   -4.4004    2.6702    0.9701 C   0  0  0  0  0  0  0  0  0  0  0  0
   -4.5307    2.9270   -0.5408 C   0  0  1  0  0  0  0  0  0  0  0  0
   -5.9472    2.9968   -0.9210 N   0  0  0  0  0  0  0  0  0  0  0  0
   -6.7834    4.1190   -0.6125 C   0  0  0  0  0  0  0  0  0  0  0  0
   -6.5476    5.2368   -1.1468 O   0  0  0  0  0  0  0  0  0  0  0  0
   -8.0061    3.9363    0.2505 C   0  0  1  0  0  0  0  0  0  0  0  0
   -8.3123    5.1995    1.0665 C   0  0  0  0  0  0  0  0  0  0  0  0
   -9.1558    3.6009   -0.5967 N   0  0  0  0  0  0  0  0  0  0  0  0
   -9.5222    2.2765   -1.0251 C   0  0  0  0  0  0  0  0  0  0  0  0
  -10.3683    2.1604   -1.9553 O   0  0  0  0  0  0  0  0  0  0  0  0
   -8.9904    1.0119   -0.3830 C   0  0  1  0  0  0  0  0  0  0  0  0
  -10.0417    0.4629    0.5950 C   0  0  0  0  0  0  0  0  0  0  0  0
   -8.6178    0.0644   -1.4431 N   0  0  0  0  0  0  0  0  0  0  0  0
   -9.1613   -1.2477   -1.6321 C   0  0  0  0  0  0  0  0  0  0  0  0
   -9.7255   -1.5153   -2.7287 O   0  0  0  0  0  0  0  0  0  0  0  0
   -3.7648    4.1245   -1.0776 C   0  0  0  0  0  0  0  0  0  0  0  0
   -3.9557    4.4489   -2.2811 O   0  0  0  0  0  0  0  0  0  0  0  0
   -2.7033    4.7828   -0.3626 N   0  0  0  0  0  0  0  0  0  0  0  0
   -2.8529    5.5382    0.8936 C   0  0  2  0  0  0  0  0  0  0  0  0
   -4.1462    6.3675    0.8930 C   0  0  0  0  0  0  0  0  0  0  0  0
   -1.6139    6.3934    1.1040 C   0  0  0  0  0  0  0  0  0  0  0  0
   -0.5149    5.8174    1.3107 O   0  0  0  0  0  0  0  0  0  0  0  0
   -1.6402    7.8267    0.9584 N   0  0  0  0  0  0  0  0  0  0  0  0
   -0.5031    8.5560    0.3848 C   0  0  2  0  0  0  0  0  0  0  0  0
   -0.8105   10.0616    0.3563 C   0  0  0  0  0  0  0  0  0  0  0  0
   -0.2437    8.0574   -1.0228 C   0  0  0  0  0  0  0  0  0  0  0  0
   -1.1748    8.1355   -1.8661 O   0  0  0  0  0  0  0  0  0  0  0  0
    0.9916    7.4368   -1.4182 N   0  0  0  0  0  0  0  0  0  0  0  0
    2.2827    7.6108   -0.7351 C   0  0  2  0  0  0  0  0  0  0  0  0
    2.7798    9.0504   -0.9047 C   0  0  0  0  0  0  0  0  0  0  0  0
    3.2968    6.6420   -1.2859 C   0  0  0  0  0  0  0  0  0  0  0  0
    3.6525    6.7189   -2.4926 O   0  0  0  0  0  0  0  0  0  0  0  0
    3.8195    5.5938   -0.4592 N   0  0  0  0  0  0  0  0  0  0  0  0
    5.0428    5.7165    0.3427 C   0  0  2  0  0  0  0  0  0  0  0  0
    4.8600    6.7324    1.4702 C   0  0  0  0  0  0  0  0  0  0  0  0
    6.2447    6.0804   -0.5049 C   0  0  0  0  0  0  0  0  0  0  0  0
    6.1859    7.0813   -1.2675 O   0  0  0  0  0  0  0  0  0  0  0  0
    7.4627    5.3235   -0.4577 N   0  0  0  0  0  0  0  0  0  0  0  0
    7.9331    4.6147    0.7339 C   0  0  2  0  0  0  0  0  0  0  0  0
    9.3799    5.0068    1.0463 C   0  0  0  0  0  0  0  0  0  0  0  0
    7.8317    3.1289    0.5221 C   0  0  0  0  0  0  0  0  0  0  0  0
    7.1480    2.4275    1.3166 O   0  0  0  0  0  0  0  0  0  0  0  0
    8.5417    2.5020   -0.5518 N   0  0  0  0  0  0  0  0  0  0  0  0
    9.6539    1.5907   -0.2665 C   0  0  2  0  0  0  0  0  0  0  0  0
   10.5944    1.4861   -1.4765 C   0  0  0  0  0  0  0  0  0  0  0  0
    9.1442    0.2456    0.1869 C   0  0  0  0  0  0  0  0  0  0  0  0
    8.8382    0.0969    1.4023 O   0  0  0  0  0  0  0  0  0  0  0  0
    9.0069   -0.8603   -0.7154 N   0  0  0  0  0  0  0  0  0  0  0  0
    9.1438   -2.2428   -0.2313 C   0  0  2  0  0  0  0  0  0  0  0  0
   10.6140   -2.5310    0.0902 C   0  0  0  0  0  0  0  0  0  0  0  0
    8.6397   -3.2450   -1.2473 C   0  0  0  0  0  0  0  0  0  0  0  0
    8.8950   -3.0657   -2.4696 O   0  0  0  0  0  0  0  0  0  0  0  0
    7.8922   -4.4127   -0.8643 N   0  0  0  0  0  0  0  0  0  0  0  0
    8.0085   -5.0879    0.4346 C   0  0  2  0  0  0  0  0  0  0  0  0
    8.8726   -6.3411    0.2912 C   0  0  0  0  0  0  0  0  0  0  0  0
    6.6373   -5.4254    0.9537 C   0  0  0  0  0  0  0  0  0  0  0  0
    6.2328   -4.9161    2.0343 O   0  0  0  0  0  0  0  0  0  0  0  0
    5.7609   -6.2717    0.2038 N   0  0  0  0  0  0  0  0  0  0  0  0
    5.6644   -7.7051    0.4825 C   0  0  2  0  0  0  0  0  0  0  0  0
    5.4468   -8.4669   -0.8218 C   0  0  0  0  0  0  0  0  0  0  0  0
    4.6214   -7.9664    1.5505 C   0  0  0  0  0  0  0  0  0  0  0  0
    4.8324   -7.5071    2.7050 O   0  0  0  0  0  0  0  0  0  0  0  0
    3.4592   -8.7940    1.3504 N   0  0  0  0  0  0  0  0  0  0  0  0
    2.2447   -8.4556    0.5775 C   0  0  2  0  0  0  0  0  0  0  0  0
    2.2098   -9.2620   -0.7342 C   0  0  0  0  0  0  0  0  0  0  0  0
    2.0306   -6.9661    0.3506 C   0  0  0  0  0  0  0  0  0  0  0  0
    2.7625   -6.1158    0.9200 O   0  0  0  0  0  0  0  0  0  0  0  0
    0.9745   -6.4774   -0.4907 N   0  0  0  0  0  0  0  0  0  0  0  0
   -0.3748   -7.0584   -0.5384 C   0  0  1  0  0  0  0  0  0  0  0  0
   -0.9388   -7.2413    0.8515 C   0  0  0  0  0  0  0  0  0  0  0  0
   -1.4377   -8.5118    1.2667 N   0  0  0  0  0  0  0  0  0  0  0  0
   -0.9743   -6.2700    1.6517 O   0  0  0  0  0  0  0  0  0  0  0  0
   -1.3226   -6.1940   -1.3964 C   0  0  0  0  0  0  0  0  0  0  0  0
   -1.3411   -4.4462   -0.8392 S   0  0  0  0  0  0  0  0  0  0  0  0
   -2.7719   -3.8961   -1.8256 C   0  0  0  0  0  0  0  0  0  0  0  0
  -11.2466   -5.0470    0.8228 H   0  0  0  0  0  0  0  0  0  0  0  0
  -12.8582   -4.5852    0.1440 H   0  0  0  0  0  0  0  0  0  0  0  0
  -11.7000   -5.5600   -0.8489 H   0  0  0  0  0  0  0  0  0  0  0  0
  -10.1441   -2.8705    1.0650 H   0  0  0  0  0  0  0  0  0  0  0  0
   -8.2511   -1.9192    0.1630 H   0  0  0  0  0  0  0  0  0  0  0  0
   -7.1865   -3.1625   -1.6832 H   0  0  0  0  0  0  0  0  0  0  0  0
   -8.7453   -3.9122   -2.1211 H   0  0  0  0  0  0  0  0  0  0  0  0
   -6.4181   -4.8990    1.8036 H   0  0  0  0  0  0  0  0  0  0  0  0
   -7.4688   -3.4577    1.7819 H   0  0  0  0  0  0  0  0  0  0  0  0
   -5.0138   -4.9345   -0.7134 H   0  0  0  0  0  0  0  0  0  0  0  0
   -2.5706   -1.4048   -0.7809 H   0  0  0  0  0  0  0  0  0  0  0  0
   -5.9605   -1.6256    1.8585 H   0  0  0  0  0  0  0  0  0  0  0  0
   -3.3850   -0.2345    2.1796 H   0  0  0  0  0  0  0  0  0  0  0  0
   -3.0588    0.4541    0.5545 H   0  0  0  0  0  0  0  0  0  0  0  0
   -3.3330    2.6170    1.2713 H   0  0  0  0  0  0  0  0  0  0  0  0
   -4.8842    3.4909    1.5355 H   0  0  0  0  0  0  0  0  0  0  0  0
   -4.0959    2.0437   -1.0571 H   0  0  0  0  0  0  0  0  0  0  0  0
   -6.4168    2.0968   -1.1484 H   0  0  0  0  0  0  0  0  0  0  0  0
   -7.8116    3.1401    0.9965 H   0  0  0  0  0  0  0  0  0  0  0  0
   -9.2019    5.0249    1.7131 H   0  0  0  0  0  0  0  0  0  0  0  0
   -8.5297    6.0605    0.3967 H   0  0  0  0  0  0  0  0  0  0  0  0
   -7.4525    5.4528    1.7186 H   0  0  0  0  0  0  0  0  0  0  0  0
   -9.6383    4.3930   -1.0779 H   0  0  0  0  0  0  0  0  0  0  0  0
   -8.0764    1.2084    0.2015 H   0  0  0  0  0  0  0  0  0  0  0  0
  -10.3653    1.2685    1.2925 H   0  0  0  0  0  0  0  0  0  0  0  0
  -10.9350    0.0900    0.0475 H   0  0  0  0  0  0  0  0  0  0  0  0
   -9.6080   -0.3474    1.2157 H   0  0  0  0  0  0  0  0  0  0  0  0
   -8.0300    0.4363   -2.2235 H   0  0  0  0  0  0  0  0  0  0  0  0
   -1.8437    4.9519   -0.9320 H   0  0  0  0  0  0  0  0  0  0  0  0
   -2.9042    4.8337    1.7482 H   0  0  0  0  0  0  0  0  0  0  0  0
   -4.2221    6.9701    1.8237 H   0  0  0  0  0  0  0  0  0  0  0  0
   -5.0293    5.7039    0.8794 H   0  0  0  0  0  0  0  0  0  0  0  0
   -4.1864    7.0325    0.0037 H   0  0  0  0  0  0  0  0  0  0  0  0
   -2.5241    8.3498    1.1474 H   0  0  0  0  0  0  0  0  0  0  0  0
    0.3738    8.4103    1.0426 H   0  0  0  0  0  0  0  0  0  0  0  0
   -1.7448   10.2589   -0.2145 H   0  0  0  0  0  0  0  0  0  0  0  0
    0.0181   10.6267   -0.1218 H   0  0  0  0  0  0  0  0  0  0  0  0
   -0.9409   10.4414    1.3921 H   0  0  0  0  0  0  0  0  0  0  0  0
    0.9740    6.9037   -2.3179 H   0  0  0  0  0  0  0  0  0  0  0  0
    2.1655    7.3846    0.3455 H   0  0  0  0  0  0  0  0  0  0  0  0
    3.8206    9.1571   -0.5365 H   0  0  0  0  0  0  0  0  0  0  0  0
    2.1468    9.7473   -0.3292 H   0  0  0  0  0  0  0  0  0  0  0  0
    2.7562    9.3444   -1.9761 H   0  0  0  0  0  0  0  0  0  0  0  0
    3.2293    4.7421   -0.3340 H   0  0  0  0  0  0  0  0  0  0  0  0
    5.2200    4.7288    0.8181 H   0  0  0  0  0  0  0  0  0  0  0  0
    4.7324    7.7571    1.0673 H   0  0  0  0  0  0  0  0  0  0  0  0
    3.9683    6.4685    2.0771 H   0  0  0  0  0  0  0  0  0  0  0  0
    5.7492    6.7318    2.1339 H   0  0  0  0  0  0  0  0  0  0  0  0
    8.1191    5.4199   -1.2651 H   0  0  0  0  0  0  0  0  0  0  0  0
    7.3287    4.8980    1.6231 H   0  0  0  0  0  0  0  0  0  0  0  0
   10.0534    4.7318    0.2085 H   0  0  0  0  0  0  0  0  0  0  0  0
    9.7243    4.4924    1.9704 H   0  0  0  0  0  0  0  0  0  0  0  0
    9.4439    6.1031    1.2147 H   0  0  0  0  0  0  0  0  0  0  0  0
    8.4791    2.9477   -1.4932 H   0  0  0  0  0  0  0  0  0  0  0  0
   10.2660    2.0125    0.5631 H   0  0  0  0  0  0  0  0  0  0  0  0
   10.0354    1.2112   -2.3954 H   0  0  0  0  0  0  0  0  0  0  0  0
   11.0824    2.4672   -1.6500 H   0  0  0  0  0  0  0  0  0  0  0  0
   11.3892    0.7318   -1.2877 H   0  0  0  0  0  0  0  0  0  0  0  0
    8.8528   -0.6707   -1.7326 H   0  0  0  0  0  0  0  0  0  0  0  0
    8.5389   -2.3375    0.6947 H   0  0  0  0  0  0  0  0  0  0  0  0
   10.9943   -1.8097    0.8408 H   0  0  0  0  0  0  0  0  0  0  0  0
   10.7262   -3.5541    0.5063 H   0  0  0  0  0  0  0  0  0  0  0  0
   11.2287   -2.4480   -0.8275 H   0  0  0  0  0  0  0  0  0  0  0  0
    7.4149   -4.9406   -1.6321 H   0  0  0  0  0  0  0  0  0  0  0  0
    8.5067   -4.4376    1.1794 H   0  0  0  0  0  0  0  0  0  0  0  0
    9.8995   -6.0511   -0.0146 H   0  0  0  0  0  0  0  0  0  0  0  0
    8.4537   -7.0233   -0.4743 H   0  0  0  0  0  0  0  0  0  0  0  0
    8.9328   -6.8761    1.2658 H   0  0  0  0  0  0  0  0  0  0  0  0
    5.0068   -5.8095   -0.3536 H   0  0  0  0  0  0  0  0  0  0  0  0
    6.6338   -8.0621    0.8948 H   0  0  0  0  0  0  0  0  0  0  0  0
    5.2882   -9.5474   -0.6251 H   0  0  0  0  0  0  0  0  0  0  0  0
    6.3461   -8.3614   -1.4710 H   0  0  0  0  0  0  0  0  0  0  0  0
    4.5896   -8.0430   -1.3779 H   0  0  0  0  0  0  0  0  0  0  0  0
    3.3223   -9.5313    2.0754 H   0  0  0  0  0  0  0  0  0  0  0  0
    1.3780   -8.8002    1.1805 H   0  0  0  0  0  0  0  0  0  0  0  0
    1.2095   -9.7166   -0.8779 H   0  0  0  0  0  0  0  0  0  0  0  0
    2.9375  -10.1003   -0.7095 H   0  0  0  0  0  0  0  0  0  0  0  0
    2.4249   -8.6271   -1.6196 H   0  0  0  0  0  0  0  0  0  0  0  0
    1.1610   -5.5796   -0.9923 H   0  0  0  0  0  0  0  0  0  0  0  0
   -0.3218   -8.0459   -1.0371 H   0  0  0  0  0  0  0  0  0  0  0  0
   -1.4347   -9.3294    0.6170 H   0  0  0  0  0  0  0  0  0  0  0  0
   -1.7971   -8.6466    2.2389 H   0  0  0  0  0  0  0  0  0  0  0  0
   -0.9868   -6.2183   -2.4549 H   0  0  0  0  0  0  0  0  0  0  0  0
   -2.3493   -6.6221   -1.3533 H   0  0  0  0  0  0  0  0  0  0  0  0
   -2.4253   -3.1874   -2.6044 H   0  0  0  0  0  0  0  0  0  0  0  0
   -3.2727   -4.7409   -2.3458 H   0  0  0  0  0  0  0  0  0  0  0  0
  1  2  1  0
  2  3  2  0
  2  4  1  0
  4  5  1  0
  5  6  1  0
  6  7  1  0
  7  8  1  0
  8  9  1  0
  9 10  2  0
 10 11  1  0
 11 12  2  0
 12 13  1  0
 13 14  2  0
 13 15  1  0
 15 16  1  0
 16 17  1  0
 17 18  1  0
 18 19  1  0
 19 20  1  0
 20 21  2  0
 20 22  1  0
 22 23  1  0
 22 24  1  0
 24 25  1  0
 25 26  2  0
 25 27  1  0
 27 28  1  0
 27 29  1  0
 29 30  1  0
 30 31  2  0
 18 32  1  0
 32 33  2  0
 32 34  1  0
 34 35  1  0
 35 36  1  0
 35 37  1  0
 37 38  2  0
 37 39  1  0
 39 40  1  0
 40 41  1  0
 40 42  1  0
 42 43  2  0
 42 44  1  0
 44 45  1  0
 45 46  1  0
 45 47  1  0
 47 48  2  0
 47 49  1  0
 49 50  1  0
 50 51  1  0
 50 52  1  0
 52 53  2  0
 52 54  1  0
 54 55  1  0
 55 56  1  0
 55 57  1  0
 57 58  2  0
 57 59  1  0
 59 60  1  0
 60 61  1  0
 60 62  1  0
 62 63  2  0
 62 64  1  0
 64 65  1  0
 65 66  1  0
 65 67  1  0
 67 68  2  0
 67 69  1  0
 69 70  1  0
 70 71  1  0
 70 72  1  0
 72 73  2  0
 72 74  1  0
 74 75  1  0
 75 76  1  0
 75 77  1  0
 77 78  2  0
 77 79  1  0
 79 80  1  0
 80 81  1  0
 80 82  1  0
 82 83  2  0
 82 84  1  0
 84 85  1  0
 85 86  1  0
 86 87  1  0
 86 88  2  0
 85 89  1  0
 89 90  1  0
 90 91  1  0
 30  5  1  0
 14  9  1  0
 91 11  1  0
  1 92  1  0
  1 93  1  0
  1 94  1  0
  4 95  1  0
  5 96  1  1
  6 97  1  0
  6 98  1  0
  8 99  1  0
  8100  1  0
 10101  1  0
 12102  1  0
 14103  1  0
 15104  1  0
 15105  1  0
 17106  1  0
 17107  1  0
 18108  1  6
 19109  1  0
 22110  1  1
 23111  1  0
 23112  1  0
 23113  1  0
 24114  1  0
 27115  1  1
 28116  1  0
 28117  1  0
 28118  1  0
 29119  1  0
 34120  1  0
 35121  1  1
 36122  1  0
 36123  1  0
 36124  1  0
 39125  1  0
 40126  1  1
 41127  1  0
 41128  1  0
 41129  1  0
 44130  1  0
 45131  1  1
 46132  1  0
 46133  1  0
 46134  1  0
 49135  1  0
 50136  1  1
 51137  1  0
 51138  1  0
 51139  1  0
 54140  1  0
 55141  1  1
 56142  1  0
 56143  1  0
 56144  1  0
 59145  1  0
 60146  1  1
 61147  1  0
 61148  1  0
 61149  1  0
 64150  1  0
 65151  1  1
 66152  1  0
 66153  1  0
 66154  1  0
 69155  1  0
 70156  1  1
 71157  1  0
 71158  1  0
 71159  1  0
 74160  1  0
 75161  1  1
 76162  1  0
 76163  1  0
 76164  1  0
 79165  1  0
 80166  1  1
 81167  1  0
 81168  1  0
 81169  1  0
 84170  1  0
 85171  1  6
 87172  1  0
 87173  1  0
 89174  1  0
 89175  1  0
 91176  1  0
 91177  1  0
M  END
