
     RDKit          3D

177179  0  0  0  0  0  0  0  0999 V2000
  -10.2815   -4.1223    4.1751 C   0  0  0  0  0  0  0  0  0  0  0  0
  -10.5650   -3.9351    2.7196 C   0  0  0  0  0  0  0  0  0  0  0  0
  -11.5094   -4.5715    2.1846 O   0  0  0  0  0  0  0  0  0  0  0  0
   -9.7718   -3.0193    1.9471 N   0  0  0  0  0  0  0  0  0  0  0  0
  -10.0244   -2.7577    0.5265 C   0  0  2  0  0  0  0  0  0  0  0  0
   -8.6886   -2.5656   -0.2141 C   0  0  0  0  0  0  0  0  0  0  0  0
   -7.7362   -4.1323   -0.2272 S   0  0  0  0  0  0  0  0  0  0  0  0
   -6.3553   -3.6161    0.8569 C   0  0  0  0  0  0  0  0  0  0  0  0
   -5.1575   -3.2441    0.0216 C   0  0  0  0  0  0  0  0  0  0  0  0
   -5.1030   -2.0018   -0.6249 C   0  0  0  0  0  0  0  0  0  0  0  0
   -3.9890   -1.6501   -1.4044 C   0  0  0  0  0  0  0  0  0  0  0  0
   -2.9387   -2.5707   -1.5636 C   0  0  0  0  0  0  0  0  0  0  0  0
   -2.9826   -3.8196   -0.9257 C   0  0  0  0  0  0  0  0  0  0  0  0
   -4.0960   -4.1518   -0.1375 C   0  0  0  0  0  0  0  0  0  0  0  0
   -1.9128   -4.8407   -1.1922 C   0  0  0  0  0  0  0  0  0  0  0  0
   -2.4483   -5.8935   -2.5828 S   0  0  0  0  0  0  0  0  0  0  0  0
   -0.8886   -6.8338   -2.7907 C   0  0  0  0  0  0  0  0  0  0  0  0
   -0.5928   -7.8231   -1.6453 C   0  0  1  0  0  0  0  0  0  0  0  0
   -1.8178   -8.6134   -1.2520 C   0  0  0  0  0  0  0  0  0  0  0  0
   -2.4438   -8.4006    0.0096 N   0  0  0  0  0  0  0  0  0  0  0  0
   -2.3084   -9.4495   -2.0570 O   0  0  0  0  0  0  0  0  0  0  0  0
    0.4631   -8.7518   -2.0708 N   0  0  0  0  0  0  0  0  0  0  0  0
    1.7702   -8.8318   -1.4845 C   0  0  0  0  0  0  0  0  0  0  0  0
    2.3728   -9.9399   -1.4969 O   0  0  0  0  0  0  0  0  0  0  0  0
    2.4497   -7.6329   -0.8638 C   0  0  1  0  0  0  0  0  0  0  0  0
    2.3411   -7.7200    0.6646 C   0  0  0  0  0  0  0  0  0  0  0  0
    3.8535   -7.5814   -1.2985 N   0  0  0  0  0  0  0  0  0  0  0  0
    4.7422   -6.5501   -0.8499 C   0  0  0  0  0  0  0  0  0  0  0  0
    4.9087   -5.5299   -1.5668 O   0  0  0  0  0  0  0  0  0  0  0  0
    5.5324   -6.7295    0.4276 C   0  0  1  0  0  0  0  0  0  0  0  0
    7.0253   -6.9935    0.1848 C   0  0  0  0  0  0  0  0  0  0  0  0
    5.2969   -5.6280    1.3746 N   0  0  0  0  0  0  0  0  0  0  0  0
    5.4882   -4.2205    1.1412 C   0  0  0  0  0  0  0  0  0  0  0  0
    4.7770   -3.4067    1.7953 O   0  0  0  0  0  0  0  0  0  0  0  0
    6.6044   -3.6766    0.2755 C   0  0  1  0  0  0  0  0  0  0  0  0
    6.1912   -2.3761   -0.4231 C   0  0  0  0  0  0  0  0  0  0  0  0
    7.7802   -3.4336    1.1036 N   0  0  0  0  0  0  0  0  0  0  0  0
    9.0812   -3.3334    0.5090 C   0  0  0  0  0  0  0  0  0  0  0  0
    9.5754   -4.3236   -0.1068 O   0  0  0  0  0  0  0  0  0  0  0  0
    9.8701   -2.0598    0.6460 C   0  0  1  0  0  0  0  0  0  0  0  0
   11.1489   -2.3002    1.4514 C   0  0  0  0  0  0  0  0  0  0  0  0
   10.1999   -1.5274   -0.6827 N   0  0  0  0  0  0  0  0  0  0  0  0
   10.2426   -0.1279   -1.0122 C   0  0  0  0  0  0  0  0  0  0  0  0
   10.1862    0.2055   -2.2295 O   0  0  0  0  0  0  0  0  0  0  0  0
   10.4330    0.9536    0.0281 C   0  0  1  0  0  0  0  0  0  0  0  0
   11.8696    1.4736   -0.0055 C   0  0  0  0  0  0  0  0  0  0  0  0
    9.4984    2.0590   -0.2193 N   0  0  0  0  0  0  0  0  0  0  0  0
    8.3835    2.3072    0.6512 C   0  0  0  0  0  0  0  0  0  0  0  0
    7.7975    1.3434    1.2161 O   0  0  0  0  0  0  0  0  0  0  0  0
    7.9053    3.7154    0.9108 C   0  0  1  0  0  0  0  0  0  0  0  0
    9.0839    4.5888    1.3759 C   0  0  0  0  0  0  0  0  0  0  0  0
    7.2866    4.2911   -0.2906 N   0  0  0  0  0  0  0  0  0  0  0  0
    6.4945    5.4961   -0.3001 C   0  0  0  0  0  0  0  0  0  0  0  0
    6.2640    6.0561   -1.4092 O   0  0  0  0  0  0  0  0  0  0  0  0
    5.8810    6.0841    0.9571 C   0  0  1  0  0  0  0  0  0  0  0  0
    6.0185    7.6131    0.9855 C   0  0  0  0  0  0  0  0  0  0  0  0
    4.4760    5.6827    1.0852 N   0  0  0  0  0  0  0  0  0  0  0  0
    3.4576    6.1199    0.1802 C   0  0  0  0  0  0  0  0  0  0  0  0
    3.3187    5.5326   -0.9266 O   0  0  0  0  0  0  0  0  0  0  0  0
    2.5338    7.2426    0.5746 C   0  0  1  0  0  0  0  0  0  0  0  0
    2.2513    8.1868   -0.5984 C   0  0  0  0  0  0  0  0  0  0  0  0
    1.2921    6.7246    1.1631 N   0  0  0  0  0  0  0  0  0  0  0  0
    0.2196    6.1846    0.3779 C   0  0  0  0  0  0  0  0  0  0  0  0
    0.4479    5.2211   -0.3990 O   0  0  0  0  0  0  0  0  0  0  0  0
   -1.1718    6.7776    0.4270 C   0  0  1  0  0  0  0  0  0  0  0  0
   -1.2559    8.0278    1.3170 C   0  0  0  0  0  0  0  0  0  0  0  0
   -1.5867    7.1258   -0.9360 N   0  0  0  0  0  0  0  0  0  0  0  0
   -2.8752    6.8378   -1.5061 C   0  0  0  0  0  0  0  0  0  0  0  0
   -2.9558    6.6944   -2.7528 O   0  0  0  0  0  0  0  0  0  0  0  0
   -4.1339    6.8404   -0.6641 C   0  0  1  0  0  0  0  0  0  0  0  0
   -5.4014    7.1369   -1.4751 C   0  0  0  0  0  0  0  0  0  0  0  0
   -4.2863    5.6234    0.1504 N   0  0  0  0  0  0  0  0  0  0  0  0
   -4.0442    4.2696   -0.2645 C   0  0  0  0  0  0  0  0  0  0  0  0
   -3.5130    3.4861    0.5667 O   0  0  0  0  0  0  0  0  0  0  0  0
   -4.5229    3.7421   -1.6052 C   0  0  1  0  0  0  0  0  0  0  0  0
   -3.8641    2.4156   -2.0764 C   0  0  0  0  0  0  0  0  0  0  0  0
   -3.9575    1.0290   -0.8585 S   0  0  0  0  0  0  0  0  0  0  0  0
   -3.9458   -0.3151   -2.0963 C   0  0  0  0  0  0  0  0  0  0  0  0
   -5.9929    3.6949   -1.6455 N   0  0  0  0  0  0  0  0  0  0  0  0
   -6.8062    2.6933   -1.0208 C   0  0  0  0  0  0  0  0  0  0  0  0
   -6.7891    1.5158   -1.4686 O   0  0  0  0  0  0  0  0  0  0  0  0
   -7.8289    3.0469    0.0284 C   0  0  1  0  0  0  0  0  0  0  0  0
   -7.5552    4.3844    0.7219 C   0  0  0  0  0  0  0  0  0  0  0  0
   -9.1610    3.0659   -0.5858 N   0  0  0  0  0  0  0  0  0  0  0  0
  -10.1215    1.9975   -0.5095 C   0  0  0  0  0  0  0  0  0  0  0  0
  -11.2417    2.1610   -1.0731 O   0  0  0  0  0  0  0  0  0  0  0  0
   -9.8758    0.7269    0.2740 C   0  0  1  0  0  0  0  0  0  0  0  0
  -10.2835    0.9484    1.7400 C   0  0  0  0  0  0  0  0  0  0  0  0
  -10.5994   -0.3991   -0.3347 N   0  0  0  0  0  0  0  0  0  0  0  0
  -10.9543   -1.5715    0.4067 C   0  0  0  0  0  0  0  0  0  0  0  0
  -12.0836   -1.6225    0.9651 O   0  0  0  0  0  0  0  0  0  0  0  0
  -10.9769   -4.8676    4.6154 H   0  0  0  0  0  0  0  0  0  0  0  0
   -9.2385   -4.4754    4.3098 H   0  0  0  0  0  0  0  0  0  0  0  0
  -10.4116   -3.1546    4.7029 H   0  0  0  0  0  0  0  0  0  0  0  0
   -9.0918   -2.4115    2.4567 H   0  0  0  0  0  0  0  0  0  0  0  0
  -10.5397   -3.6266    0.0659 H   0  0  0  0  0  0  0  0  0  0  0  0
   -8.8790   -2.2968   -1.2743 H   0  0  0  0  0  0  0  0  0  0  0  0
   -8.1119   -1.7357    0.2400 H   0  0  0  0  0  0  0  0  0  0  0  0
   -6.6262   -2.7827    1.5401 H   0  0  0  0  0  0  0  0  0  0  0  0
   -6.1072   -4.4821    1.5080 H   0  0  0  0  0  0  0  0  0  0  0  0
   -5.9222   -1.3016   -0.5254 H   0  0  0  0  0  0  0  0  0  0  0  0
   -2.0925   -2.3180   -2.1916 H   0  0  0  0  0  0  0  0  0  0  0  0
   -4.1417   -5.1251    0.3355 H   0  0  0  0  0  0  0  0  0  0  0  0
   -0.9502   -4.3342   -1.4349 H   0  0  0  0  0  0  0  0  0  0  0  0
   -1.7582   -5.4601   -0.2855 H   0  0  0  0  0  0  0  0  0  0  0  0
   -0.9769   -7.3952   -3.7452 H   0  0  0  0  0  0  0  0  0  0  0  0
   -0.0399   -6.1259   -2.8983 H   0  0  0  0  0  0  0  0  0  0  0  0
   -0.2560   -7.2352   -0.7683 H   0  0  0  0  0  0  0  0  0  0  0  0
   -3.2844   -8.9635    0.2753 H   0  0  0  0  0  0  0  0  0  0  0  0
   -2.0686   -7.7121    0.6994 H   0  0  0  0  0  0  0  0  0  0  0  0
    0.2280   -9.4667   -2.7993 H   0  0  0  0  0  0  0  0  0  0  0  0
    1.9490   -6.7023   -1.2063 H   0  0  0  0  0  0  0  0  0  0  0  0
    1.2819   -7.8606    0.9730 H   0  0  0  0  0  0  0  0  0  0  0  0
    2.7007   -6.7775    1.1249 H   0  0  0  0  0  0  0  0  0  0  0  0
    2.9379   -8.5738    1.0480 H   0  0  0  0  0  0  0  0  0  0  0  0
    4.0708   -7.9681   -2.2470 H   0  0  0  0  0  0  0  0  0  0  0  0
    5.1526   -7.6561    0.9159 H   0  0  0  0  0  0  0  0  0  0  0  0
    7.1914   -8.0821    0.0250 H   0  0  0  0  0  0  0  0  0  0  0  0
    7.4075   -6.4854   -0.7218 H   0  0  0  0  0  0  0  0  0  0  0  0
    7.6253   -6.6767    1.0624 H   0  0  0  0  0  0  0  0  0  0  0  0
    4.7795   -5.8815    2.2478 H   0  0  0  0  0  0  0  0  0  0  0  0
    6.8566   -4.3943   -0.5229 H   0  0  0  0  0  0  0  0  0  0  0  0
    5.2664   -2.5302   -1.0164 H   0  0  0  0  0  0  0  0  0  0  0  0
    7.0036   -2.0470   -1.1104 H   0  0  0  0  0  0  0  0  0  0  0  0
    6.0192   -1.5665    0.3226 H   0  0  0  0  0  0  0  0  0  0  0  0
    7.6383   -2.9377    2.0153 H   0  0  0  0  0  0  0  0  0  0  0  0
    9.2285   -1.3371    1.1944 H   0  0  0  0  0  0  0  0  0  0  0  0
   11.8186   -3.0145    0.9241 H   0  0  0  0  0  0  0  0  0  0  0  0
   10.8977   -2.7089    2.4552 H   0  0  0  0  0  0  0  0  0  0  0  0
   11.6968   -1.3440    1.5943 H   0  0  0  0  0  0  0  0  0  0  0  0
   10.3227   -2.2026   -1.4708 H   0  0  0  0  0  0  0  0  0  0  0  0
   10.2685    0.5613    1.0509 H   0  0  0  0  0  0  0  0  0  0  0  0
   12.1211    1.8894   -1.0067 H   0  0  0  0  0  0  0  0  0  0  0  0
   11.9969    2.2782    0.7518 H   0  0  0  0  0  0  0  0  0  0  0  0
   12.5823    0.6533    0.2305 H   0  0  0  0  0  0  0  0  0  0  0  0
    9.7223    2.7544   -0.9663 H   0  0  0  0  0  0  0  0  0  0  0  0
    7.1539    3.6632    1.7256 H   0  0  0  0  0  0  0  0  0  0  0  0
    8.7386    5.6093    1.6383 H   0  0  0  0  0  0  0  0  0  0  0  0
    9.5542    4.1426    2.2753 H   0  0  0  0  0  0  0  0  0  0  0  0
    9.8475    4.6776    0.5757 H   0  0  0  0  0  0  0  0  0  0  0  0
    7.5058    3.8663   -1.2207 H   0  0  0  0  0  0  0  0  0  0  0  0
    6.4185    5.7219    1.8496 H   0  0  0  0  0  0  0  0  0  0  0  0
    7.0929    7.8975    0.9484 H   0  0  0  0  0  0  0  0  0  0  0  0
    5.4910    8.0831    0.1284 H   0  0  0  0  0  0  0  0  0  0  0  0
    5.5860    8.0083    1.9298 H   0  0  0  0  0  0  0  0  0  0  0  0
    4.1888    5.1122    1.9153 H   0  0  0  0  0  0  0  0  0  0  0  0
    3.0543    7.8465    1.3517 H   0  0  0  0  0  0  0  0  0  0  0  0
    1.7700    7.6463   -1.4401 H   0  0  0  0  0  0  0  0  0  0  0  0
    1.5830    9.0104   -0.2735 H   0  0  0  0  0  0  0  0  0  0  0  0
    3.2016    8.6331   -0.9641 H   0  0  0  0  0  0  0  0  0  0  0  0
    1.1271    6.8985    2.1824 H   0  0  0  0  0  0  0  0  0  0  0  0
   -1.8431    6.0052    0.8504 H   0  0  0  0  0  0  0  0  0  0  0  0
   -0.5299    8.7997    0.9862 H   0  0  0  0  0  0  0  0  0  0  0  0
   -1.0574    7.7591    2.3770 H   0  0  0  0  0  0  0  0  0  0  0  0
   -2.2707    8.4666    1.2725 H   0  0  0  0  0  0  0  0  0  0  0  0
   -0.8616    7.5193   -1.5817 H   0  0  0  0  0  0  0  0  0  0  0  0
   -4.0446    7.6995    0.0407 H   0  0  0  0  0  0  0  0  0  0  0  0
   -5.4587    6.5235   -2.3947 H   0  0  0  0  0  0  0  0  0  0  0  0
   -5.4059    8.2035   -1.7812 H   0  0  0  0  0  0  0  0  0  0  0  0
   -6.3030    6.9550   -0.8581 H   0  0  0  0  0  0  0  0  0  0  0  0
   -4.3482    5.7819    1.1833 H   0  0  0  0  0  0  0  0  0  0  0  0
   -4.2115    4.4880   -2.3633 H   0  0  0  0  0  0  0  0  0  0  0  0
   -2.7861    2.6024   -2.2752 H   0  0  0  0  0  0  0  0  0  0  0  0
   -4.3349    2.1184   -3.0367 H   0  0  0  0  0  0  0  0  0  0  0  0
   -3.0343   -0.2212   -2.7254 H   0  0  0  0  0  0  0  0  0  0  0  0
   -4.8442   -0.2259   -2.7480 H   0  0  0  0  0  0  0  0  0  0  0  0
   -6.4941    4.5553   -1.9727 H   0  0  0  0  0  0  0  0  0  0  0  0
   -7.7663    2.2837    0.8283 H   0  0  0  0  0  0  0  0  0  0  0  0
   -6.5459    4.3823    1.1864 H   0  0  0  0  0  0  0  0  0  0  0  0
   -7.6328    5.2282    0.0032 H   0  0  0  0  0  0  0  0  0  0  0  0
   -8.3039    4.5514    1.5230 H   0  0  0  0  0  0  0  0  0  0  0  0
   -9.3911    3.8720   -1.2088 H   0  0  0  0  0  0  0  0  0  0  0  0
   -8.7975    0.4757    0.2313 H   0  0  0  0  0  0  0  0  0  0  0  0
   -9.7653    1.8288    2.1667 H   0  0  0  0  0  0  0  0  0  0  0  0
  -10.0168    0.0631    2.3547 H   0  0  0  0  0  0  0  0  0  0  0  0
  -11.3816    1.1165    1.8077 H   0  0  0  0  0  0  0  0  0  0  0  0
  -10.5695   -0.4962   -1.3746 H   0  0  0  0  0  0  0  0  0  0  0  0
  1  2  1  0
  2  3  2  0
  2  4  1  0
  4  5  1  0
  5  6  1  0
  6  7  1  0
  7  8  1  0
  8  9  1  0
  9 10  2  0
 10 11  1  0
 11 12  2  0
 12 13  1  0
 13 14  2  0
 13 15  1  0
 15 16  1  0
 16 17  1  0
 17 18  1  0
 18 19  1  0
 19 20  1  0
 19 21  2  0
 18 22  1  0
 22 23  1  0
 23 24  2  0
 23 25  1  0
 25 26  1  0
 25 27  1  0
 27 28  1  0
 28 29  2  0
 28 30  1  0
 30 31  1  0
 30 32  1  0
 32 33  1  0
 33 34  2  0
 33 35  1  0
 35 36  1  0
 35 37  1  0
 37 38  1  0
 38 39  2  0
 38 40  1  0
 40 41  1  0
 40 42  1  0
 42 43  1  0
 43 44  2  0
 43 45  1  0
 45 46  1  0
 45 47  1  0
 47 48  1  0
 48 49  2  0
 48 50  1  0
 50 51  1  0
 50 52  1  0
 52 53  1  0
 53 54  2  0
 53 55  1  0
 55 56  1  0
 55 57  1  0
 57 58  1  0
 58 59  2  0
 58 60  1  0
 60 61  1  0
 60 62  1  0
 62 63  1  0
 63 64  2  0
 63 65  1  0
 65 66  1  0
 65 67  1  0
 67 68  1  0
 68 69  2  0
 68 70  1  0
 70 71  1  0
 70 72  1  0
 72 73  1  0
 73 74  2  0
 73 75  1  0
 75 76  1  0
 76 77  1  0
 77 78  1  0
 75 79  1  0
 79 80  1  0
 80 81  2  0
 80 82  1  0
 82 83  1  0
 82 84  1  0
 84 85  1  0
 85 86  2  0
 85 87  1  0
 87 88  1  0
 87 89  1  0
 89 90  1  0
 90 91  2  0
 90  5  1  0
 14  9  1  0
 78 11  1  0
  1 92  1  0
  1 93  1  0
  1 94  1  0
  4 95  1  0
  5 96  1  6
  6 97  1  0
  6 98  1  0
  8 99  1  0
  8100  1  0
 10101  1  0
 12102  1  0
 14103  1  0
 15104  1  0
 15105  1  0
 17106  1  0
 17107  1  0
 18108  1  1
 20109  1  0
 20110  1  0
 22111  1  0
 25112  1  6
 26113  1  0
 26114  1  0
 26115  1  0
 27116  1  0
 30117  1  1
 31118  1  0
 31119  1  0
 31120  1  0
 32121  1  0
 35122  1  6
 36123  1  0
 36124  1  0
 36125  1  0
 37126  1  0
 40127  1  1
 41128  1  0
 41129  1  0
 41130  1  0
 42131  1  0
 45132  1  1
 46133  1  0
 46134  1  0
 46135  1  0
 47136  1  0
 50137  1  1
 51138  1  0
 51139  1  0
 51140  1  0
 52141  1  0
 55142  1  1
 56143  1  0
 56144  1  0
 56145  1  0
 57146  1  0
 60147  1  1
 61148  1  0
 61149  1  0
 61150  1  0
 62151  1  0
 65152  1  1
 66153  1  0
 66154  1  0
 66155  1  0
 67156  1  0
 70157  1  1
 71158  1  0
 71159  1  0
 71160  1  0
 72161  1  0
 75162  1  6
 76163  1  0
 76164  1  0
 78165  1  0
 78166  1  0
 79167  1  0
 82168  1  1
 83169  1  0
 83170  1  0
 83171  1  0
 84172  1  0
 87173  1  1
 88174  1  0
 88175  1  0
 88176  1  0
 89177  1  0
M  END
