
     RDKit          3D

107109  0  0  0  0  0  0  0  0999 V2000
    8.6087    1.9379   -0.6611 C   0  0  0  0  0  0  0  0  0  0  0  0
    7.5216    1.8086   -1.6805 C   0  0  0  0  0  0  0  0  0  0  0  0
    7.7608    2.1515   -2.8680 O   0  0  0  0  0  0  0  0  0  0  0  0
    6.2424    1.2274   -1.3702 N   0  0  0  0  0  0  0  0  0  0  0  0
    5.4906    1.4106   -0.1212 C   0  0  2  0  0  0  0  0  0  0  0  0
    5.2746    2.9018    0.1888 C   0  0  0  0  0  0  0  0  0  0  0  0
    4.2662    3.1083    1.7090 S   0  0  0  0  0  0  0  0  0  0  0  0
    3.1457    4.4171    1.0609 C   0  0  0  0  0  0  0  0  0  0  0  0
    1.9003    3.9035    0.3646 C   0  0  0  0  0  0  0  0  0  0  0  0
    0.9679    4.8534   -0.1099 C   0  0  0  0  0  0  0  0  0  0  0  0
   -0.2250    4.4468   -0.7394 C   0  0  0  0  0  0  0  0  0  0  0  0
   -0.4811    3.0839   -0.8866 C   0  0  0  0  0  0  0  0  0  0  0  0
    0.3931    2.1207   -0.3677 C   0  0  0  0  0  0  0  0  0  0  0  0
    1.5898    2.5312    0.2408 C   0  0  0  0  0  0  0  0  0  0  0  0
   -0.0981    0.7100   -0.2297 C   0  0  0  0  0  0  0  0  0  0  0  0
    1.1008   -0.5256   -0.8348 S   0  0  0  0  0  0  0  0  0  0  0  0
   -0.1470   -1.8626   -0.8401 C   0  0  0  0  0  0  0  0  0  0  0  0
    0.4361   -3.2800   -0.8539 C   0  0  2  0  0  0  0  0  0  0  0  0
    1.4983   -3.3852   -1.8698 N   0  0  0  0  0  0  0  0  0  0  0  0
    2.7734   -4.0433   -1.7236 C   0  0  0  0  0  0  0  0  0  0  0  0
    3.4742   -4.2061   -2.7571 O   0  0  0  0  0  0  0  0  0  0  0  0
    3.3553   -4.4842   -0.3918 C   0  0  1  0  0  0  0  0  0  0  0  0
    3.9445   -5.8942   -0.5140 C   0  0  0  0  0  0  0  0  0  0  0  0
    4.3888   -3.5484    0.0810 N   0  0  0  0  0  0  0  0  0  0  0  0
    4.2314   -2.1190    0.0119 C   0  0  0  0  0  0  0  0  0  0  0  0
    3.9705   -1.5742   -1.0933 O   0  0  0  0  0  0  0  0  0  0  0  0
    4.3895   -1.2390    1.2172 C   0  0  1  0  0  0  0  0  0  0  0  0
    4.0251   -1.9604    2.5223 C   0  0  0  0  0  0  0  0  0  0  0  0
    5.7638   -0.7352    1.2817 N   0  0  0  0  0  0  0  0  0  0  0  0
    6.1233    0.6303    1.0170 C   0  0  0  0  0  0  0  0  0  0  0  0
    7.0195    1.1652    1.7263 O   0  0  0  0  0  0  0  0  0  0  0  0
   -0.6538   -4.2984   -1.1544 C   0  0  0  0  0  0  0  0  0  0  0  0
   -0.5950   -4.9794   -2.2124 O   0  0  0  0  0  0  0  0  0  0  0  0
   -1.7027   -4.5880   -0.2145 N   0  0  0  0  0  0  0  0  0  0  0  0
   -2.7275   -3.6231    0.2105 C   0  0  2  0  0  0  0  0  0  0  0  0
   -2.6127   -3.3711    1.7109 C   0  0  0  0  0  0  0  0  0  0  0  0
   -4.1169   -4.0762   -0.1501 C   0  0  0  0  0  0  0  0  0  0  0  0
   -4.3603   -5.2984   -0.3316 O   0  0  0  0  0  0  0  0  0  0  0  0
   -5.1450   -3.1103   -0.3776 N   0  0  0  0  0  0  0  0  0  0  0  0
   -5.9466   -2.5652    0.7260 C   0  0  2  0  0  0  0  0  0  0  0  0
   -7.4284   -2.8808    0.5066 C   0  0  0  0  0  0  0  0  0  0  0  0
   -5.7298   -1.0718    0.8335 C   0  0  0  0  0  0  0  0  0  0  0  0
   -5.6103   -0.5536    1.9765 O   0  0  0  0  0  0  0  0  0  0  0  0
   -5.7926   -0.2265   -0.3309 N   0  0  0  0  0  0  0  0  0  0  0  0
   -4.8462    0.8579   -0.6589 C   0  0  2  0  0  0  0  0  0  0  0  0
   -3.7783    0.3143   -1.6110 C   0  0  0  0  0  0  0  0  0  0  0  0
   -4.1935    1.5010    0.5619 C   0  0  0  0  0  0  0  0  0  0  0  0
   -3.3961    0.8072    1.2514 O   0  0  0  0  0  0  0  0  0  0  0  0
   -4.4290    2.8682    0.9750 N   0  0  0  0  0  0  0  0  0  0  0  0
   -4.9997    3.9455    0.1465 C   0  0  1  0  0  0  0  0  0  0  0  0
   -5.6820    4.9896    1.0064 C   0  0  0  0  0  0  0  0  0  0  0  0
   -6.4636    4.5964    2.1470 N   0  0  0  0  0  0  0  0  0  0  0  0
   -5.6371    6.2106    0.6851 O   0  0  0  0  0  0  0  0  0  0  0  0
   -3.9065    4.5426   -0.7745 C   0  0  0  0  0  0  0  0  0  0  0  0
   -2.6032    5.4126    0.1855 S   0  0  0  0  0  0  0  0  0  0  0  0
   -1.2945    5.4385   -1.1043 C   0  0  0  0  0  0  0  0  0  0  0  0
    8.3321    2.6730    0.1169 H   0  0  0  0  0  0  0  0  0  0  0  0
    8.7946    0.9436   -0.1981 H   0  0  0  0  0  0  0  0  0  0  0  0
    9.5512    2.2852   -1.1352 H   0  0  0  0  0  0  0  0  0  0  0  0
    5.7150    0.8070   -2.1654 H   0  0  0  0  0  0  0  0  0  0  0  0
    4.4704    1.0088   -0.2981 H   0  0  0  0  0  0  0  0  0  0  0  0
    6.2281    3.4375    0.3402 H   0  0  0  0  0  0  0  0  0  0  0  0
    4.7815    3.3610   -0.6944 H   0  0  0  0  0  0  0  0  0  0  0  0
    2.8236    5.0326    1.9259 H   0  0  0  0  0  0  0  0  0  0  0  0
    3.7148    5.0915    0.3771 H   0  0  0  0  0  0  0  0  0  0  0  0
    1.1610    5.9067    0.0417 H   0  0  0  0  0  0  0  0  0  0  0  0
   -1.4076    2.7752   -1.3539 H   0  0  0  0  0  0  0  0  0  0  0  0
    2.2371    1.7693    0.6656 H   0  0  0  0  0  0  0  0  0  0  0  0
   -1.0323    0.5926   -0.8146 H   0  0  0  0  0  0  0  0  0  0  0  0
   -0.3388    0.5121    0.8404 H   0  0  0  0  0  0  0  0  0  0  0  0
   -0.7266   -1.7510    0.0972 H   0  0  0  0  0  0  0  0  0  0  0  0
   -0.8059   -1.7103   -1.7184 H   0  0  0  0  0  0  0  0  0  0  0  0
    0.8149   -3.4728    0.1688 H   0  0  0  0  0  0  0  0  0  0  0  0
    1.2524   -3.0674   -2.8347 H   0  0  0  0  0  0  0  0  0  0  0  0
    2.5754   -4.5573    0.3860 H   0  0  0  0  0  0  0  0  0  0  0  0
    4.2791   -6.2574    0.4865 H   0  0  0  0  0  0  0  0  0  0  0  0
    3.1841   -6.6077   -0.8992 H   0  0  0  0  0  0  0  0  0  0  0  0
    4.8236   -5.8999   -1.1968 H   0  0  0  0  0  0  0  0  0  0  0  0
    5.0863   -3.9142    0.7673 H   0  0  0  0  0  0  0  0  0  0  0  0
    3.6578   -0.3975    1.1371 H   0  0  0  0  0  0  0  0  0  0  0  0
    4.7496   -2.7691    2.7513 H   0  0  0  0  0  0  0  0  0  0  0  0
    3.0045   -2.3966    2.4507 H   0  0  0  0  0  0  0  0  0  0  0  0
    4.0405   -1.2425    3.3689 H   0  0  0  0  0  0  0  0  0  0  0  0
    6.5003   -1.3552    1.6897 H   0  0  0  0  0  0  0  0  0  0  0  0
   -1.8201   -5.5815    0.0753 H   0  0  0  0  0  0  0  0  0  0  0  0
   -2.5958   -2.6779   -0.3270 H   0  0  0  0  0  0  0  0  0  0  0  0
   -3.2713   -2.5338    2.0217 H   0  0  0  0  0  0  0  0  0  0  0  0
   -2.8920   -4.2821    2.2801 H   0  0  0  0  0  0  0  0  0  0  0  0
   -1.5763   -3.1018    1.9760 H   0  0  0  0  0  0  0  0  0  0  0  0
   -5.3910   -2.8730   -1.3654 H   0  0  0  0  0  0  0  0  0  0  0  0
   -5.6436   -3.0413    1.6847 H   0  0  0  0  0  0  0  0  0  0  0  0
   -7.5560   -3.9819    0.4091 H   0  0  0  0  0  0  0  0  0  0  0  0
   -7.8099   -2.3935   -0.4220 H   0  0  0  0  0  0  0  0  0  0  0  0
   -8.0300   -2.5257    1.3780 H   0  0  0  0  0  0  0  0  0  0  0  0
   -6.3116   -0.6117   -1.1444 H   0  0  0  0  0  0  0  0  0  0  0  0
   -5.4142    1.6122   -1.2345 H   0  0  0  0  0  0  0  0  0  0  0  0
   -4.2523   -0.1327   -2.5117 H   0  0  0  0  0  0  0  0  0  0  0  0
   -3.1837   -0.4761   -1.1110 H   0  0  0  0  0  0  0  0  0  0  0  0
   -3.1158    1.1376   -1.9436 H   0  0  0  0  0  0  0  0  0  0  0  0
   -3.9906    3.1534    1.8788 H   0  0  0  0  0  0  0  0  0  0  0  0
   -5.8107    3.5443   -0.4825 H   0  0  0  0  0  0  0  0  0  0  0  0
   -6.9221    5.3265    2.7327 H   0  0  0  0  0  0  0  0  0  0  0  0
   -6.5506    3.5904    2.4212 H   0  0  0  0  0  0  0  0  0  0  0  0
   -4.3656    5.2616   -1.4858 H   0  0  0  0  0  0  0  0  0  0  0  0
   -3.4582    3.7258   -1.3746 H   0  0  0  0  0  0  0  0  0  0  0  0
   -1.6987    5.2057   -2.1137 H   0  0  0  0  0  0  0  0  0  0  0  0
   -0.8601    6.4661   -1.1549 H   0  0  0  0  0  0  0  0  0  0  0  0
  1  2  1  0
  2  3  2  0
  2  4  1  0
  4  5  1  0
  5  6  1  0
  6  7  1  0
  7  8  1  0
  8  9  1  0
  9 10  2  0
 10 11  1  0
 11 12  2  0
 12 13  1  0
 13 14  2  0
 13 15  1  0
 15 16  1  0
 16 17  1  0
 17 18  1  0
 18 19  1  0
 19 20  1  0
 20 21  2  0
 20 22  1  0
 22 23  1  0
 22 24  1  0
 24 25  1  0
 25 26  2  0
 25 27  1  0
 27 28  1  0
 27 29  1  0
 29 30  1  0
 30 31  2  0
 18 32  1  0
 32 33  2  0
 32 34  1  0
 34 35  1  0
 35 36  1  0
 35 37  1  0
 37 38  2  0
 37 39  1  0
 39 40  1  0
 40 41  1  0
 40 42  1  0
 42 43  2  0
 42 44  1  0
 44 45  1  0
 45 46  1  0
 45 47  1  0
 47 48  2  0
 47 49  1  0
 49 50  1  0
 50 51  1  0
 51 52  1  0
 51 53  2  0
 50 54  1  0
 54 55  1  0
 55 56  1  0
 30  5  1  0
 14  9  1  0
 56 11  1  0
  1 57  1  0
  1 58  1  0
  1 59  1  0
  4 60  1  0
  5 61  1  6
  6 62  1  0
  6 63  1  0
  8 64  1  0
  8 65  1  0
 10 66  1  0
 12 67  1  0
 14 68  1  0
 15 69  1  0
 15 70  1  0
 17 71  1  0
 17 72  1  0
 18 73  1  1
 19 74  1  0
 22 75  1  1
 23 76  1  0
 23 77  1  0
 23 78  1  0
 24 79  1  0
 27 80  1  6
 28 81  1  0
 28 82  1  0
 28 83  1  0
 29 84  1  0
 34 85  1  0
 35 86  1  6
 36 87  1  0
 36 88  1  0
 36 89  1  0
 39 90  1  0
 40 91  1  1
 41 92  1  0
 41 93  1  0
 41 94  1  0
 44 95  1  0
 45 96  1  6
 46 97  1  0
 46 98  1  0
 46 99  1  0
 49100  1  0
 50101  1  6
 52102  1  0
 52103  1  0
 54104  1  0
 54105  1  0
 56106  1  0
 56107  1  0
M  END
