
     RDKit          3D

107109  0  0  0  0  0  0  0  0999 V2000
    8.8186    2.3520   -2.2697 C   0  0  0  0  0  0  0  0  0  0  0  0
    8.0091    2.0644   -1.0539 C   0  0  0  0  0  0  0  0  0  0  0  0
    8.5701    2.0991    0.0741 O   0  0  0  0  0  0  0  0  0  0  0  0
    6.6210    1.7277   -1.1635 N   0  0  0  0  0  0  0  0  0  0  0  0
    5.8479    1.1822   -0.0440 C   0  0  1  0  0  0  0  0  0  0  0  0
    5.3893    2.2973    0.9091 C   0  0  0  0  0  0  0  0  0  0  0  0
    4.3226    3.5385    0.0800 S   0  0  0  0  0  0  0  0  0  0  0  0
    3.4613    4.1177    1.5884 C   0  0  0  0  0  0  0  0  0  0  0  0
    2.0446    3.6054    1.6380 C   0  0  0  0  0  0  0  0  0  0  0  0
    0.9693    4.5094    1.6103 C   0  0  0  0  0  0  0  0  0  0  0  0
   -0.3432    4.0568    1.8133 C   0  0  0  0  0  0  0  0  0  0  0  0
   -0.5795    2.6915    2.0163 C   0  0  0  0  0  0  0  0  0  0  0  0
    0.4747    1.7678    1.9800 C   0  0  0  0  0  0  0  0  0  0  0  0
    1.7857    2.2340    1.8041 C   0  0  0  0  0  0  0  0  0  0  0  0
    0.2071    0.3047    2.2375 C   0  0  0  0  0  0  0  0  0  0  0  0
   -1.0594   -0.3450    1.0943 S   0  0  0  0  0  0  0  0  0  0  0  0
    0.0636   -1.0801   -0.1615 C   0  0  0  0  0  0  0  0  0  0  0  0
    0.4611   -2.5383    0.1723 C   0  0  2  0  0  0  0  0  0  0  0  0
    1.4482   -3.0066   -0.8053 N   0  0  0  0  0  0  0  0  0  0  0  0
    2.4567   -4.0051   -0.5514 C   0  0  0  0  0  0  0  0  0  0  0  0
    3.0135   -4.5590   -1.5389 O   0  0  0  0  0  0  0  0  0  0  0  0
    2.9638   -4.3129    0.8423 C   0  0  1  0  0  0  0  0  0  0  0  0
    3.4561   -5.7598    0.9842 C   0  0  0  0  0  0  0  0  0  0  0  0
    4.0224   -3.3631    1.2015 N   0  0  0  0  0  0  0  0  0  0  0  0
    5.2562   -3.2751    0.4678 C   0  0  0  0  0  0  0  0  0  0  0  0
    6.0262   -4.2722    0.4348 O   0  0  0  0  0  0  0  0  0  0  0  0
    5.6802   -1.9802   -0.1912 C   0  0  1  0  0  0  0  0  0  0  0  0
    6.2249   -2.2375   -1.6023 C   0  0  0  0  0  0  0  0  0  0  0  0
    4.5439   -1.0418   -0.2848 N   0  0  0  0  0  0  0  0  0  0  0  0
    4.6782    0.3624   -0.5552 C   0  0  0  0  0  0  0  0  0  0  0  0
    3.7704    0.9334   -1.2219 O   0  0  0  0  0  0  0  0  0  0  0  0
   -0.6893   -3.5187    0.1826 C   0  0  0  0  0  0  0  0  0  0  0  0
   -0.4484   -4.7329    0.4207 O   0  0  0  0  0  0  0  0  0  0  0  0
   -2.0385   -3.1160   -0.0851 N   0  0  0  0  0  0  0  0  0  0  0  0
   -2.7064   -3.4705   -1.3426 C   0  0  2  0  0  0  0  0  0  0  0  0
   -3.1044   -2.2159   -2.1227 C   0  0  0  0  0  0  0  0  0  0  0  0
   -3.8650   -4.4185   -1.1084 C   0  0  0  0  0  0  0  0  0  0  0  0
   -3.7467   -5.5945   -1.5638 O   0  0  0  0  0  0  0  0  0  0  0  0
   -5.0872   -4.0832   -0.4109 N   0  0  0  0  0  0  0  0  0  0  0  0
   -5.4787   -2.7608    0.1050 C   0  0  2  0  0  0  0  0  0  0  0  0
   -6.2122   -2.9295    1.4388 C   0  0  0  0  0  0  0  0  0  0  0  0
   -6.3589   -2.0514   -0.8970 C   0  0  0  0  0  0  0  0  0  0  0  0
   -7.2021   -2.7267   -1.5568 O   0  0  0  0  0  0  0  0  0  0  0  0
   -6.2629   -0.6373   -1.1532 N   0  0  0  0  0  0  0  0  0  0  0  0
   -5.9059    0.3568   -0.1357 C   0  0  2  0  0  0  0  0  0  0  0  0
   -7.1772    0.8030    0.5920 C   0  0  0  0  0  0  0  0  0  0  0  0
   -5.1156    1.4909   -0.7686 C   0  0  0  0  0  0  0  0  0  0  0  0
   -4.0678    1.2020   -1.4154 O   0  0  0  0  0  0  0  0  0  0  0  0
   -5.4937    2.8725   -0.6270 N   0  0  0  0  0  0  0  0  0  0  0  0
   -4.5267    3.9663   -0.7993 C   0  0  1  0  0  0  0  0  0  0  0  0
   -5.2543    5.2900   -0.8467 C   0  0  0  0  0  0  0  0  0  0  0  0
   -5.2503    6.0856   -2.0332 N   0  0  0  0  0  0  0  0  0  0  0  0
   -5.8904    5.6903    0.1638 O   0  0  0  0  0  0  0  0  0  0  0  0
   -3.5060    3.9387    0.3605 C   0  0  0  0  0  0  0  0  0  0  0  0
   -2.2290    5.2420    0.1835 S   0  0  0  0  0  0  0  0  0  0  0  0
   -1.4892    5.0345    1.8475 C   0  0  0  0  0  0  0  0  0  0  0  0
    9.6291    1.6010   -2.3702 H   0  0  0  0  0  0  0  0  0  0  0  0
    8.1890    2.2999   -3.1763 H   0  0  0  0  0  0  0  0  0  0  0  0
    9.2574    3.3629   -2.1961 H   0  0  0  0  0  0  0  0  0  0  0  0
    6.1760    1.7862   -2.1032 H   0  0  0  0  0  0  0  0  0  0  0  0
    6.5126    0.5396    0.5549 H   0  0  0  0  0  0  0  0  0  0  0  0
    6.2716    2.8141    1.3351 H   0  0  0  0  0  0  0  0  0  0  0  0
    4.8569    1.8201    1.7570 H   0  0  0  0  0  0  0  0  0  0  0  0
    3.9951    3.8201    2.5140 H   0  0  0  0  0  0  0  0  0  0  0  0
    3.4717    5.2290    1.5787 H   0  0  0  0  0  0  0  0  0  0  0  0
    1.1490    5.5670    1.4634 H   0  0  0  0  0  0  0  0  0  0  0  0
   -1.5881    2.3434    2.2029 H   0  0  0  0  0  0  0  0  0  0  0  0
    2.6023    1.5321    1.8293 H   0  0  0  0  0  0  0  0  0  0  0  0
   -0.1793    0.1945    3.2681 H   0  0  0  0  0  0  0  0  0  0  0  0
    1.1292   -0.3008    2.1874 H   0  0  0  0  0  0  0  0  0  0  0  0
   -0.4595   -1.0504   -1.1406 H   0  0  0  0  0  0  0  0  0  0  0  0
    0.9725   -0.4479   -0.2668 H   0  0  0  0  0  0  0  0  0  0  0  0
    0.9096   -2.5119    1.1810 H   0  0  0  0  0  0  0  0  0  0  0  0
    1.2720   -2.7672   -1.8055 H   0  0  0  0  0  0  0  0  0  0  0  0
    2.1364   -4.2163    1.5743 H   0  0  0  0  0  0  0  0  0  0  0  0
    3.8818   -5.9122    2.0035 H   0  0  0  0  0  0  0  0  0  0  0  0
    2.6036   -6.4650    0.8541 H   0  0  0  0  0  0  0  0  0  0  0  0
    4.2305   -6.0043    0.2305 H   0  0  0  0  0  0  0  0  0  0  0  0
    3.8312   -2.6640    1.9502 H   0  0  0  0  0  0  0  0  0  0  0  0
    6.4913   -1.5646    0.4361 H   0  0  0  0  0  0  0  0  0  0  0  0
    5.4606   -2.7495   -2.2293 H   0  0  0  0  0  0  0  0  0  0  0  0
    7.1277   -2.8813   -1.5599 H   0  0  0  0  0  0  0  0  0  0  0  0
    6.5038   -1.2802   -2.0831 H   0  0  0  0  0  0  0  0  0  0  0  0
    3.6084   -1.4429   -0.5095 H   0  0  0  0  0  0  0  0  0  0  0  0
   -2.5499   -2.6266    0.6812 H   0  0  0  0  0  0  0  0  0  0  0  0
   -1.9752   -4.0145   -1.9913 H   0  0  0  0  0  0  0  0  0  0  0  0
   -3.8733   -2.4562   -2.8847 H   0  0  0  0  0  0  0  0  0  0  0  0
   -3.4932   -1.4244   -1.4548 H   0  0  0  0  0  0  0  0  0  0  0  0
   -2.2161   -1.8045   -2.6469 H   0  0  0  0  0  0  0  0  0  0  0  0
   -5.8091   -4.8393   -0.3703 H   0  0  0  0  0  0  0  0  0  0  0  0
   -4.5922   -2.1553    0.3100 H   0  0  0  0  0  0  0  0  0  0  0  0
   -7.1724   -3.4708    1.3038 H   0  0  0  0  0  0  0  0  0  0  0  0
   -5.5713   -3.5055    2.1408 H   0  0  0  0  0  0  0  0  0  0  0  0
   -6.4099   -1.9315    1.8860 H   0  0  0  0  0  0  0  0  0  0  0  0
   -6.7511   -0.2814   -2.0071 H   0  0  0  0  0  0  0  0  0  0  0  0
   -5.2326   -0.0871    0.6252 H   0  0  0  0  0  0  0  0  0  0  0  0
   -7.6733   -0.0760    1.0602 H   0  0  0  0  0  0  0  0  0  0  0  0
   -7.8977    1.2592   -0.1210 H   0  0  0  0  0  0  0  0  0  0  0  0
   -6.9338    1.5279    1.3952 H   0  0  0  0  0  0  0  0  0  0  0  0
   -6.4723    3.1141   -0.3553 H   0  0  0  0  0  0  0  0  0  0  0  0
   -3.9868    3.8214   -1.7560 H   0  0  0  0  0  0  0  0  0  0  0  0
   -4.7225    5.7819   -2.8774 H   0  0  0  0  0  0  0  0  0  0  0  0
   -5.7999    6.9752   -2.0701 H   0  0  0  0  0  0  0  0  0  0  0  0
   -4.0417    4.0615    1.3216 H   0  0  0  0  0  0  0  0  0  0  0  0
   -2.9959    2.9524    0.3798 H   0  0  0  0  0  0  0  0  0  0  0  0
   -2.2543    4.7193    2.5899 H   0  0  0  0  0  0  0  0  0  0  0  0
   -1.1157    6.0242    2.1866 H   0  0  0  0  0  0  0  0  0  0  0  0
  1  2  1  0
  2  3  2  0
  2  4  1  0
  4  5  1  0
  5  6  1  0
  6  7  1  0
  7  8  1  0
  8  9  1  0
  9 10  2  0
 10 11  1  0
 11 12  2  0
 12 13  1  0
 13 14  2  0
 13 15  1  0
 15 16  1  0
 16 17  1  0
 17 18  1  0
 18 19  1  0
 19 20  1  0
 20 21  2  0
 20 22  1  0
 22 23  1  0
 22 24  1  0
 24 25  1  0
 25 26  2  0
 25 27  1  0
 27 28  1  0
 27 29  1  0
 29 30  1  0
 30 31  2  0
 18 32  1  0
 32 33  2  0
 32 34  1  0
 34 35  1  0
 35 36  1  0
 35 37  1  0
 37 38  2  0
 37 39  1  0
 39 40  1  0
 40 41  1  0
 40 42  1  0
 42 43  2  0
 42 44  1  0
 44 45  1  0
 45 46  1  0
 45 47  1  0
 47 48  2  0
 47 49  1  0
 49 50  1  0
 50 51  1  0
 51 52  1  0
 51 53  2  0
 50 54  1  0
 54 55  1  0
 55 56  1  0
 30  5  1  0
 14  9  1  0
 56 11  1  0
  1 57  1  0
  1 58  1  0
  1 59  1  0
  4 60  1  0
  5 61  1  1
  6 62  1  0
  6 63  1  0
  8 64  1  0
  8 65  1  0
 10 66  1  0
 12 67  1  0
 14 68  1  0
 15 69  1  0
 15 70  1  0
 17 71  1  0
 17 72  1  0
 18 73  1  1
 19 74  1  0
 22 75  1  1
 23 76  1  0
 23 77  1  0
 23 78  1  0
 24 79  1  0
 27 80  1  1
 28 81  1  0
 28 82  1  0
 28 83  1  0
 29 84  1  0
 34 85  1  0
 35 86  1  6
 36 87  1  0
 36 88  1  0
 36 89  1  0
 39 90  1  0
 40 91  1  1
 41 92  1  0
 41 93  1  0
 41 94  1  0
 44 95  1  0
 45 96  1  1
 46 97  1  0
 46 98  1  0
 46 99  1  0
 49100  1  0
 50101  1  6
 52102  1  0
 52103  1  0
 54104  1  0
 54105  1  0
 56106  1  0
 56107  1  0
M  END
