
     RDKit          3D

107109  0  0  0  0  0  0  0  0999 V2000
    8.1579    2.4893   -0.6477 C   0  0  0  0  0  0  0  0  0  0  0  0
    7.5161    2.5662    0.7044 C   0  0  0  0  0  0  0  0  0  0  0  0
    8.1332    3.1669    1.6313 O   0  0  0  0  0  0  0  0  0  0  0  0
    6.2388    1.9756    1.0069 N   0  0  0  0  0  0  0  0  0  0  0  0
    5.2615    1.4307    0.0529 C   0  0  1  0  0  0  0  0  0  0  0  0
    4.6511    2.5311   -0.8286 C   0  0  0  0  0  0  0  0  0  0  0  0
    3.9740    3.8809    0.2005 S   0  0  0  0  0  0  0  0  0  0  0  0
    2.6929    4.3776   -0.9921 C   0  0  0  0  0  0  0  0  0  0  0  0
    1.4631    3.5241   -0.8229 C   0  0  0  0  0  0  0  0  0  0  0  0
    0.6729    3.6637    0.3271 C   0  0  0  0  0  0  0  0  0  0  0  0
   -0.4827    2.8905    0.5000 C   0  0  0  0  0  0  0  0  0  0  0  0
   -0.8240    1.9324   -0.4702 C   0  0  0  0  0  0  0  0  0  0  0  0
   -0.0386    1.7850   -1.6218 C   0  0  0  0  0  0  0  0  0  0  0  0
    1.0962    2.5901   -1.7988 C   0  0  0  0  0  0  0  0  0  0  0  0
   -0.4442    0.8107   -2.6996 C   0  0  0  0  0  0  0  0  0  0  0  0
    0.7859   -0.5391   -2.8660 S   0  0  0  0  0  0  0  0  0  0  0  0
    0.3525   -1.4365   -1.3207 C   0  0  0  0  0  0  0  0  0  0  0  0
    0.5536   -2.9552   -1.4602 C   0  0  2  0  0  0  0  0  0  0  0  0
    1.9089   -3.2687   -1.9366 N   0  0  0  0  0  0  0  0  0  0  0  0
    2.9305   -3.9174   -1.1516 C   0  0  0  0  0  0  0  0  0  0  0  0
    3.8805   -4.4882   -1.7527 O   0  0  0  0  0  0  0  0  0  0  0  0
    2.9295   -3.9181    0.3637 C   0  0  1  0  0  0  0  0  0  0  0  0
    2.6963   -5.3351    0.8905 C   0  0  0  0  0  0  0  0  0  0  0  0
    4.2144   -3.4014    0.8468 N   0  0  0  0  0  0  0  0  0  0  0  0
    4.3924   -2.0046    1.1484 C   0  0  0  0  0  0  0  0  0  0  0  0
    3.3815   -1.2688    1.2965 O   0  0  0  0  0  0  0  0  0  0  0  0
    5.7644   -1.3709    1.2373 C   0  0  1  0  0  0  0  0  0  0  0  0
    6.8028   -2.2979    1.8791 C   0  0  0  0  0  0  0  0  0  0  0  0
    6.2078   -0.9658   -0.1095 N   0  0  0  0  0  0  0  0  0  0  0  0
    5.8414    0.2734   -0.7372 C   0  0  0  0  0  0  0  0  0  0  0  0
    6.0180    0.4018   -1.9835 O   0  0  0  0  0  0  0  0  0  0  0  0
   -0.4798   -3.5646   -2.3848 C   0  0  0  0  0  0  0  0  0  0  0  0
   -0.3534   -3.4189   -3.6313 O   0  0  0  0  0  0  0  0  0  0  0  0
   -1.5950   -4.3366   -1.8984 N   0  0  0  0  0  0  0  0  0  0  0  0
   -2.2528   -4.1311   -0.6017 C   0  0  2  0  0  0  0  0  0  0  0  0
   -2.4316   -5.4793    0.1034 C   0  0  0  0  0  0  0  0  0  0  0  0
   -3.5807   -3.4606   -0.8036 C   0  0  0  0  0  0  0  0  0  0  0  0
   -4.5076   -4.0652   -1.3978 O   0  0  0  0  0  0  0  0  0  0  0  0
   -3.7798   -2.1261   -0.3177 N   0  0  0  0  0  0  0  0  0  0  0  0
   -4.9924   -1.6737    0.3701 C   0  0  2  0  0  0  0  0  0  0  0  0
   -5.5517   -2.7445    1.3185 C   0  0  0  0  0  0  0  0  0  0  0  0
   -6.0277   -1.2422   -0.6459 C   0  0  0  0  0  0  0  0  0  0  0  0
   -6.5505   -2.1203   -1.3982 O   0  0  0  0  0  0  0  0  0  0  0  0
   -6.4208    0.1340   -0.8270 N   0  0  0  0  0  0  0  0  0  0  0  0
   -6.0386    1.2517    0.0520 C   0  0  2  0  0  0  0  0  0  0  0  0
   -6.7876    1.1767    1.3803 C   0  0  0  0  0  0  0  0  0  0  0  0
   -6.3313    2.5877   -0.6004 C   0  0  0  0  0  0  0  0  0  0  0  0
   -7.4085    2.7519   -1.2275 O   0  0  0  0  0  0  0  0  0  0  0  0
   -5.4041    3.6818   -0.5159 N   0  0  0  0  0  0  0  0  0  0  0  0
   -4.5824    3.9761    0.6661 C   0  0  2  0  0  0  0  0  0  0  0  0
   -5.3233    4.9255    1.5664 C   0  0  0  0  0  0  0  0  0  0  0  0
   -5.4622    4.6424    2.9591 N   0  0  0  0  0  0  0  0  0  0  0  0
   -5.8202    5.9840    1.0897 O   0  0  0  0  0  0  0  0  0  0  0  0
   -3.2383    4.5677    0.2251 C   0  0  0  0  0  0  0  0  0  0  0  0
   -2.1003    4.8162    1.6470 S   0  0  0  0  0  0  0  0  0  0  0  0
   -1.3759    3.1257    1.6945 C   0  0  0  0  0  0  0  0  0  0  0  0
    8.2913    1.4271   -0.9282 H   0  0  0  0  0  0  0  0  0  0  0  0
    7.5540    3.0205   -1.4060 H   0  0  0  0  0  0  0  0  0  0  0  0
    9.1598    2.9754   -0.6112 H   0  0  0  0  0  0  0  0  0  0  0  0
    5.9634    1.9792    2.0186 H   0  0  0  0  0  0  0  0  0  0  0  0
    4.4006    1.0290    0.6326 H   0  0  0  0  0  0  0  0  0  0  0  0
    3.8392    2.0642   -1.4188 H   0  0  0  0  0  0  0  0  0  0  0  0
    5.3676    2.9651   -1.5405 H   0  0  0  0  0  0  0  0  0  0  0  0
    3.1022    4.3212   -2.0225 H   0  0  0  0  0  0  0  0  0  0  0  0
    2.4364    5.4380   -0.8143 H   0  0  0  0  0  0  0  0  0  0  0  0
    0.9546    4.3916    1.0843 H   0  0  0  0  0  0  0  0  0  0  0  0
   -1.7173    1.3231   -0.3510 H   0  0  0  0  0  0  0  0  0  0  0  0
    1.6942    2.4836   -2.6959 H   0  0  0  0  0  0  0  0  0  0  0  0
   -1.4581    0.3867   -2.5162 H   0  0  0  0  0  0  0  0  0  0  0  0
   -0.5033    1.3468   -3.6770 H   0  0  0  0  0  0  0  0  0  0  0  0
   -0.7051   -1.2297   -1.0345 H   0  0  0  0  0  0  0  0  0  0  0  0
    1.0032   -1.0565   -0.5040 H   0  0  0  0  0  0  0  0  0  0  0  0
    0.4045   -3.4005   -0.4680 H   0  0  0  0  0  0  0  0  0  0  0  0
    2.1342   -3.0795   -2.9400 H   0  0  0  0  0  0  0  0  0  0  0  0
    2.1174   -3.2809    0.7809 H   0  0  0  0  0  0  0  0  0  0  0  0
    1.6889   -5.6909    0.5789 H   0  0  0  0  0  0  0  0  0  0  0  0
    2.7409   -5.3293    1.9976 H   0  0  0  0  0  0  0  0  0  0  0  0
    3.4778   -6.0435    0.5099 H   0  0  0  0  0  0  0  0  0  0  0  0
    5.0271   -4.0556    0.8885 H   0  0  0  0  0  0  0  0  0  0  0  0
    5.6986   -0.4842    1.9085 H   0  0  0  0  0  0  0  0  0  0  0  0
    7.0977   -3.1115    1.1797 H   0  0  0  0  0  0  0  0  0  0  0  0
    6.4023   -2.7330    2.8243 H   0  0  0  0  0  0  0  0  0  0  0  0
    7.7091   -1.7064    2.1299 H   0  0  0  0  0  0  0  0  0  0  0  0
    6.6315   -1.6989   -0.7156 H   0  0  0  0  0  0  0  0  0  0  0  0
   -2.0736   -4.9670   -2.5865 H   0  0  0  0  0  0  0  0  0  0  0  0
   -1.6429   -3.4883    0.0656 H   0  0  0  0  0  0  0  0  0  0  0  0
   -2.9673   -5.3395    1.0647 H   0  0  0  0  0  0  0  0  0  0  0  0
   -1.4323   -5.9245    0.3165 H   0  0  0  0  0  0  0  0  0  0  0  0
   -3.0135   -6.1863   -0.5252 H   0  0  0  0  0  0  0  0  0  0  0  0
   -3.0966   -1.3881   -0.6490 H   0  0  0  0  0  0  0  0  0  0  0  0
   -4.6849   -0.8249    1.0099 H   0  0  0  0  0  0  0  0  0  0  0  0
   -6.3915   -2.3061    1.8982 H   0  0  0  0  0  0  0  0  0  0  0  0
   -4.7652   -3.0829    2.0318 H   0  0  0  0  0  0  0  0  0  0  0  0
   -5.9459   -3.6224    0.7653 H   0  0  0  0  0  0  0  0  0  0  0  0
   -6.9960    0.3401   -1.6798 H   0  0  0  0  0  0  0  0  0  0  0  0
   -4.9467    1.1967    0.2280 H   0  0  0  0  0  0  0  0  0  0  0  0
   -6.4899    2.0264    2.0310 H   0  0  0  0  0  0  0  0  0  0  0  0
   -6.5519    0.2447    1.9274 H   0  0  0  0  0  0  0  0  0  0  0  0
   -7.8831    1.2204    1.2138 H   0  0  0  0  0  0  0  0  0  0  0  0
   -5.5155    4.4380   -1.2246 H   0  0  0  0  0  0  0  0  0  0  0  0
   -4.3641    3.0441    1.2188 H   0  0  0  0  0  0  0  0  0  0  0  0
   -6.0496    5.2487    3.5741 H   0  0  0  0  0  0  0  0  0  0  0  0
   -4.9096    3.8685    3.3939 H   0  0  0  0  0  0  0  0  0  0  0  0
   -2.7815    3.9180   -0.5471 H   0  0  0  0  0  0  0  0  0  0  0  0
   -3.3923    5.5558   -0.2623 H   0  0  0  0  0  0  0  0  0  0  0  0
   -0.7785    3.0302    2.6247 H   0  0  0  0  0  0  0  0  0  0  0  0
   -2.1724    2.3666    1.7690 H   0  0  0  0  0  0  0  0  0  0  0  0
  1  2  1  0
  2  3  2  0
  2  4  1  0
  4  5  1  0
  5  6  1  0
  6  7  1  0
  7  8  1  0
  8  9  1  0
  9 10  2  0
 10 11  1  0
 11 12  2  0
 12 13  1  0
 13 14  2  0
 13 15  1  0
 15 16  1  0
 16 17  1  0
 17 18  1  0
 18 19  1  0
 19 20  1  0
 20 21  2  0
 20 22  1  0
 22 23  1  0
 22 24  1  0
 24 25  1  0
 25 26  2  0
 25 27  1  0
 27 28  1  0
 27 29  1  0
 29 30  1  0
 30 31  2  0
 18 32  1  0
 32 33  2  0
 32 34  1  0
 34 35  1  0
 35 36  1  0
 35 37  1  0
 37 38  2  0
 37 39  1  0
 39 40  1  0
 40 41  1  0
 40 42  1  0
 42 43  2  0
 42 44  1  0
 44 45  1  0
 45 46  1  0
 45 47  1  0
 47 48  2  0
 47 49  1  0
 49 50  1  0
 50 51  1  0
 51 52  1  0
 51 53  2  0
 50 54  1  0
 54 55  1  0
 55 56  1  0
 30  5  1  0
 14  9  1  0
 56 11  1  0
  1 57  1  0
  1 58  1  0
  1 59  1  0
  4 60  1  0
  5 61  1  1
  6 62  1  0
  6 63  1  0
  8 64  1  0
  8 65  1  0
 10 66  1  0
 12 67  1  0
 14 68  1  0
 15 69  1  0
 15 70  1  0
 17 71  1  0
 17 72  1  0
 18 73  1  1
 19 74  1  0
 22 75  1  1
 23 76  1  0
 23 77  1  0
 23 78  1  0
 24 79  1  0
 27 80  1  1
 28 81  1  0
 28 82  1  0
 28 83  1  0
 29 84  1  0
 34 85  1  0
 35 86  1  1
 36 87  1  0
 36 88  1  0
 36 89  1  0
 39 90  1  0
 40 91  1  1
 41 92  1  0
 41 93  1  0
 41 94  1  0
 44 95  1  0
 45 96  1  1
 46 97  1  0
 46 98  1  0
 46 99  1  0
 49100  1  0
 50101  1  1
 52102  1  0
 52103  1  0
 54104  1  0
 54105  1  0
 56106  1  0
 56107  1  0
M  END
