@<TRIPOS>MOLECULE
3R0
97   99    1
SMALL
USER_CHARGES


@<TRIPOS>ATOM
      1 CA         14.9208   50.7313   16.3605 C.3       0 UNK        -0.2006 
      2 C          14.7010   51.1080   14.9030 C.2       0 UNK         0.4864 
      3 O          13.5553   51.2179   14.4642 O.2       0 UNK        -0.5092 
      4 N          15.7904   51.2953   14.1479 N.am      1 UNK        -0.4825 
      5 CA         15.7772   51.7068   12.7390 C.3       1 UNK         0.0812 
      6 C6         17.1621   51.5226   12.0677 C.3       8 UNK        -0.0932 
      7 S7         17.8727   49.8527   12.2771 S.3       8 UNK        -0.2545 
      8 C8         18.9953   49.7262   10.8423 C.3       8 UNK         0.0228 
      9 C9         19.8510   50.9737   10.6626 C.ar      8 UNK        -0.0842 
     10 C10        20.8237   51.3114   11.6089 C.ar      8 UNK        -0.0874 
     11 C11        21.5534   52.4966   11.4781 C.ar      8 UNK        -0.0867 
     12 C12        21.3249   53.3303   10.3805 C.ar      8 UNK        -0.1042 
     13 C13        20.3581   53.0030    9.4279 C.ar      8 UNK        -0.0824 
     14 C14        19.6339   51.8159    9.5681 C.ar      8 UNK        -0.1194 
     15 C15        20.0898   53.9270    8.2488 C.3       8 UNK         0.0180 
     16 S16        18.3869   54.5775    8.2664 S.3       8 UNK        -0.2273 
     17 C17        18.5337   56.1667    9.1645 C.3       8 UNK        -0.0981 
     18 CA         17.9862   56.1777   10.6234 C.3       3 UNK         0.0747 
     19 N          16.7465   55.4093   10.7641 N.am      3 UNK        -0.4794 
     20 C          15.5258   55.9087   10.9824 C.2       2 UNK         0.5067 
     21 O          15.2876   57.1086   11.1176 O.2       2 UNK        -0.4802 
     22 CA         14.3675   54.8933   11.0676 C.3       2 UNK         0.0370 
     23 CB         13.5955   54.8588    9.7390 C.3       2 UNK        -0.1774 
     24 N          14.7883   53.5280   11.4152 N.am      2 UNK        -0.4750 
     25 C          15.3250   53.1763   12.5924 C.2       1 UNK         0.5001 
     26 O          15.5260   53.9780   13.5085 O.2       1 UNK        -0.4889 
     27 C          19.0265   55.7653   11.6853 C.2       3 UNK         0.4972 
     28 O          20.2135   56.0285   11.4963 O.2       3 UNK        -0.4802 
     29 N          18.5761   55.1733   12.8066 N.am      4 UNK        -0.4926 
     30 CA         19.4024   54.6204   13.8940 C.3       4 UNK         0.0426 
     31 CB         18.4924   54.1016   15.0181 C.3       4 UNK        -0.1835 
     32 C          20.4736   55.5612   14.4834 C.2       4 UNK         0.5138 
     33 O          21.5040   55.0788   14.9548 O.2       4 UNK        -0.5194 
     34 N          20.2337   56.8774   14.4269 N.am      5 UNK        -0.4222 
     35 CA         21.1782   57.9127   14.8526 C.3       5 UNK         0.0221 
     36 CB         20.4441   59.2611   14.9307 C.3       5 UNK        -0.2034 
     37 C          22.4230   58.0344   13.9521 C.2       5 UNK         0.4987 
     38 O          23.4620   58.4885   14.4337 O.2       5 UNK        -0.5478 
     39 N          22.3206   57.6328   12.6747 N.am      6 UNK        -0.4365 
     40 CA         23.3832   57.7776   11.6707 C.3       6 UNK         0.0273 
     41 CB         22.8061   57.5231   10.2684 C.3       6 UNK        -0.1956 
     42 C          24.6165   56.8896   11.9175 C.2       6 UNK         0.4962 
     43 O          25.6822   57.1861   11.3745 O.2       6 UNK        -0.5385 
     44 N          24.4633   55.8369   12.7296 N.am      7 UNK        -0.4054 
     45 CA         25.5599   54.9665   13.1813 C.3       7 UNK         0.0701 
     46 C          26.3812   55.5645   14.3602 C.2       7 UNK         0.5602 
     47 N          25.9965   56.6920   14.9493 N.am      7 UNK        -0.7339 
     48 O          27.4007   54.9967   14.7435 O.2       7 UNK        -0.5126 
     49 C49        25.0696   53.5290   13.5064 C.3       8 UNK        -0.0906 
     50 S50        24.2600   52.7099   12.0880 S.3       8 UNK        -0.2590 
     51 C51        22.5221   52.9313   12.5636 C.3       8 UNK         0.0201 
     52 H52        15.9798   50.6588   16.6077 H         1 UNK         0.0901 
     53 H53        14.4560   49.7690   16.5739 H         1 UNK         0.0901 
     54 H54        14.4712   51.4797   17.0125 H         1 UNK         0.0901 
     55 H55        16.7064   51.1779   14.5555 H         1 UNK         0.3005 
     56 H56        15.0522   51.0759   12.2193 H         1 UNK         0.1258 
     57 H57        17.8860   52.2384   12.4618 H         1 UNK         0.0713 
     58 H58        17.0826   51.7286   10.9987 H         1 UNK         0.0713 
     59 H59        18.4010   49.5338    9.9477 H         1 UNK         0.0869 
     60 H60        19.6426   48.8576   10.9707 H         1 UNK         0.0869 
     61 H61        20.9788   50.6715   12.4670 H         1 UNK         0.1451 
     62 H62        21.8807   54.2523   10.2888 H         1 UNK         0.1348 
     63 H63        18.8782   51.5657    8.8359 H         1 UNK         0.1248 
     64 H64        20.8059   54.7494    8.2164 H         1 UNK         0.0802 
     65 H65        20.2350   53.3623    7.3270 H         1 UNK         0.0802 
     66 H66        17.9526   56.8854    8.5849 H         1 UNK         0.0831 
     67 H67        19.5583   56.5379    9.1071 H         1 UNK         0.0831 
     68 H68        17.7828   57.2229   10.8677 H         1 UNK         0.1266 
     69 H69        16.8404   54.4114   10.6449 H         1 UNK         0.2858 
     70 H70        13.6869   55.2413   11.8475 H         1 UNK         0.0493 
     71 H71        13.2389   55.8538    9.4688 H         1 UNK         0.0858 
     72 H72        14.2200   54.5043    8.9179 H         1 UNK         0.0858 
     73 H73        12.7209   54.2113    9.8023 H         1 UNK         0.0858 
     74 H74        14.6647   52.8242   10.7006 H         1 UNK         0.2998 
     75 H75        17.5771   55.0363   12.8956 H         1 UNK         0.2942 
     76 H76        19.9300   53.7626   13.4771 H         1 UNK         0.0588 
     77 H77        17.8436   54.8869   15.4076 H         1 UNK         0.0836 
     78 H78        19.0783   53.7166   15.8542 H         1 UNK         0.0836 
     79 H79        17.8605   53.2852   14.6741 H         1 UNK         0.0836 
     80 H80        19.3611   57.1843   14.0227 H         1 UNK         0.3003 
     81 H81        21.5290   57.6558   15.8547 H         1 UNK         0.0959 
     82 H82        20.0534   59.5659   13.9589 H         1 UNK         0.0808 
     83 H83        19.6102   59.2200   15.6317 H         1 UNK         0.0808 
     84 H84        21.1143   60.0506   15.2742 H         1 UNK         0.0808 
     85 H85        21.4544   57.2065   12.3537 H         1 UNK         0.3181 
     86 H86        23.7267   58.8138   11.7075 H         1 UNK         0.0819 
     87 H87        22.4790   56.4911   10.1473 H         1 UNK         0.0823 
     88 H88        23.5537   57.7175    9.4982 H         1 UNK         0.0823 
     89 H89        21.9541   58.1713   10.0631 H         1 UNK         0.0823 
     90 H90        23.5638   55.6888   13.1615 H         1 UNK         0.3159 
     91 H91        26.2724   54.8782   12.3593 H         1 UNK         0.0870 
     92 H92        26.5502   57.0593   15.7067 H         1 UNK         0.3462 
     93 H93        25.1676   57.1899   14.6489 H         1 UNK         0.3462 
     94 H94        25.9125   52.8998   13.7988 H         1 UNK         0.0763 
     95 H95        24.3945   53.5396   14.3646 H         1 UNK         0.0763 
     96 H96        22.3494   53.9862   12.7681 H         1 UNK         0.0881 
     97 H97        22.3255   52.3985   13.4955 H         1 UNK         0.0881 
@<TRIPOS>BOND
     1    1    2 1    
     2    1   52 1    
     3    1   53 1    
     4    1   54 1    
     5    2    3 2    
     6    2    4 am   BACKBONE|DICT|INTERRES
     7    4    5 1    
     8    4   55 1    
     9    5    6 1    
    10    5   25 1    
    11    5   56 1    
    12    6    7 1    
    13    6   57 1    
    14    6   58 1    
    15    7    8 1    
    16    8    9 1    
    17    8   59 1    
    18    8   60 1    
    19    9   10 ar   
    20    9   14 ar   
    21   10   11 ar   
    22   10   61 1    
    23   11   12 ar   
    24   11   51 1    
    25   12   13 ar   
    26   12   62 1    
    27   13   14 ar   
    28   13   15 1    
    29   14   63 1    
    30   15   16 1    
    31   15   64 1    
    32   15   65 1    
    33   16   17 1    
    34   17   18 1    
    35   17   66 1    
    36   17   67 1    
    37   18   19 1    
    38   18   27 1    
    39   18   68 1    
    40   19   20 am   BACKBONE|DICT|INTERRES
    41   19   69 1    
    42   20   21 2    
    43   20   22 1    
    44   22   23 1    
    45   22   24 1    
    46   22   70 1    
    47   23   71 1    
    48   23   72 1    
    49   23   73 1    
    50   24   25 am   BACKBONE|DICT|INTERRES
    51   24   74 1    
    52   25   26 2    
    53   27   28 2    
    54   27   29 am   BACKBONE|DICT|INTERRES
    55   29   30 1    
    56   29   75 1    
    57   30   31 1    
    58   30   32 1    
    59   30   76 1    
    60   31   77 1    
    61   31   78 1    
    62   31   79 1    
    63   32   33 2    
    64   32   34 am   BACKBONE|DICT|INTERRES
    65   34   35 1    
    66   34   80 1    
    67   35   36 1    
    68   35   37 1    
    69   35   81 1    
    70   36   82 1    
    71   36   83 1    
    72   36   84 1    
    73   37   38 2    
    74   37   39 am   BACKBONE|DICT|INTERRES
    75   39   40 1    
    76   39   85 1    
    77   40   41 1    
    78   40   42 1    
    79   40   86 1    
    80   41   87 1    
    81   41   88 1    
    82   41   89 1    
    83   42   43 2    
    84   42   44 am   BACKBONE|DICT|INTERRES
    85   44   45 1    
    86   44   90 1    
    87   45   46 1    
    88   45   49 1    
    89   45   91 1    
    90   46   47 am   BACKBONE|DICT|INTERRES
    91   46   48 2    
    92   47   92 1    
    93   47   93 1    
    94   49   50 1    
    95   49   94 1    
    96   49   95 1    
    97   50   51 1    
    98   51   96 1    
    99   51   97 1    
@<TRIPOS>SUBSTRUCTURE
     1 UNK         1 GROUP             0       ****    0 ROOT    
