@<TRIPOS>MOLECULE
3R0
97   99    1
SMALL
USER_CHARGES


@<TRIPOS>ATOM
      1 CA         14.6379   51.3040   11.0481 C.3       0 UNK        -0.2006 
      2 C          15.3210   52.1756   10.0056 C.2       0 UNK         0.4864 
      3 O          14.6410   52.8796    9.2590 O.2       0 UNK        -0.5092 
      4 N          16.6577   52.1180    9.9362 N.am      1 UNK        -0.4825 
      5 CA         17.4799   52.8390    8.9539 C.3       1 UNK         0.0812 
      6 C6         18.9335   52.2979    8.8896 C.3       8 UNK        -0.0932 
      7 S7         18.9964   50.4844    8.6836 S.3       8 UNK        -0.2545 
      8 C8         20.4263   50.0179    9.7224 C.3       8 UNK         0.0228 
      9 C9         20.3057   50.3899   11.2013 C.ar      8 UNK        -0.0842 
     10 C10        21.4402   50.8445   11.8808 C.ar      8 UNK        -0.0874 
     11 C11        21.3791   51.1837   13.2361 C.ar      8 UNK        -0.0867 
     12 C12        20.1702   51.0467   13.9212 C.ar      8 UNK        -0.1042 
     13 C13        19.0256   50.5976   13.2579 C.ar      8 UNK        -0.0824 
     14 C14        19.1011   50.2577   11.9027 C.ar      8 UNK        -0.1194 
     15 C15        17.7089   50.4742   14.0080 C.3       8 UNK         0.0180 
     16 S16        16.7146   51.9912   13.8590 S.3       8 UNK        -0.2273 
     17 C17        17.4974   53.1151   15.0690 C.3       8 UNK        -0.0981 
     18 CA         18.4773   54.1288   14.4257 C.3       3 UNK         0.0747 
     19 N          17.8818   54.8314   13.2851 N.am      3 UNK        -0.4794 
     20 C          18.5022   55.7189   12.4963 C.2       2 UNK         0.5067 
     21 O          19.6172   56.1928   12.7273 O.2       2 UNK        -0.4802 
     22 CA         17.8138   55.9956   11.1541 C.3       2 UNK         0.0370 
     23 CB         18.5926   57.0350   10.3160 C.3       2 UNK        -0.1774 
     24 N          17.7274   54.6850   10.5059 N.am      2 UNK        -0.4750 
     25 C          17.4813   54.3545    9.2328 C.2       1 UNK         0.5001 
     26 O          17.2530   55.1516    8.3229 O.2       1 UNK        -0.4889 
     27 C          19.0333   55.1018   15.4808 C.2       3 UNK         0.4972 
     28 O          18.2818   55.9374   15.9850 O.2       3 UNK        -0.4802 
     29 N          20.3452   55.0122   15.7449 N.am      4 UNK        -0.4926 
     30 CA         21.1696   55.8598   16.6217 C.3       4 UNK         0.0426 
     31 CB         20.6658   55.8270   18.0777 C.3       4 UNK        -0.1835 
     32 C          21.3671   57.3109   16.1345 C.2       4 UNK         0.5138 
     33 O          22.3955   57.9083   16.4542 O.2       4 UNK        -0.5194 
     34 N          20.4076   57.8503   15.3720 N.am      5 UNK        -0.4222 
     35 CA         20.4431   59.1848   14.7737 C.3       5 UNK         0.0221 
     36 CB         19.0447   59.5424   14.2432 C.3       5 UNK        -0.2034 
     37 C          21.4926   59.3094   13.6580 C.2       5 UNK         0.4987 
     38 O          22.1670   60.3376   13.5809 O.2       5 UNK        -0.5478 
     39 N          21.6146   58.2686   12.8243 N.am      6 UNK        -0.4365 
     40 CA         22.5830   58.1997   11.7261 C.3       6 UNK         0.0273 
     41 CB         22.0587   58.9644   10.4957 C.3       6 UNK        -0.1956 
     42 C          22.9793   56.7642   11.3491 C.2       6 UNK         0.4962 
     43 O          24.0945   56.5785   10.8603 O.2       6 UNK        -0.5385 
     44 N          22.0866   55.7848   11.5611 N.am      7 UNK        -0.4054 
     45 CA         22.2745   54.3550   11.2482 C.3       7 UNK         0.0701 
     46 C          22.4196   54.0239    9.7317 C.2       7 UNK         0.5602 
     47 N          22.0442   54.9136    8.8214 N.am      7 UNK        -0.7339 
     48 O          22.8348   52.9274    9.3672 O.2       7 UNK        -0.5126 
     49 C49        23.3688   53.6952   12.1387 C.3       8 UNK        -0.0906 
     50 S50        22.7971   53.4922   13.8600 S.3       8 UNK        -0.2590 
     51 C51        22.6181   51.6807   13.9692 C.3       8 UNK         0.0201 
     52 H52        15.3280   50.5887   11.4949 H         1 UNK         0.0901 
     53 H53        13.8221   50.7428   10.5934 H         1 UNK         0.0901 
     54 H54        14.2240   51.9238   11.8430 H         1 UNK         0.0901 
     55 H55        17.1638   51.5079   10.5613 H         1 UNK         0.3005 
     56 H56        17.0237   52.6925    7.9718 H         1 UNK         0.1258 
     57 H57        19.4724   52.7528    8.0562 H         1 UNK         0.0713 
     58 H58        19.4867   52.5723    9.7893 H         1 UNK         0.0713 
     59 H59        20.5699   48.9393    9.6500 H         1 UNK         0.0869 
     60 H60        21.3175   50.4747    9.2883 H         1 UNK         0.0869 
     61 H61        22.3772   50.9297   11.3487 H         1 UNK         0.1451 
     62 H62        20.1178   51.2985   14.9716 H         1 UNK         0.1348 
     63 H63        18.2219   49.8857   11.3959 H         1 UNK         0.1248 
     64 H64        17.1342   49.6396   13.6035 H         1 UNK         0.0802 
     65 H65        17.8802   50.2390   15.0595 H         1 UNK         0.0802 
     66 H66        18.0027   52.5260   15.8364 H         1 UNK         0.0831 
     67 H67        16.6916   53.6441   15.5821 H         1 UNK         0.0831 
     68 H68        19.3186   53.5701   14.0149 H         1 UNK         0.1266 
     69 H69        16.9529   54.5252   13.0337 H         1 UNK         0.2858 
     70 H70        16.8066   56.3661   11.3508 H         1 UNK         0.0493 
     71 H71        19.5539   56.6452    9.9822 H         1 UNK         0.0858 
     72 H72        18.0317   57.3437    9.4348 H         1 UNK         0.0858 
     73 H73        18.7833   57.9409   10.8930 H         1 UNK         0.0858 
     74 H74        17.8851   53.9126   11.1397 H         1 UNK         0.2998 
     75 H75        20.8817   54.3283   15.2254 H         1 UNK         0.2942 
     76 H76        22.1601   55.4017   16.6113 H         1 UNK         0.0588 
     77 H77        21.3575   56.3516   18.7382 H         1 UNK         0.0836 
     78 H78        20.5804   54.8047   18.4458 H         1 UNK         0.0836 
     79 H79        19.6930   56.3069   18.1868 H         1 UNK         0.0836 
     80 H80        19.5797   57.2896   15.2074 H         1 UNK         0.3003 
     81 H81        20.7062   59.8979   15.5581 H         1 UNK         0.0959 
     82 H82        18.3032   59.5316   15.0422 H         1 UNK         0.0808 
     83 H83        19.0372   60.5427   13.8080 H         1 UNK         0.0808 
     84 H84        18.7140   58.8479   13.4701 H         1 UNK         0.0808 
     85 H85        20.9973   57.4742   12.9625 H         1 UNK         0.3181 
     86 H86        23.5044   58.6844   12.0574 H         1 UNK         0.0819 
     87 H87        21.1112   58.5614   10.1408 H         1 UNK         0.0823 
     88 H88        21.9089   60.0209   10.7184 H         1 UNK         0.0823 
     89 H89        22.7681   58.9092    9.6688 H         1 UNK         0.0823 
     90 H90        21.1773   56.0095   11.9552 H         1 UNK         0.3159 
     91 H91        21.3255   53.8819   11.5027 H         1 UNK         0.0870 
     92 H92        21.7135   55.8231    9.0949 H         1 UNK         0.3462 
     93 H93        22.1350   54.6814    7.8453 H         1 UNK         0.3462 
     94 H94        23.6753   52.7227   11.7556 H         1 UNK         0.0763 
     95 H95        24.2821   54.2906   12.1444 H         1 UNK         0.0763 
     96 H96        22.5608   51.4000   15.0220 H         1 UNK         0.0881 
     97 H97        23.5136   51.1926   13.5815 H         1 UNK         0.0881 
@<TRIPOS>BOND
     1    1    2 1    
     2    1   52 1    
     3    1   53 1    
     4    1   54 1    
     5    2    3 2    
     6    2    4 am   BACKBONE|DICT|INTERRES
     7    4    5 1    
     8    4   55 1    
     9    5    6 1    
    10    5   25 1    
    11    5   56 1    
    12    6    7 1    
    13    6   57 1    
    14    6   58 1    
    15    7    8 1    
    16    8    9 1    
    17    8   59 1    
    18    8   60 1    
    19    9   10 ar   
    20    9   14 ar   
    21   10   11 ar   
    22   10   61 1    
    23   11   12 ar   
    24   11   51 1    
    25   12   13 ar   
    26   12   62 1    
    27   13   14 ar   
    28   13   15 1    
    29   14   63 1    
    30   15   16 1    
    31   15   64 1    
    32   15   65 1    
    33   16   17 1    
    34   17   18 1    
    35   17   66 1    
    36   17   67 1    
    37   18   19 1    
    38   18   27 1    
    39   18   68 1    
    40   19   20 am   BACKBONE|DICT|INTERRES
    41   19   69 1    
    42   20   21 2    
    43   20   22 1    
    44   22   23 1    
    45   22   24 1    
    46   22   70 1    
    47   23   71 1    
    48   23   72 1    
    49   23   73 1    
    50   24   25 am   BACKBONE|DICT|INTERRES
    51   24   74 1    
    52   25   26 2    
    53   27   28 2    
    54   27   29 am   BACKBONE|DICT|INTERRES
    55   29   30 1    
    56   29   75 1    
    57   30   31 1    
    58   30   32 1    
    59   30   76 1    
    60   31   77 1    
    61   31   78 1    
    62   31   79 1    
    63   32   33 2    
    64   32   34 am   BACKBONE|DICT|INTERRES
    65   34   35 1    
    66   34   80 1    
    67   35   36 1    
    68   35   37 1    
    69   35   81 1    
    70   36   82 1    
    71   36   83 1    
    72   36   84 1    
    73   37   38 2    
    74   37   39 am   BACKBONE|DICT|INTERRES
    75   39   40 1    
    76   39   85 1    
    77   40   41 1    
    78   40   42 1    
    79   40   86 1    
    80   41   87 1    
    81   41   88 1    
    82   41   89 1    
    83   42   43 2    
    84   42   44 am   BACKBONE|DICT|INTERRES
    85   44   45 1    
    86   44   90 1    
    87   45   46 1    
    88   45   49 1    
    89   45   91 1    
    90   46   47 am   BACKBONE|DICT|INTERRES
    91   46   48 2    
    92   47   92 1    
    93   47   93 1    
    94   49   50 1    
    95   49   94 1    
    96   49   95 1    
    97   50   51 1    
    98   51   96 1    
    99   51   97 1    
@<TRIPOS>SUBSTRUCTURE
     1 UNK         1 GROUP             0       ****    0 ROOT    
