@<TRIPOS>MOLECULE
3R0
97   99    1
SMALL
USER_CHARGES


@<TRIPOS>ATOM
      1 CA         20.1551   47.1221    8.0000 C.3       0 UNK        -0.2006 
      2 C          19.1752   47.6090    9.0573 C.2       0 UNK         0.4864 
      3 O          18.2272   46.8958    9.3882 O.2       0 UNK        -0.5092 
      4 N          19.3976   48.8144    9.5897 N.am      1 UNK        -0.4825 
      5 CA         18.5694   49.4410   10.6189 C.3       1 UNK         0.0812 
      6 C6         17.2687   50.0822   10.0537 C.3       8 UNK        -0.0932 
      7 S7         17.5151   51.3317    8.7375 S.3       8 UNK        -0.2545 
      8 C8         16.0585   52.4010    8.9593 C.3       8 UNK         0.0228 
      9 C9         16.1511   53.2854   10.1975 C.ar      8 UNK        -0.0842 
     10 C10        16.8047   54.5217   10.1381 C.ar      8 UNK        -0.0874 
     11 C11        16.8055   55.3762   11.2463 C.ar      8 UNK        -0.0867 
     12 C12        16.1721   54.9746   12.4260 C.ar      8 UNK        -0.1042 
     13 C13        15.5344   53.7343   12.5043 C.ar      8 UNK        -0.0824 
     14 C14        15.5207   52.8992   11.3846 C.ar      8 UNK        -0.1194 
     15 C15        14.8117   53.3141   13.7759 C.3       8 UNK         0.0180 
     16 S16        15.8616   52.2942   14.8583 S.3       8 UNK        -0.2273 
     17 C17        16.9317   53.5497   15.6403 C.3       8 UNK        -0.0981 
     18 CA         18.4381   53.2874   15.4002 C.3       3 UNK         0.0747 
     19 N          18.7690   53.2247   13.9699 N.am      3 UNK        -0.4794 
     20 C          19.9240   52.7643   13.4749 C.2       2 UNK         0.5067 
     21 O          20.8478   52.3378   14.1693 O.2       2 UNK        -0.4802 
     22 CA         20.0402   52.7771   11.9437 C.3       2 UNK         0.0370 
     23 CB         21.5053   52.7961   11.4579 C.3       2 UNK        -0.1774 
     24 N          19.2902   51.6855   11.3193 N.am      2 UNK        -0.4750 
     25 C          19.4728   50.3648   11.4562 C.2       1 UNK         0.5001 
     26 O          20.3324   49.8548   12.1761 O.2       1 UNK        -0.4889 
     27 C          19.2911   54.3109   16.1845 C.2       3 UNK         0.4972 
     28 O          19.3768   54.2037   17.4085 O.2       3 UNK        -0.4802 
     29 N          19.9026   55.2738   15.4840 N.am      4 UNK        -0.4926 
     30 CA         20.8321   56.2630   16.0212 C.3       4 UNK         0.0426 
     31 CB         20.0996   57.6063   16.1774 C.3       4 UNK        -0.1835 
     32 C          22.0150   56.4021   15.0562 C.2       4 UNK         0.5138 
     33 O          21.8678   56.1187   13.8653 O.2       4 UNK        -0.5194 
     34 N          23.1551   56.8880   15.5665 N.am      5 UNK        -0.4222 
     35 CA         24.3796   57.1310   14.7889 C.3       5 UNK         0.0221 
     36 CB         25.5093   57.5693   15.7349 C.3       5 UNK        -0.2034 
     37 C          24.2009   58.1546   13.6515 C.2       5 UNK         0.4987 
     38 O          24.8606   58.0377   12.6179 O.2       5 UNK        -0.5478 
     39 N          23.2743   59.1053   13.8407 N.am      6 UNK        -0.4365 
     40 CA         22.8537   60.0986   12.8484 C.3       6 UNK         0.0273 
     41 CB         21.9085   61.1071   13.5226 C.3       6 UNK        -0.1956 
     42 C          22.1891   59.4990   11.5928 C.2       6 UNK         0.4962 
     43 O          22.1347   60.1818   10.5685 O.2       6 UNK        -0.5385 
     44 N          21.7032   58.2533   11.6791 N.am      7 UNK        -0.4054 
     45 CA         21.1354   57.4990   10.5522 C.3       7 UNK         0.0701 
     46 C          22.2007   56.9659    9.5521 C.2       7 UNK         0.5602 
     47 N          23.4919   56.9993    9.8640 N.am      7 UNK        -0.7339 
     48 O          21.8461   56.5176    8.4651 O.2       7 UNK        -0.5126 
     49 C49        20.2191   56.3473   11.0395 C.3       8 UNK        -0.0906 
     50 S50        18.9180   56.9041   12.1912 S.3       8 UNK        -0.2590 
     51 C51        17.4250   56.7640   11.1634 C.3       8 UNK         0.0201 
     52 H52        20.9390   47.8531    7.8027 H         1 UNK         0.0901 
     53 H53        19.6308   46.9273    7.0648 H         1 UNK         0.0901 
     54 H54        20.6285   46.1961    8.3251 H         1 UNK         0.0901 
     55 H55        20.2062   49.3514    9.3062 H         1 UNK         0.3005 
     56 H56        18.2578   48.6596   11.3168 H         1 UNK         0.1258 
     57 H57        16.6331   49.2984    9.6391 H         1 UNK         0.0713 
     58 H58        16.6942   50.5075   10.8749 H         1 UNK         0.0713 
     59 H59        15.9509   53.0292    8.0738 H         1 UNK         0.0869 
     60 H60        15.1594   51.7836    8.9961 H         1 UNK         0.0869 
     61 H61        17.2786   54.8327    9.2168 H         1 UNK         0.1451 
     62 H62        16.1603   55.6432   13.2759 H         1 UNK         0.1348 
     63 H63        14.9953   51.9553   11.4340 H         1 UNK         0.1248 
     64 H64        13.9221   52.7389   13.5150 H         1 UNK         0.0802 
     65 H65        14.4516   54.1868   14.3230 H         1 UNK         0.0802 
     66 H66        16.7112   53.5369   16.7096 H         1 UNK         0.0831 
     67 H67        16.6574   54.5466   15.2937 H         1 UNK         0.0831 
     68 H68        18.6766   52.3097   15.8261 H         1 UNK         0.1266 
     69 H69        18.0454   53.5278   13.3317 H         1 UNK         0.2858 
     70 H70        19.5614   53.6920   11.5970 H         1 UNK         0.0493 
     71 H71        22.0341   51.8771   11.7113 H         1 UNK         0.0858 
     72 H72        21.5627   52.9301   10.3779 H         1 UNK         0.0858 
     73 H73        22.0582   53.6164   11.9176 H         1 UNK         0.0858 
     74 H74        18.5509   51.9739   10.6886 H         1 UNK         0.2998 
     75 H75        19.8362   55.2629   14.4734 H         1 UNK         0.2942 
     76 H76        21.2166   55.9388   16.9906 H         1 UNK         0.0588 
     77 H77        20.7583   58.3710   16.5904 H         1 UNK         0.0836 
     78 H78        19.2489   57.5153   16.8529 H         1 UNK         0.0836 
     79 H79        19.7269   57.9752   15.2206 H         1 UNK         0.0836 
     80 H80        23.1951   57.0989   16.5537 H         1 UNK         0.3003 
     81 H81        24.6671   56.1843   14.3257 H         1 UNK         0.0959 
     82 H82        25.7149   56.8084   16.4882 H         1 UNK         0.0808 
     83 H83        26.4365   57.7347   15.1840 H         1 UNK         0.0808 
     84 H84        25.2674   58.4989   16.2517 H         1 UNK         0.0808 
     85 H85        22.7932   59.1225   14.7278 H         1 UNK         0.3181 
     86 H86        23.7469   60.6318   12.5159 H         1 UNK         0.0819 
     87 H87        21.0019   60.6261   13.8926 H         1 UNK         0.0823 
     88 H88        22.3921   61.6078   14.3616 H         1 UNK         0.0823 
     89 H89        21.6008   61.8834   12.8203 H         1 UNK         0.0823 
     90 H90        21.7902   57.7352   12.5459 H         1 UNK         0.3159 
     91 H91        20.5132   58.1877    9.9781 H         1 UNK         0.0870 
     92 H92        24.1660   56.6528    9.2003 H         1 UNK         0.3462 
     93 H93        23.8046   57.3679   10.7528 H         1 UNK         0.3462 
     94 H94        20.8213   55.6036   11.5580 H         1 UNK         0.0763 
     95 H95        19.7608   55.8296   10.1947 H         1 UNK         0.0763 
     96 H96        17.6523   57.0384   10.1320 H         1 UNK         0.0881 
     97 H97        16.6949   57.4955   11.5128 H         1 UNK         0.0881 
@<TRIPOS>BOND
     1    1    2 1    
     2    1   52 1    
     3    1   53 1    
     4    1   54 1    
     5    2    3 2    
     6    2    4 am   BACKBONE|DICT|INTERRES
     7    4    5 1    
     8    4   55 1    
     9    5    6 1    
    10    5   25 1    
    11    5   56 1    
    12    6    7 1    
    13    6   57 1    
    14    6   58 1    
    15    7    8 1    
    16    8    9 1    
    17    8   59 1    
    18    8   60 1    
    19    9   10 ar   
    20    9   14 ar   
    21   10   11 ar   
    22   10   61 1    
    23   11   12 ar   
    24   11   51 1    
    25   12   13 ar   
    26   12   62 1    
    27   13   14 ar   
    28   13   15 1    
    29   14   63 1    
    30   15   16 1    
    31   15   64 1    
    32   15   65 1    
    33   16   17 1    
    34   17   18 1    
    35   17   66 1    
    36   17   67 1    
    37   18   19 1    
    38   18   27 1    
    39   18   68 1    
    40   19   20 am   BACKBONE|DICT|INTERRES
    41   19   69 1    
    42   20   21 2    
    43   20   22 1    
    44   22   23 1    
    45   22   24 1    
    46   22   70 1    
    47   23   71 1    
    48   23   72 1    
    49   23   73 1    
    50   24   25 am   BACKBONE|DICT|INTERRES
    51   24   74 1    
    52   25   26 2    
    53   27   28 2    
    54   27   29 am   BACKBONE|DICT|INTERRES
    55   29   30 1    
    56   29   75 1    
    57   30   31 1    
    58   30   32 1    
    59   30   76 1    
    60   31   77 1    
    61   31   78 1    
    62   31   79 1    
    63   32   33 2    
    64   32   34 am   BACKBONE|DICT|INTERRES
    65   34   35 1    
    66   34   80 1    
    67   35   36 1    
    68   35   37 1    
    69   35   81 1    
    70   36   82 1    
    71   36   83 1    
    72   36   84 1    
    73   37   38 2    
    74   37   39 am   BACKBONE|DICT|INTERRES
    75   39   40 1    
    76   39   85 1    
    77   40   41 1    
    78   40   42 1    
    79   40   86 1    
    80   41   87 1    
    81   41   88 1    
    82   41   89 1    
    83   42   43 2    
    84   42   44 am   BACKBONE|DICT|INTERRES
    85   44   45 1    
    86   44   90 1    
    87   45   46 1    
    88   45   49 1    
    89   45   91 1    
    90   46   47 am   BACKBONE|DICT|INTERRES
    91   46   48 2    
    92   47   92 1    
    93   47   93 1    
    94   49   50 1    
    95   49   94 1    
    96   49   95 1    
    97   50   51 1    
    98   51   96 1    
    99   51   97 1    
@<TRIPOS>SUBSTRUCTURE
     1 UNK         1 GROUP             0       ****    0 ROOT    
