@<TRIPOS>MOLECULE
3R0
97   99    1
SMALL
USER_CHARGES


@<TRIPOS>ATOM
      1 CA         14.6428   51.8390    6.7989 C.3       0 UNK        -0.2006 
      2 C          15.6558   52.7130    7.5232 C.2       0 UNK         0.4864 
      3 O          15.7623   53.9029    7.2241 O.2       0 UNK        -0.5092 
      4 N          16.4063   52.1299    8.4656 N.am      1 UNK        -0.4825 
      5 CA         17.3942   52.8277    9.2943 C.3       1 UNK         0.0812 
      6 C6         18.3107   51.8350   10.0449 C.3       8 UNK        -0.0932 
      7 S7         19.4507   50.9279    8.9510 S.3       8 UNK        -0.2545 
      8 C8         19.9916   49.5656   10.0397 C.3       8 UNK         0.0228 
      9 C9         20.4079   50.0601   11.4193 C.ar      8 UNK        -0.0842 
     10 C10        21.6638   50.6374   11.6224 C.ar      8 UNK        -0.0874 
     11 C11        22.0208   51.1388   12.8798 C.ar      8 UNK        -0.0867 
     12 C12        21.1112   51.0506   13.9404 C.ar      8 UNK        -0.1042 
     13 C13        19.8592   50.4564   13.7506 C.ar      8 UNK        -0.0824 
     14 C14        19.5192   49.9575   12.4918 C.ar      8 UNK        -0.1194 
     15 C15        18.8657   50.3264   14.8945 C.3       8 UNK         0.0180 
     16 S16        17.5168   51.5424   14.7491 S.3       8 UNK        -0.2273 
     17 C17        18.1718   52.9492   15.7050 C.3       8 UNK        -0.0981 
     18 CA         18.8233   54.0463   14.8289 C.3       3 UNK         0.0747 
     19 N          17.8928   54.5652   13.8102 N.am      3 UNK        -0.4794 
     20 C          18.1831   55.4768   12.8731 C.2       2 UNK         0.5067 
     21 O          19.2564   56.0747   12.8106 O.2       2 UNK        -0.4802 
     22 CA         17.1179   55.7190   11.7980 C.3       2 UNK         0.0370 
     23 CB         17.1207   57.1743   11.3000 C.3       2 UNK        -0.1774 
     24 N          17.4293   54.8335   10.6813 N.am      2 UNK        -0.4750 
     25 C          16.7207   53.7579   10.3234 C.2       1 UNK         0.5001 
     26 O          15.6310   53.4526   10.8156 O.2       1 UNK        -0.4889 
     27 C          19.4495   55.1201   15.7466 C.2       3 UNK         0.4972 
     28 O          20.4970   54.8627   16.3416 O.2       3 UNK        -0.4802 
     29 N          18.8109   56.2939   15.8547 N.am      4 UNK        -0.4926 
     30 CA         19.2909   57.4714   16.5788 C.3       4 UNK         0.0426 
     31 CB         18.1199   58.4550   16.7531 C.3       4 UNK        -0.1835 
     32 C          20.5001   58.1218   15.8757 C.2       4 UNK         0.5138 
     33 O          20.3562   59.1631   15.2331 O.2       4 UNK        -0.5194 
     34 N          21.6627   57.4658   15.9851 N.am      5 UNK        -0.4222 
     35 CA         23.0034   57.8381   15.5071 C.3       5 UNK         0.0221 
     36 CB         23.4740   59.1557   16.1545 C.3       5 UNK        -0.2034 
     37 C          23.1919   57.8848   13.9781 C.2       5 UNK         0.4987 
     38 O          24.3030   57.6237   13.5163 O.2       5 UNK        -0.5478 
     39 N          22.1422   58.2240   13.2204 N.am      6 UNK        -0.4365 
     40 CA         22.1563   58.3320   11.7593 C.3       6 UNK         0.0273 
     41 CB         20.8600   59.0070   11.2840 C.3       6 UNK        -0.1956 
     42 C          22.3690   56.9842   11.0483 C.2       6 UNK         0.4962 
     43 O          23.1335   56.9304   10.0833 O.2       6 UNK        -0.5385 
     44 N          21.6994   55.9351   11.5425 N.am      7 UNK        -0.4054 
     45 CA         21.7010   54.5636   11.0149 C.3       7 UNK         0.0701 
     46 C          21.1045   54.5106    9.5818 C.2       7 UNK         0.5602 
     47 N          21.7562   53.8829    8.6132 N.am      7 UNK        -0.7339 
     48 O          19.9986   55.0011    9.3621 O.2       7 UNK        -0.5126 
     49 C49        23.0652   53.8440   11.2176 C.3       8 UNK        -0.0906 
     50 S50        23.3976   53.5647   12.9914 S.3       8 UNK        -0.2590 
     51 C51        23.4013   51.7450   13.1007 C.3       8 UNK         0.0201 
     52 H52        14.6661   50.8084    7.1528 H         1 UNK         0.0901 
     53 H53        14.8484   51.8345    5.7287 H         1 UNK         0.0901 
     54 H54        13.6360   52.2271    6.9513 H         1 UNK         0.0901 
     55 H55        16.2714   51.1520    8.6780 H         1 UNK         0.3005 
     56 H56        18.0067   53.4435    8.6316 H         1 UNK         0.1258 
     57 H57        17.7084   51.1211   10.6098 H         1 UNK         0.0713 
     58 H58        18.9302   52.3594   10.7763 H         1 UNK         0.0713 
     59 H59        20.8238   49.0408    9.5684 H         1 UNK         0.0869 
     60 H60        19.1835   48.8374   10.1243 H         1 UNK         0.0869 
     61 H61        22.3571   50.6998   10.7953 H         1 UNK         0.1451 
     62 H62        21.3832   51.4356   14.9140 H         1 UNK         0.1348 
     63 H63        18.5472   49.5064   12.3437 H         1 UNK         0.1248 
     64 H64        18.4309   49.3259   14.8741 H         1 UNK         0.0802 
     65 H65        19.3643   50.4126   15.8607 H         1 UNK         0.0802 
     66 H66        18.8795   52.5733   16.4466 H         1 UNK         0.0831 
     67 H67        17.3426   53.3703   16.2771 H         1 UNK         0.0831 
     68 H68        19.6573   53.5957   14.2859 H         1 UNK         0.1266 
     69 H69        16.9961   54.1018   13.7675 H         1 UNK         0.2858 
     70 H70        16.1351   55.5029   12.2218 H         1 UNK         0.0493 
     71 H71        18.0443   57.4224   10.7768 H         1 UNK         0.0858 
     72 H72        17.0125   57.8746   12.1293 H         1 UNK         0.0858 
     73 H73        16.2947   57.3542   10.6122 H         1 UNK         0.0858 
     74 H74        18.3362   54.9838   10.2407 H         1 UNK         0.2998 
     75 H75        17.9690   56.4146   15.3105 H         1 UNK         0.2942 
     76 H76        19.6143   57.1598   17.5740 H         1 UNK         0.0588 
     77 H77        18.4383   59.3472   17.2937 H         1 UNK         0.0836 
     78 H78        17.3056   58.0068   17.3225 H         1 UNK         0.0836 
     79 H79        17.7181   58.7823   15.7936 H         1 UNK         0.0836 
     80 H80        21.6075   56.5541   16.4290 H         1 UNK         0.3003 
     81 H81        23.6640   57.0461   15.8642 H         1 UNK         0.0959 
     82 H82        22.8663   60.0044   15.8392 H         1 UNK         0.0808 
     83 H83        23.4350   59.1000   17.2423 H         1 UNK         0.0808 
     84 H84        24.5058   59.3778   15.8787 H         1 UNK         0.0808 
     85 H85        21.2881   58.4877   13.7039 H         1 UNK         0.3181 
     86 H86        22.9923   58.9787   11.4841 H         1 UNK         0.0819 
     87 H87        19.9779   58.4620   11.6183 H         1 UNK         0.0823 
     88 H88        20.7839   60.0265   11.6622 H         1 UNK         0.0823 
     89 H89        20.8206   59.0611   10.1952 H         1 UNK         0.0823 
     90 H90        20.9985   56.1115   12.2576 H         1 UNK         0.3159 
     91 H91        20.9667   54.0208   11.6114 H         1 UNK         0.0870 
     92 H92        22.6633   53.4766    8.7716 H         1 UNK         0.3462 
     93 H93        21.3398   53.8372    7.6972 H         1 UNK         0.3462 
     94 H94        23.8831   54.4287   10.7945 H         1 UNK         0.0763 
     95 H95        23.0873   52.8856   10.7015 H         1 UNK         0.0763 
     96 H96        24.1185   51.3392   12.3854 H         1 UNK         0.0881 
     97 H97        23.7692   51.4564   14.0864 H         1 UNK         0.0881 
@<TRIPOS>BOND
     1    1    2 1    
     2    1   52 1    
     3    1   53 1    
     4    1   54 1    
     5    2    3 2    
     6    2    4 am   BACKBONE|DICT|INTERRES
     7    4    5 1    
     8    4   55 1    
     9    5    6 1    
    10    5   25 1    
    11    5   56 1    
    12    6    7 1    
    13    6   57 1    
    14    6   58 1    
    15    7    8 1    
    16    8    9 1    
    17    8   59 1    
    18    8   60 1    
    19    9   10 ar   
    20    9   14 ar   
    21   10   11 ar   
    22   10   61 1    
    23   11   12 ar   
    24   11   51 1    
    25   12   13 ar   
    26   12   62 1    
    27   13   14 ar   
    28   13   15 1    
    29   14   63 1    
    30   15   16 1    
    31   15   64 1    
    32   15   65 1    
    33   16   17 1    
    34   17   18 1    
    35   17   66 1    
    36   17   67 1    
    37   18   19 1    
    38   18   27 1    
    39   18   68 1    
    40   19   20 am   BACKBONE|DICT|INTERRES
    41   19   69 1    
    42   20   21 2    
    43   20   22 1    
    44   22   23 1    
    45   22   24 1    
    46   22   70 1    
    47   23   71 1    
    48   23   72 1    
    49   23   73 1    
    50   24   25 am   BACKBONE|DICT|INTERRES
    51   24   74 1    
    52   25   26 2    
    53   27   28 2    
    54   27   29 am   BACKBONE|DICT|INTERRES
    55   29   30 1    
    56   29   75 1    
    57   30   31 1    
    58   30   32 1    
    59   30   76 1    
    60   31   77 1    
    61   31   78 1    
    62   31   79 1    
    63   32   33 2    
    64   32   34 am   BACKBONE|DICT|INTERRES
    65   34   35 1    
    66   34   80 1    
    67   35   36 1    
    68   35   37 1    
    69   35   81 1    
    70   36   82 1    
    71   36   83 1    
    72   36   84 1    
    73   37   38 2    
    74   37   39 am   BACKBONE|DICT|INTERRES
    75   39   40 1    
    76   39   85 1    
    77   40   41 1    
    78   40   42 1    
    79   40   86 1    
    80   41   87 1    
    81   41   88 1    
    82   41   89 1    
    83   42   43 2    
    84   42   44 am   BACKBONE|DICT|INTERRES
    85   44   45 1    
    86   44   90 1    
    87   45   46 1    
    88   45   49 1    
    89   45   91 1    
    90   46   47 am   BACKBONE|DICT|INTERRES
    91   46   48 2    
    92   47   92 1    
    93   47   93 1    
    94   49   50 1    
    95   49   94 1    
    96   49   95 1    
    97   50   51 1    
    98   51   96 1    
    99   51   97 1    
@<TRIPOS>SUBSTRUCTURE
     1 UNK         1 GROUP             0       ****    0 ROOT    
