@<TRIPOS>MOLECULE
3R0
97   99    1
SMALL
USER_CHARGES


@<TRIPOS>ATOM
      1 CA         15.6961   53.2134    6.2282 C.3       0 UNK        -0.2006 
      2 C          16.3698   53.8108    7.4547 C.2       0 UNK         0.4864 
      3 O          16.3867   55.0324    7.6098 O.2       0 UNK        -0.5092 
      4 N          16.9323   52.9595    8.3209 N.am      1 UNK        -0.4825 
      5 CA         17.5841   53.3529    9.5746 C.3       1 UNK         0.0812 
      6 C6         18.4127   52.1934   10.1805 C.3       8 UNK        -0.0932 
      7 S7         19.7612   51.6218    9.0982 S.3       8 UNK        -0.2545 
      8 C8         20.3203   50.1236    9.9767 C.3       8 UNK         0.0228 
      9 C9         20.7403   50.4226   11.4098 C.ar      8 UNK        -0.0842 
     10 C10        21.9897   50.9881   11.6788 C.ar      8 UNK        -0.0874 
     11 C11        22.3500   51.3237   12.9886 C.ar      8 UNK        -0.0867 
     12 C12        21.4646   51.0535   14.0366 C.ar      8 UNK        -0.1042 
     13 C13        20.2199   50.4723   13.7801 C.ar      8 UNK        -0.0824 
     14 C14        19.8658   50.1547   12.4665 C.ar      8 UNK        -0.1194 
     15 C15        19.2455   50.1952   14.9137 C.3       8 UNK         0.0180 
     16 S16        17.9352   51.4563   14.9849 S.3       8 UNK        -0.2273 
     17 C17        18.7870   52.8535   15.7957 C.3       8 UNK        -0.0981 
     18 CA         19.3548   53.9102   14.8082 C.3       3 UNK         0.0747 
     19 N          18.3888   54.3856   13.8054 N.am      3 UNK        -0.4794 
     20 C          17.1796   54.9365   13.9892 C.2       2 UNK         0.5067 
     21 O          16.7498   55.2891   15.0874 O.2       2 UNK        -0.4802 
     22 CA         16.2824   55.0889   12.7453 C.3       2 UNK         0.0370 
     23 CB         15.6639   56.4922   12.6186 C.3       2 UNK        -0.1774 
     24 N          16.9908   54.7247   11.5120 N.am      2 UNK        -0.4750 
     25 C          16.5537   53.8288   10.6194 C.2       1 UNK         0.5001 
     26 O          15.4261   53.3270   10.6417 O.2       1 UNK        -0.4889 
     27 C          20.0779   55.0302   15.5815 C.2       3 UNK         0.4972 
     28 O          21.2852   54.9268   15.7989 O.2       3 UNK        -0.4802 
     29 N          19.3465   56.0721   15.9957 N.am      4 UNK        -0.4926 
     30 CA         19.8577   57.2523   16.6940 C.3       4 UNK         0.0426 
     31 CB         18.6797   57.9837   17.3613 C.3       4 UNK        -0.1835 
     32 C          20.6183   58.1555   15.7103 C.2       4 UNK         0.5138 
     33 O          20.0181   59.0533   15.1171 O.2       4 UNK        -0.5194 
     34 N          21.8969   57.8275   15.4744 N.am      5 UNK        -0.4222 
     35 CA         22.8322   58.3865   14.4817 C.3       5 UNK         0.0221 
     36 CB         23.0545   59.8973   14.6905 C.3       5 UNK        -0.2034 
     37 C          22.4611   58.0748   13.0181 C.2       5 UNK         0.4987 
     38 O          23.3564   57.8740   12.1954 O.2       5 UNK        -0.5478 
     39 N          21.1599   58.0058   12.7173 N.am      6 UNK        -0.4365 
     40 CA         20.5592   57.5967   11.4498 C.3       6 UNK         0.0273 
     41 CB         19.0823   58.0197   11.4626 C.3       6 UNK        -0.1956 
     42 C          20.7324   56.0881   11.1869 C.2       6 UNK         0.4962 
     43 O          19.7516   55.3390   11.1878 O.2       6 UNK        -0.5385 
     44 N          21.9867   55.6858   10.9742 N.am      7 UNK        -0.4054 
     45 CA         22.4135   54.3395   10.5706 C.3       7 UNK         0.0701 
     46 C          22.4879   54.1527    9.0270 C.2       7 UNK         0.5602 
     47 N          22.0813   55.1196    8.2130 N.am      7 UNK        -0.7339 
     48 O          22.9280   53.1091    8.5524 O.2       7 UNK        -0.5126 
     49 C49        23.7559   53.9577   11.2520 C.3       8 UNK        -0.0906 
     50 S50        23.6067   53.7954   13.0635 S.3       8 UNK        -0.2590 
     51 C51        23.6891   51.9863   13.2784 C.3       8 UNK         0.0201 
     52 H52        15.7689   52.1261    6.2118 H         1 UNK         0.0901 
     53 H53        16.1603   53.5979    5.3204 H         1 UNK         0.0901 
     54 H54        14.6404   53.4829    6.2121 H         1 UNK         0.0901 
     55 H55        16.8844   51.9656    8.1495 H         1 UNK         0.3005 
     56 H56        18.2564   54.1849    9.3519 H         1 UNK         0.1258 
     57 H57        17.7705   51.3429   10.4182 H         1 UNK         0.0713 
     58 H58        18.8670   52.5108   11.1215 H         1 UNK         0.0713 
     59 H59        21.1590   49.6866    9.4329 H         1 UNK         0.0869 
     60 H60        19.5241   49.3778    9.9576 H         1 UNK         0.0869 
     61 H61        22.6654   51.1950   10.8605 H         1 UNK         0.1451 
     62 H62        21.7377   51.3125   15.0506 H         1 UNK         0.1348 
     63 H63        18.8958   49.7203   12.2660 H         1 UNK         0.1248 
     64 H64        18.7828   49.2194   14.7592 H         1 UNK         0.0802 
     65 H65        19.7626   50.1352   15.8725 H         1 UNK         0.0802 
     66 H66        19.5829   52.4608   16.4313 H         1 UNK         0.0831 
     67 H67        18.0705   53.3185   16.4753 H         1 UNK         0.0831 
     68 H68        20.1331   53.4232   14.2195 H         1 UNK         0.1266 
     69 H69        18.6666   54.1995   12.8518 H         1 UNK         0.2858 
     70 H70        15.4606   54.3900   12.9132 H         1 UNK         0.0493 
     71 H71        16.4117   57.2658   12.4656 H         1 UNK         0.0858 
     72 H72        15.1050   56.7561   13.5172 H         1 UNK         0.0858 
     73 H73        14.9653   56.5373   11.7832 H         1 UNK         0.0858 
     74 H74        17.9398   55.0847   11.4078 H         1 UNK         0.2998 
     75 H75        18.3550   56.0584   15.7730 H         1 UNK         0.2942 
     76 H76        20.5474   56.9349   17.4791 H         1 UNK         0.0588 
     77 H77        19.0199   58.8850   17.8729 H         1 UNK         0.0836 
     78 H78        18.1927   57.3530   18.1052 H         1 UNK         0.0836 
     79 H79        17.9243   58.2862   16.6347 H         1 UNK         0.0836 
     80 H80        22.2310   56.9929   15.9421 H         1 UNK         0.3003 
     81 H81        23.7850   57.8869   14.6656 H         1 UNK         0.0959 
     82 H82        22.1544   60.4775   14.4857 H         1 UNK         0.0808 
     83 H83        23.3697   60.1147   15.7110 H         1 UNK         0.0808 
     84 H84        23.8344   60.2687   14.0243 H         1 UNK         0.0808 
     85 H85        20.5166   58.2529   13.4641 H         1 UNK         0.3181 
     86 H86        21.0577   58.1318   10.6389 H         1 UNK         0.0819 
     87 H87        18.5713   57.5937   12.3243 H         1 UNK         0.0823 
     88 H88        18.9799   59.1037   11.5157 H         1 UNK         0.0823 
     89 H89        18.5615   57.6870   10.5635 H         1 UNK         0.0823 
     90 H90        22.7233   56.3752   11.0946 H         1 UNK         0.3159 
     91 H91        21.6535   53.6297   10.8996 H         1 UNK         0.0870 
     92 H92        22.1379   54.9770    7.2170 H         1 UNK         0.3462 
     93 H93        21.7175   55.9833    8.5792 H         1 UNK         0.3462 
     94 H94        24.5136   54.7140   11.0397 H         1 UNK         0.0763 
     95 H95        24.1558   53.0262   10.8492 H         1 UNK         0.0763 
     96 H96        24.4707   51.5624   12.6463 H         1 UNK         0.0881 
     97 H97        23.9918   51.7746   14.3051 H         1 UNK         0.0881 
@<TRIPOS>BOND
     1    1    2 1    
     2    1   52 1    
     3    1   53 1    
     4    1   54 1    
     5    2    3 2    
     6    2    4 am   BACKBONE|DICT|INTERRES
     7    4    5 1    
     8    4   55 1    
     9    5    6 1    
    10    5   25 1    
    11    5   56 1    
    12    6    7 1    
    13    6   57 1    
    14    6   58 1    
    15    7    8 1    
    16    8    9 1    
    17    8   59 1    
    18    8   60 1    
    19    9   10 ar   
    20    9   14 ar   
    21   10   11 ar   
    22   10   61 1    
    23   11   12 ar   
    24   11   51 1    
    25   12   13 ar   
    26   12   62 1    
    27   13   14 ar   
    28   13   15 1    
    29   14   63 1    
    30   15   16 1    
    31   15   64 1    
    32   15   65 1    
    33   16   17 1    
    34   17   18 1    
    35   17   66 1    
    36   17   67 1    
    37   18   19 1    
    38   18   27 1    
    39   18   68 1    
    40   19   20 am   BACKBONE|DICT|INTERRES
    41   19   69 1    
    42   20   21 2    
    43   20   22 1    
    44   22   23 1    
    45   22   24 1    
    46   22   70 1    
    47   23   71 1    
    48   23   72 1    
    49   23   73 1    
    50   24   25 am   BACKBONE|DICT|INTERRES
    51   24   74 1    
    52   25   26 2    
    53   27   28 2    
    54   27   29 am   BACKBONE|DICT|INTERRES
    55   29   30 1    
    56   29   75 1    
    57   30   31 1    
    58   30   32 1    
    59   30   76 1    
    60   31   77 1    
    61   31   78 1    
    62   31   79 1    
    63   32   33 2    
    64   32   34 am   BACKBONE|DICT|INTERRES
    65   34   35 1    
    66   34   80 1    
    67   35   36 1    
    68   35   37 1    
    69   35   81 1    
    70   36   82 1    
    71   36   83 1    
    72   36   84 1    
    73   37   38 2    
    74   37   39 am   BACKBONE|DICT|INTERRES
    75   39   40 1    
    76   39   85 1    
    77   40   41 1    
    78   40   42 1    
    79   40   86 1    
    80   41   87 1    
    81   41   88 1    
    82   41   89 1    
    83   42   43 2    
    84   42   44 am   BACKBONE|DICT|INTERRES
    85   44   45 1    
    86   44   90 1    
    87   45   46 1    
    88   45   49 1    
    89   45   91 1    
    90   46   47 am   BACKBONE|DICT|INTERRES
    91   46   48 2    
    92   47   92 1    
    93   47   93 1    
    94   49   50 1    
    95   49   94 1    
    96   49   95 1    
    97   50   51 1    
    98   51   96 1    
    99   51   97 1    
@<TRIPOS>SUBSTRUCTURE
     1 UNK         1 GROUP             0       ****    0 ROOT    
