@<TRIPOS>MOLECULE
3R0
97   99    1
SMALL
USER_CHARGES


@<TRIPOS>ATOM
      1 CA         16.1268   52.6527    5.8816 C.3       0 UNK        -0.2006 
      2 C          16.6680   53.3534    7.1189 C.2       0 UNK         0.4864 
      3 O          16.6656   54.5837    7.1761 O.2       0 UNK        -0.5092 
      4 N          17.1400   52.5803    8.1042 N.am      1 UNK        -0.4825 
      5 CA         17.6580   53.0793    9.3823 C.3       1 UNK         0.0812 
      6 C6         18.4114   51.9778   10.1685 C.3       8 UNK        -0.0932 
      7 S7         19.8338   51.2787    9.2723 S.3       8 UNK        -0.2545 
      8 C8         20.2859   49.8881   10.3597 C.3       8 UNK         0.0228 
      9 C9         20.6311   50.3568   11.7662 C.ar      8 UNK        -0.0842 
     10 C10        21.8691   50.9496   12.0291 C.ar      8 UNK        -0.0874 
     11 C11        22.1737   51.4116   13.3131 C.ar      8 UNK        -0.0867 
     12 C12        21.2386   51.2606   14.3417 C.ar      8 UNK        -0.1042 
     13 C13        19.9998   50.6651   14.0905 C.ar      8 UNK        -0.0824 
     14 C14        19.7041   50.2106   12.8025 C.ar      8 UNK        -0.1194 
     15 C15        18.9770   50.5061   15.2050 C.3       8 UNK         0.0180 
     16 S16        17.6390   51.7328   15.0684 S.3       8 UNK        -0.2273 
     17 C17        18.4251   53.2510   15.7146 C.3       8 UNK        -0.0981 
     18 CA         19.0116   54.1810   14.6108 C.3       3 UNK         0.0747 
     19 N          18.0798   54.4569   13.5097 N.am      3 UNK        -0.4794 
     20 C          16.8520   54.9954   13.5732 C.2       2 UNK         0.5067 
     21 O          16.3270   55.3997   14.6111 O.2       2 UNK        -0.4802 
     22 CA         16.0474   55.0414   12.2577 C.3       2 UNK         0.0370 
     23 CB         15.4146   56.4164   11.9802 C.3       2 UNK        -0.1774 
     24 N          16.8583   54.6129   11.1117 N.am      2 UNK        -0.4750 
     25 C          16.5237   53.6275   10.2715 C.2       1 UNK         0.5001 
     26 O          15.4092   53.0978   10.2388 O.2       1 UNK        -0.4889 
     27 C          19.6325   55.4682   15.2002 C.2       3 UNK         0.4972 
     28 O          19.3262   56.5758   14.7513 O.2       3 UNK        -0.4802 
     29 N          20.5257   55.2999   16.1887 N.am      4 UNK        -0.4926 
     30 CA         21.2981   56.3468   16.8697 C.3       4 UNK         0.0426 
     31 CB         20.3777   57.2569   17.7152 C.3       4 UNK        -0.1835 
     32 C          22.2024   57.1080   15.8816 C.2       4 UNK         0.5138 
     33 O          23.2439   56.5771   15.4973 O.2       4 UNK        -0.5194 
     34 N          21.7926   58.3163   15.4766 N.am      5 UNK        -0.4222 
     35 CA         22.4606   59.1047   14.4392 C.3       5 UNK         0.0221 
     36 CB         22.1351   60.5923   14.6535 C.3       5 UNK        -0.2034 
     37 C          22.0664   58.6728   13.0145 C.2       5 UNK         0.4987 
     38 O          22.8258   58.9304   12.0802 O.2       5 UNK        -0.5478 
     39 N          20.8963   58.0399   12.8574 N.am      6 UNK        -0.4365 
     40 CA         20.3031   57.6579   11.5762 C.3       6 UNK         0.0273 
     41 CB         18.8104   58.0224   11.6013 C.3       6 UNK        -0.1956 
     42 C          20.5447   56.1699   11.2765 C.2       6 UNK         0.4962 
     43 O          19.5962   55.4225   11.0173 O.2       6 UNK        -0.5385 
     44 N          21.8178   55.7703   11.3187 N.am      7 UNK        -0.4054 
     45 CA         22.2977   54.4708   10.8383 C.3       7 UNK         0.0701 
     46 C          22.5194   54.5405    9.3066 C.2       7 UNK         0.5602 
     47 N          22.0353   53.5688    8.5502 N.am      7 UNK        -0.7339 
     48 O          23.1638   55.4576    8.8009 O.2       7 UNK        -0.5126 
     49 C49        23.6061   54.0462   11.5532 C.3       8 UNK        -0.0906 
     50 S50        23.4119   53.8795   13.3600 S.3       8 UNK        -0.2590 
     51 C51        23.5099   52.0778   13.5962 C.3       8 UNK         0.0201 
     52 H52        16.6813   52.9689    4.9985 H         1 UNK         0.0901 
     53 H53        15.0776   52.9078    5.7353 H         1 UNK         0.0901 
     54 H54        16.2044   51.5684    5.9603 H         1 UNK         0.0901 
     55 H55        17.1135   51.5754    8.0093 H         1 UNK         0.3005 
     56 H56        18.3531   53.8946    9.1664 H         1 UNK         0.1258 
     57 H57        18.7876   52.3836   11.1099 H         1 UNK         0.0713 
     58 H58        17.7354   51.1617   10.4326 H         1 UNK         0.0713 
     59 H59        19.4664   49.1680   10.3830 H         1 UNK         0.0869 
     60 H60        21.1395   49.3626    9.9293 H         1 UNK         0.0869 
     61 H61        22.5869   51.0647   11.2287 H         1 UNK         0.1451 
     62 H62        21.4731   51.6158   15.3359 H         1 UNK         0.1348 
     63 H63        18.7421   49.7572   12.6051 H         1 UNK         0.1248 
     64 H64        18.5409   49.5077   15.1493 H         1 UNK         0.0802 
     65 H65        19.4485   50.5742   16.1865 H         1 UNK         0.0802 
     66 H66        19.1944   52.9583   16.4301 H         1 UNK         0.0831 
     67 H67        17.6724   53.7860   16.2964 H         1 UNK         0.0831 
     68 H68        19.8435   53.6560   14.1397 H         1 UNK         0.1266 
     69 H69        18.4306   54.2121   12.5955 H         1 UNK         0.2858 
     70 H70        15.2283   54.3363   12.4127 H         1 UNK         0.0493 
     71 H71        16.1580   57.1807   11.7689 H         1 UNK         0.0858 
     72 H72        14.7403   56.3687   11.1253 H         1 UNK         0.0858 
     73 H73        14.8270   56.7594   12.8326 H         1 UNK         0.0858 
     74 H74        17.7988   55.0049   11.0540 H         1 UNK         0.2998 
     75 H75        20.7560   54.3568   16.4679 H         1 UNK         0.2942 
     76 H76        21.9685   55.8346   17.5618 H         1 UNK         0.0588 
     77 H77        20.9544   58.0260   18.2310 H         1 UNK         0.0836 
     78 H78        19.8614   56.6798   18.4822 H         1 UNK         0.0836 
     79 H79        19.6153   57.7596   17.1199 H         1 UNK         0.0836 
     80 H80        20.9169   58.6709   15.8333 H         1 UNK         0.3003 
     81 H81        23.5415   58.9764   14.5339 H         1 UNK         0.0959 
     82 H82        22.4630   60.9329   15.6359 H         1 UNK         0.0808 
     83 H83        22.6408   61.2125   13.9120 H         1 UNK         0.0808 
     84 H84        21.0657   60.7895   14.5680 H         1 UNK         0.0808 
     85 H85        20.3674   57.7608   13.6805 H         1 UNK         0.3181 
     86 H86        20.7641   58.2228   10.7630 H         1 UNK         0.0819 
     87 H87        18.2987   57.5171   12.4196 H         1 UNK         0.0823 
     88 H88        18.6673   59.0951   11.7306 H         1 UNK         0.0823 
     89 H89        18.3181   57.7399   10.6698 H         1 UNK         0.0823 
     90 H90        22.5293   56.4580   11.5223 H         1 UNK         0.3159 
     91 H91        21.5361   53.7160   11.0449 H         1 UNK         0.0870 
     92 H92        22.1926   53.6044    7.5557 H         1 UNK         0.3462 
     93 H93        21.4829   52.8178    8.9402 H         1 UNK         0.3462 
     94 H94        23.9768   53.1063   11.1410 H         1 UNK         0.0763 
     95 H95        24.3943   54.7795   11.3719 H         1 UNK         0.0763 
     96 H96        23.8088   51.8781   14.6264 H         1 UNK         0.0881 
     97 H97        24.2968   51.6532   12.9709 H         1 UNK         0.0881 
@<TRIPOS>BOND
     1    1    2 1    
     2    1   52 1    
     3    1   53 1    
     4    1   54 1    
     5    2    3 2    
     6    2    4 am   BACKBONE|DICT|INTERRES
     7    4    5 1    
     8    4   55 1    
     9    5    6 1    
    10    5   25 1    
    11    5   56 1    
    12    6    7 1    
    13    6   57 1    
    14    6   58 1    
    15    7    8 1    
    16    8    9 1    
    17    8   59 1    
    18    8   60 1    
    19    9   10 ar   
    20    9   14 ar   
    21   10   11 ar   
    22   10   61 1    
    23   11   12 ar   
    24   11   51 1    
    25   12   13 ar   
    26   12   62 1    
    27   13   14 ar   
    28   13   15 1    
    29   14   63 1    
    30   15   16 1    
    31   15   64 1    
    32   15   65 1    
    33   16   17 1    
    34   17   18 1    
    35   17   66 1    
    36   17   67 1    
    37   18   19 1    
    38   18   27 1    
    39   18   68 1    
    40   19   20 am   BACKBONE|DICT|INTERRES
    41   19   69 1    
    42   20   21 2    
    43   20   22 1    
    44   22   23 1    
    45   22   24 1    
    46   22   70 1    
    47   23   71 1    
    48   23   72 1    
    49   23   73 1    
    50   24   25 am   BACKBONE|DICT|INTERRES
    51   24   74 1    
    52   25   26 2    
    53   27   28 2    
    54   27   29 am   BACKBONE|DICT|INTERRES
    55   29   30 1    
    56   29   75 1    
    57   30   31 1    
    58   30   32 1    
    59   30   76 1    
    60   31   77 1    
    61   31   78 1    
    62   31   79 1    
    63   32   33 2    
    64   32   34 am   BACKBONE|DICT|INTERRES
    65   34   35 1    
    66   34   80 1    
    67   35   36 1    
    68   35   37 1    
    69   35   81 1    
    70   36   82 1    
    71   36   83 1    
    72   36   84 1    
    73   37   38 2    
    74   37   39 am   BACKBONE|DICT|INTERRES
    75   39   40 1    
    76   39   85 1    
    77   40   41 1    
    78   40   42 1    
    79   40   86 1    
    80   41   87 1    
    81   41   88 1    
    82   41   89 1    
    83   42   43 2    
    84   42   44 am   BACKBONE|DICT|INTERRES
    85   44   45 1    
    86   44   90 1    
    87   45   46 1    
    88   45   49 1    
    89   45   91 1    
    90   46   47 am   BACKBONE|DICT|INTERRES
    91   46   48 2    
    92   47   92 1    
    93   47   93 1    
    94   49   50 1    
    95   49   94 1    
    96   49   95 1    
    97   50   51 1    
    98   51   96 1    
    99   51   97 1    
@<TRIPOS>SUBSTRUCTURE
     1 UNK         1 GROUP             0       ****    0 ROOT    
