@<TRIPOS>MOLECULE
3R0
97   99    1
SMALL
USER_CHARGES


@<TRIPOS>ATOM
      1 CA         12.2714   51.3042    9.0430 C.3       0 UNK        -0.2006 
      2 C          13.4525   52.2597    9.1264 C.2       0 UNK         0.4864 
      3 O          13.2824   53.4628    8.9263 O.2       0 UNK        -0.5092 
      4 N          14.6503   51.7336    9.4121 N.am      1 UNK        -0.4825 
      5 CA         15.8783   52.5106    9.5995 C.3       1 UNK         0.0812 
      6 C6         17.1254   51.5994    9.4960 C.3       8 UNK        -0.0932 
      7 S7         18.6888   52.5303    9.3461 S.3       8 UNK        -0.2545 
      8 C8         19.9159   51.1872    9.4694 C.3       8 UNK         0.0228 
      9 C9         20.5475   51.0828   10.8541 C.ar      8 UNK        -0.0842 
     10 C10        21.9275   51.2508   11.0119 C.ar      8 UNK        -0.0874 
     11 C11        22.5273   51.1053   12.2680 C.ar      8 UNK        -0.0867 
     12 C12        21.7305   50.8157   13.3800 C.ar      8 UNK        -0.1042 
     13 C13        20.3515   50.6346   13.2355 C.ar      8 UNK        -0.0824 
     14 C14        19.7705   50.7616   11.9707 C.ar      8 UNK        -0.1194 
     15 C15        19.4930   50.2517   14.4341 C.3       8 UNK         0.0180 
     16 S16        18.1600   51.4515   14.7496 S.3       8 UNK        -0.2273 
     17 C17        19.1078   52.9255   15.2500 C.3       8 UNK        -0.0981 
     18 CA         19.2423   53.9723   14.1164 C.3       3 UNK         0.0747 
     19 N          17.9383   54.3698   13.5651 N.am      3 UNK        -0.4794 
     20 C          17.7333   55.2789   12.6041 C.2       2 UNK         0.5067 
     21 O          18.6220   55.9708   12.1047 O.2       2 UNK        -0.4802 
     22 CA         16.2943   55.4136   12.0919 C.3       2 UNK         0.0370 
     23 CB         15.9516   56.8669   11.7205 C.3       2 UNK        -0.1774 
     24 N          16.1416   54.5668   10.9125 N.am      2 UNK        -0.4750 
     25 C          15.8292   53.2656   10.9444 C.2       1 UNK         0.5001 
     26 O          15.5281   52.6563   11.9742 O.2       1 UNK        -0.4889 
     27 C          20.0816   55.1642   14.6122 C.2       3 UNK         0.4972 
     28 O          21.2742   55.2291   14.3206 O.2       3 UNK        -0.4802 
     29 N          19.4299   56.1023   15.3152 N.am      4 UNK        -0.4926 
     30 CA         20.0435   57.3166   15.8601 C.3       4 UNK         0.0426 
     31 CB         19.0588   57.9880   16.8301 C.3       4 UNK        -0.1835 
     32 C          20.5058   58.3191   14.7869 C.2       4 UNK         0.5138 
     33 O          21.4449   59.0736   15.0404 O.2       4 UNK        -0.5194 
     34 N          19.8544   58.3100   13.6165 N.am      5 UNK        -0.4222 
     35 CA         20.2327   59.1298   12.4654 C.3       5 UNK         0.0221 
     36 CB         18.9879   59.4477   11.6203 C.3       5 UNK        -0.2034 
     37 C          21.3036   58.4288   11.6179 C.2       5 UNK         0.4987 
     38 O          22.2635   59.0773   11.2011 O.2       5 UNK        -0.5478 
     39 N          21.1190   57.1230   11.3785 N.am      6 UNK        -0.4365 
     40 CA         22.0048   56.2872   10.5679 C.3       6 UNK         0.0273 
     41 CB         21.3072   54.9505   10.2651 C.3       6 UNK        -0.1956 
     42 C          23.3757   56.0421   11.2164 C.2       6 UNK         0.4962 
     43 O          24.3936   56.1582   10.5313 O.2       6 UNK        -0.5385 
     44 N          23.3714   55.6947   12.5077 N.am      7 UNK        -0.4054 
     45 CA         24.5449   55.2630   13.2809 C.3       7 UNK         0.0701 
     46 C          24.7325   56.0602   14.6011 C.2       7 UNK         0.5602 
     47 N          24.0102   57.1480   14.8342 N.am      7 UNK        -0.7339 
     48 O          25.5737   55.7066   15.4237 O.2       7 UNK        -0.5126 
     49 C49        24.5216   53.7259   13.5146 C.3       8 UNK        -0.0906 
     50 S50        24.7297   52.7955   11.9603 S.3       8 UNK        -0.2590 
     51 C51        24.0438   51.1709   12.4047 C.3       8 UNK         0.0201 
     52 H52        11.8184   51.3532    8.0532 H         1 UNK         0.0901 
     53 H53        11.5152   51.5782    9.7782 H         1 UNK         0.0901 
     54 H54        12.5674   50.2720    9.2296 H         1 UNK         0.0901 
     55 H55        14.7251   50.7434    9.5979 H         1 UNK         0.3005 
     56 H56        15.9266   53.2419    8.7889 H         1 UNK         0.1258 
     57 H57        17.0448   50.9698    8.6082 H         1 UNK         0.0713 
     58 H58        17.1726   50.9153   10.3431 H         1 UNK         0.0713 
     59 H59        20.6846   51.3663    8.7162 H         1 UNK         0.0869 
     60 H60        19.4586   50.2321    9.2073 H         1 UNK         0.0869 
     61 H61        22.5466   51.4687   10.1521 H         1 UNK         0.1451 
     62 H62        22.1890   50.6930   14.3518 H         1 UNK         0.1348 
     63 H63        18.7078   50.6056   11.8645 H         1 UNK         0.1248 
     64 H64        19.0458   49.2746   14.2465 H         1 UNK         0.0802 
     65 H65        20.0984   50.1420   15.3351 H         1 UNK         0.0802 
     66 H66        20.0930   52.6129   15.6028 H         1 UNK         0.0831 
     67 H67        18.6033   53.3603   16.1151 H         1 UNK         0.0831 
     68 H68        19.8012   53.5160   13.2958 H         1 UNK         0.1266 
     69 H69        17.1518   53.8124   13.8690 H         1 UNK         0.2858 
     70 H70        15.6053   55.0965   12.8778 H         1 UNK         0.0493 
     71 H71        16.5537   57.2285   10.8865 H         1 UNK         0.0858 
     72 H72        16.1232   57.5377   12.5633 H         1 UNK         0.0858 
     73 H73        14.9033   56.9639   11.4383 H         1 UNK         0.0858 
     74 H74        16.4185   54.9791   10.0327 H         1 UNK         0.2998 
     75 H75        18.4439   55.9687   15.4903 H         1 UNK         0.2942 
     76 H76        20.9282   57.0171   16.4262 H         1 UNK         0.0588 
     77 H77        18.1398   58.2928   16.3280 H         1 UNK         0.0836 
     78 H78        19.4984   58.8820   17.2749 H         1 UNK         0.0836 
     79 H79        18.7902   57.3209   17.6494 H         1 UNK         0.0836 
     80 H80        19.1305   57.6189   13.4711 H         1 UNK         0.3003 
     81 H81        20.6481   60.0772   12.8171 H         1 UNK         0.0959 
     82 H82        18.5439   58.5481   11.1949 H         1 UNK         0.0808 
     83 H83        18.2241   59.9525   12.2119 H         1 UNK         0.0808 
     84 H84        19.2426   60.1067   10.7892 H         1 UNK         0.0808 
     85 H85        20.2673   56.6824   11.7206 H         1 UNK         0.3181 
     86 H86        22.1740   56.8024    9.6200 H         1 UNK         0.0819 
     87 H87        21.0742   54.3956   11.1751 H         1 UNK         0.0823 
     88 H88        21.9375   54.3090    9.6479 H         1 UNK         0.0823 
     89 H89        20.3741   55.1058    9.7236 H         1 UNK         0.0823 
     90 H90        22.4899   55.6269   13.0116 H         1 UNK         0.3159 
     91 H91        25.4489   55.4959   12.7163 H         1 UNK         0.0870 
     92 H92        24.1526   57.6578   15.6913 H         1 UNK         0.3462 
     93 H93        23.3295   57.4738   14.1676 H         1 UNK         0.3462 
     94 H94        25.3257   53.4152   14.1841 H         1 UNK         0.0763 
     95 H95        23.5871   53.4300   13.9955 H         1 UNK         0.0763 
     96 H96        24.4817   50.4200   11.7456 H         1 UNK         0.0881 
     97 H97        24.3628   50.9060   13.4141 H         1 UNK         0.0881 
@<TRIPOS>BOND
     1    1    2 1    
     2    1   52 1    
     3    1   53 1    
     4    1   54 1    
     5    2    3 2    
     6    2    4 am   BACKBONE|DICT|INTERRES
     7    4    5 1    
     8    4   55 1    
     9    5    6 1    
    10    5   25 1    
    11    5   56 1    
    12    6    7 1    
    13    6   57 1    
    14    6   58 1    
    15    7    8 1    
    16    8    9 1    
    17    8   59 1    
    18    8   60 1    
    19    9   10 ar   
    20    9   14 ar   
    21   10   11 ar   
    22   10   61 1    
    23   11   12 ar   
    24   11   51 1    
    25   12   13 ar   
    26   12   62 1    
    27   13   14 ar   
    28   13   15 1    
    29   14   63 1    
    30   15   16 1    
    31   15   64 1    
    32   15   65 1    
    33   16   17 1    
    34   17   18 1    
    35   17   66 1    
    36   17   67 1    
    37   18   19 1    
    38   18   27 1    
    39   18   68 1    
    40   19   20 am   BACKBONE|DICT|INTERRES
    41   19   69 1    
    42   20   21 2    
    43   20   22 1    
    44   22   23 1    
    45   22   24 1    
    46   22   70 1    
    47   23   71 1    
    48   23   72 1    
    49   23   73 1    
    50   24   25 am   BACKBONE|DICT|INTERRES
    51   24   74 1    
    52   25   26 2    
    53   27   28 2    
    54   27   29 am   BACKBONE|DICT|INTERRES
    55   29   30 1    
    56   29   75 1    
    57   30   31 1    
    58   30   32 1    
    59   30   76 1    
    60   31   77 1    
    61   31   78 1    
    62   31   79 1    
    63   32   33 2    
    64   32   34 am   BACKBONE|DICT|INTERRES
    65   34   35 1    
    66   34   80 1    
    67   35   36 1    
    68   35   37 1    
    69   35   81 1    
    70   36   82 1    
    71   36   83 1    
    72   36   84 1    
    73   37   38 2    
    74   37   39 am   BACKBONE|DICT|INTERRES
    75   39   40 1    
    76   39   85 1    
    77   40   41 1    
    78   40   42 1    
    79   40   86 1    
    80   41   87 1    
    81   41   88 1    
    82   41   89 1    
    83   42   43 2    
    84   42   44 am   BACKBONE|DICT|INTERRES
    85   44   45 1    
    86   44   90 1    
    87   45   46 1    
    88   45   49 1    
    89   45   91 1    
    90   46   47 am   BACKBONE|DICT|INTERRES
    91   46   48 2    
    92   47   92 1    
    93   47   93 1    
    94   49   50 1    
    95   49   94 1    
    96   49   95 1    
    97   50   51 1    
    98   51   96 1    
    99   51   97 1    
@<TRIPOS>SUBSTRUCTURE
     1 UNK         1 GROUP             0       ****    0 ROOT    
