@<TRIPOS>MOLECULE
3R0
97   99    1
SMALL
USER_CHARGES


@<TRIPOS>ATOM
      1 CA         12.0896   52.8662   12.1635 C.3       0 UNK        -0.2006 
      2 C          13.1947   52.5949   11.1536 C.2       0 UNK         0.4864 
      3 O          12.9417   51.9760   10.1197 O.2       0 UNK        -0.5092 
      4 N          14.4153   53.0557   11.4426 N.am      1 UNK        -0.4825 
      5 CA         15.5942   52.9400   10.5860 C.3       1 UNK         0.0812 
      6 C6         16.2159   51.5140   10.6138 C.3       8 UNK        -0.0932 
      7 S7         17.1906   51.1508    9.1117 S.3       8 UNK        -0.2545 
      8 C8         18.2396   49.7683    9.6608 C.3       8 UNK         0.0228 
      9 C9         19.3108   50.1982   10.6552 C.ar      8 UNK        -0.0842 
     10 C10        20.4539   50.8772   10.2185 C.ar      8 UNK        -0.0874 
     11 C11        21.4675   51.2306   11.1177 C.ar      8 UNK        -0.0867 
     12 C12        21.3260   50.8738   12.4657 C.ar      8 UNK        -0.1042 
     13 C13        20.1777   50.2222   12.9209 C.ar      8 UNK        -0.0824 
     14 C14        19.1754   49.8823   12.0095 C.ar      8 UNK        -0.1194 
     15 C15        20.0174   49.8865   14.3993 C.3       8 UNK         0.0180 
     16 S16        20.1757   51.3485   15.4822 S.3       8 UNK        -0.2273 
     17 C17        18.9593   52.4938   14.7531 C.3       8 UNK        -0.0981 
     18 CA         19.6462   53.7229   14.0873 C.3       3 UNK         0.0747 
     19 N          19.2028   53.9052   12.6987 N.am      3 UNK        -0.4794 
     20 C          19.5816   54.8848   11.8653 C.2       2 UNK         0.5067 
     21 O          20.4411   55.7193   12.1477 O.2       2 UNK        -0.4802 
     22 CA         18.8608   54.9977   10.5079 C.3       2 UNK         0.0370 
     23 CB         19.8531   54.8405    9.3461 C.3       2 UNK        -0.1774 
     24 N          17.7527   54.0572   10.3164 N.am      2 UNK        -0.4750 
     25 C          16.5936   54.0428   10.9865 C.2       1 UNK         0.5001 
     26 O          16.3210   54.8308   11.8980 O.2       1 UNK        -0.4889 
     27 C          19.4378   54.9941   14.9388 C.2       3 UNK         0.4972 
     28 O          20.3231   55.3740   15.7048 O.2       3 UNK        -0.4802 
     29 N          18.2921   55.6634   14.7331 N.am      4 UNK        -0.4926 
     30 CA         17.9188   56.9274   15.3777 C.3       4 UNK         0.0426 
     31 CB         16.4459   57.2296   15.0602 C.3       4 UNK        -0.1835 
     32 C          18.8082   58.1225   14.9802 C.2       4 UNK         0.5138 
     33 O          18.8882   59.0903   15.7369 O.2       4 UNK        -0.5194 
     34 N          19.4666   58.0271   13.8183 N.am      5 UNK        -0.4222 
     35 CA         20.4233   59.0034   13.2948 C.3       5 UNK         0.0221 
     36 CB         20.1117   59.2369   11.8044 C.3       5 UNK        -0.2034 
     37 C          21.8800   58.5389   13.4886 C.2       5 UNK         0.4987 
     38 O          22.7771   59.1197   12.8749 O.2       5 UNK        -0.5478 
     39 N          22.0975   57.4800   14.2886 N.am      6 UNK        -0.4365 
     40 CA         23.3803   56.8123   14.5540 C.3       6 UNK         0.0273 
     41 CB         24.2936   57.7165   15.4088 C.3       6 UNK        -0.1956 
     42 C          24.0787   56.2945   13.2781 C.2       6 UNK         0.4962 
     43 O          25.3100   56.2654   13.2221 O.2       6 UNK        -0.5385 
     44 N          23.2742   55.9142   12.2766 N.am      7 UNK        -0.4054 
     45 CA         23.6816   55.4805   10.9312 C.3       7 UNK         0.0701 
     46 C          24.3172   56.6024   10.0585 C.2       7 UNK         0.5602 
     47 N          24.1950   57.8760   10.4166 N.am      7 UNK        -0.7339 
     48 O          24.9005   56.3208    9.0147 O.2       7 UNK        -0.5126 
     49 C49        24.4973   54.1542   10.9215 C.3       8 UNK        -0.0906 
     50 S50        23.6795   52.8324   11.8767 S.3       8 UNK        -0.2590 
     51 C51        22.6938   51.9838   10.5922 C.3       8 UNK         0.0201 
     52 H52        11.6652   51.9267   12.5164 H         1 UNK         0.0901 
     53 H53        11.2928   53.4480   11.7008 H         1 UNK         0.0901 
     54 H54        12.4550   53.4193   13.0287 H         1 UNK         0.0901 
     55 H55        14.5716   53.6208   12.2692 H         1 UNK         0.3005 
     56 H56        15.2735   53.1707    9.5670 H         1 UNK         0.1258 
     57 H57        16.8216   51.3706   11.5095 H         1 UNK         0.0713 
     58 H58        15.4315   50.7574   10.6639 H         1 UNK         0.0713 
     59 H59        17.6090   48.9843   10.0833 H         1 UNK         0.0869 
     60 H60        18.7211   49.3267    8.7870 H         1 UNK         0.0869 
     61 H61        20.5545   51.1252    9.1704 H         1 UNK         0.1451 
     62 H62        22.0958   51.1152   13.1840 H         1 UNK         0.1348 
     63 H63        18.2909   49.3630   12.3526 H         1 UNK         0.1248 
     64 H64        19.0503   49.4178   14.5879 H         1 UNK         0.0802 
     65 H65        20.7745   49.1538   14.6813 H         1 UNK         0.0802 
     66 H66        18.2587   52.7793   15.5411 H         1 UNK         0.0831 
     67 H67        18.3460   51.9475   14.0353 H         1 UNK         0.0831 
     68 H68        20.7254   53.5598   14.0313 H         1 UNK         0.1266 
     69 H69        18.5115   53.2535   12.3615 H         1 UNK         0.2858 
     70 H70        18.4450   56.0060   10.4596 H         1 UNK         0.0493 
     71 H71        20.3233   53.8576    9.3489 H         1 UNK         0.0858 
     72 H72        19.3610   54.9737    8.3827 H         1 UNK         0.0858 
     73 H73        20.6442   55.5885    9.4026 H         1 UNK         0.0858 
     74 H74        17.8963   53.3307    9.6256 H         1 UNK         0.2998 
     75 H75        17.6389   55.2914   14.0550 H         1 UNK         0.2942 
     76 H76        18.0166   56.7939   16.4571 H         1 UNK         0.0588 
     77 H77        16.1241   58.1560   15.5383 H         1 UNK         0.0836 
     78 H78        15.7908   56.4368   15.4216 H         1 UNK         0.0836 
     79 H79        16.2787   57.3403   13.9878 H         1 UNK         0.0836 
     80 H80        19.3756   57.1721   13.2836 H         1 UNK         0.3003 
     81 H81        20.3179   59.9550   13.8201 H         1 UNK         0.0959 
     82 H82        19.0807   59.5606   11.6608 H         1 UNK         0.0808 
     83 H83        20.7531   60.0132   11.3851 H         1 UNK         0.0808 
     84 H84        20.2654   58.3333   11.2130 H         1 UNK         0.0808 
     85 H85        21.2956   57.0499   14.7350 H         1 UNK         0.3181 
     86 H86        23.1445   55.9263   15.1455 H         1 UNK         0.0819 
     87 H87        24.6172   58.5996   14.8571 H         1 UNK         0.0823 
     88 H88        23.7857   58.0524   16.3127 H         1 UNK         0.0823 
     89 H89        25.1912   57.1826   15.7233 H         1 UNK         0.0823 
     90 H90        22.2683   55.9725   12.4116 H         1 UNK         0.3159 
     91 H91        22.7442   55.2662   10.4214 H         1 UNK         0.0870 
     92 H92        23.7225   58.1389   11.2741 H         1 UNK         0.3462 
     93 H93        24.6015   58.5891    9.8329 H         1 UNK         0.3462 
     94 H94        24.6593   53.8032    9.9007 H         1 UNK         0.0763 
     95 H95        25.4899   54.3158   11.3447 H         1 UNK         0.0763 
     96 H96        22.3671   52.7237    9.8611 H         1 UNK         0.0881 
     97 H97        23.3389   51.2846   10.0587 H         1 UNK         0.0881 
@<TRIPOS>BOND
     1    1    2 1    
     2    1   52 1    
     3    1   53 1    
     4    1   54 1    
     5    2    3 2    
     6    2    4 am   BACKBONE|DICT|INTERRES
     7    4    5 1    
     8    4   55 1    
     9    5    6 1    
    10    5   25 1    
    11    5   56 1    
    12    6    7 1    
    13    6   57 1    
    14    6   58 1    
    15    7    8 1    
    16    8    9 1    
    17    8   59 1    
    18    8   60 1    
    19    9   10 ar   
    20    9   14 ar   
    21   10   11 ar   
    22   10   61 1    
    23   11   12 ar   
    24   11   51 1    
    25   12   13 ar   
    26   12   62 1    
    27   13   14 ar   
    28   13   15 1    
    29   14   63 1    
    30   15   16 1    
    31   15   64 1    
    32   15   65 1    
    33   16   17 1    
    34   17   18 1    
    35   17   66 1    
    36   17   67 1    
    37   18   19 1    
    38   18   27 1    
    39   18   68 1    
    40   19   20 am   BACKBONE|DICT|INTERRES
    41   19   69 1    
    42   20   21 2    
    43   20   22 1    
    44   22   23 1    
    45   22   24 1    
    46   22   70 1    
    47   23   71 1    
    48   23   72 1    
    49   23   73 1    
    50   24   25 am   BACKBONE|DICT|INTERRES
    51   24   74 1    
    52   25   26 2    
    53   27   28 2    
    54   27   29 am   BACKBONE|DICT|INTERRES
    55   29   30 1    
    56   29   75 1    
    57   30   31 1    
    58   30   32 1    
    59   30   76 1    
    60   31   77 1    
    61   31   78 1    
    62   31   79 1    
    63   32   33 2    
    64   32   34 am   BACKBONE|DICT|INTERRES
    65   34   35 1    
    66   34   80 1    
    67   35   36 1    
    68   35   37 1    
    69   35   81 1    
    70   36   82 1    
    71   36   83 1    
    72   36   84 1    
    73   37   38 2    
    74   37   39 am   BACKBONE|DICT|INTERRES
    75   39   40 1    
    76   39   85 1    
    77   40   41 1    
    78   40   42 1    
    79   40   86 1    
    80   41   87 1    
    81   41   88 1    
    82   41   89 1    
    83   42   43 2    
    84   42   44 am   BACKBONE|DICT|INTERRES
    85   44   45 1    
    86   44   90 1    
    87   45   46 1    
    88   45   49 1    
    89   45   91 1    
    90   46   47 am   BACKBONE|DICT|INTERRES
    91   46   48 2    
    92   47   92 1    
    93   47   93 1    
    94   49   50 1    
    95   49   94 1    
    96   49   95 1    
    97   50   51 1    
    98   51   96 1    
    99   51   97 1    
@<TRIPOS>SUBSTRUCTURE
     1 UNK         1 GROUP             0       ****    0 ROOT    
