@<TRIPOS>MOLECULE
3R0
97   99    1
SMALL
USER_CHARGES


@<TRIPOS>ATOM
      1 CA         13.8215   51.8129    8.5267 C.3       0 UNK        -0.2006 
      2 C          14.9157   52.8624    8.6511 C.2       0 UNK         0.4864 
      3 O          14.7603   53.9728    8.1425 O.2       0 UNK        -0.5092 
      4 N          16.0232   52.5181    9.3215 N.am      1 UNK        -0.4825 
      5 CA         17.1823   53.3975    9.5295 C.3       1 UNK         0.0812 
      6 C6         18.4118   52.6195   10.0633 C.3       8 UNK        -0.0932 
      7 S7         18.9393   51.2272    9.0104 S.3       8 UNK        -0.2545 
      8 C8         18.9210   49.8302   10.1900 C.3       8 UNK         0.0228 
      9 C9         19.7546   50.0934   11.4416 C.ar      8 UNK        -0.0842 
     10 C10        21.1123   50.4077   11.3375 C.ar      8 UNK        -0.0874 
     11 C11        21.8712   50.6849   12.4789 C.ar      8 UNK        -0.0867 
     12 C12        21.2656   50.6307   13.7387 C.ar      8 UNK        -0.1042 
     13 C13        19.9119   50.2958   13.8595 C.ar      8 UNK        -0.0824 
     14 C14        19.1647   50.0264   12.7078 C.ar      8 UNK        -0.1194 
     15 C15        19.2533   50.2138   15.2316 C.3       8 UNK         0.0180 
     16 S16        17.9388   51.4596   15.4490 S.3       8 UNK        -0.2273 
     17 C17        18.8970   53.0061   15.5801 C.3       8 UNK        -0.0981 
     18 CA         19.1123   53.6801   14.1996 C.3       3 UNK         0.0747 
     19 N          17.8550   54.0056   13.5177 N.am      3 UNK        -0.4794 
     20 C          17.0835   55.1017   13.5928 C.2       2 UNK         0.5067 
     21 O          17.3354   56.0913   14.2819 O.2       2 UNK        -0.4802 
     22 CA         15.8035   55.0552   12.7253 C.3       2 UNK         0.0370 
     23 CB         15.1797   56.4386   12.4478 C.3       2 UNK        -0.1774 
     24 N          15.9986   54.2899   11.4839 N.am      2 UNK        -0.4750 
     25 C          16.8888   54.5509   10.5103 C.2       1 UNK         0.5001 
     26 O          17.5264   55.5998   10.4174 O.2       1 UNK        -0.4889 
     27 C          20.1003   54.8587   14.2343 C.2       3 UNK         0.4972 
     28 O          20.7441   55.1286   13.2199 O.2       3 UNK        -0.4802 
     29 N          20.1851   55.5529   15.3790 N.am      4 UNK        -0.4926 
     30 CA         21.0758   56.6874   15.6463 C.3       4 UNK         0.0426 
     31 CB         20.8706   57.1548   17.0954 C.3       4 UNK        -0.1835 
     32 C          20.9359   57.8762   14.6761 C.2       4 UNK         0.5138 
     33 O          21.8872   58.6454   14.5411 O.2       4 UNK        -0.5194 
     34 N          19.7906   57.9902   13.9880 N.am      5 UNK        -0.4222 
     35 CA         19.5748   58.9554   12.9060 C.3       5 UNK         0.0221 
     36 CB         18.1009   58.9145   12.4798 C.3       5 UNK        -0.2034 
     37 C          20.4835   58.7166   11.6834 C.2       5 UNK         0.4987 
     38 O          20.8154   59.6798   10.9909 O.2       5 UNK        -0.5478 
     39 N          20.8661   57.4548   11.4439 N.am      6 UNK        -0.4365 
     40 CA         21.7625   57.0379   10.3655 C.3       6 UNK         0.0273 
     41 CB         21.1126   55.8796    9.5889 C.3       6 UNK        -0.1956 
     42 C          23.1316   56.6096   10.9143 C.2       6 UNK         0.4962 
     43 O          24.1564   57.0234   10.3704 O.2       6 UNK        -0.5385 
     44 N          23.1243   55.7804   11.9640 N.am      7 UNK        -0.4054 
     45 CA         24.3110   55.1466   12.5580 C.3       7 UNK         0.0701 
     46 C          24.9798   55.9651   13.6961 C.2       7 UNK         0.5602 
     47 N          24.4743   57.1290   14.0803 N.am      7 UNK        -0.7339 
     48 O          26.0004   55.5433   14.2338 O.2       7 UNK        -0.5126 
     49 C49        23.9979   53.6890   12.9949 C.3       8 UNK        -0.0906 
     50 S50        23.6104   52.6370   11.5567 S.3       8 UNK        -0.2590 
     51 C51        23.3508   51.0119   12.3364 C.3       8 UNK         0.0201 
     52 H52        12.8994   52.1770    8.9791 H         1 UNK         0.0901 
     53 H53        14.0941   50.8785    9.0170 H         1 UNK         0.0901 
     54 H54        13.6248   51.5994    7.4764 H         1 UNK         0.0901 
     55 H55        16.1129   51.5807    9.6867 H         1 UNK         0.3005 
     56 H56        17.4453   53.8475    8.5692 H         1 UNK         0.1258 
     57 H57        18.2057   52.2488   11.0680 H         1 UNK         0.0713 
     58 H58        19.2712   53.2847   10.1645 H         1 UNK         0.0713 
     59 H59        19.3049   48.9404    9.6895 H         1 UNK         0.0869 
     60 H60        17.8859   49.6089   10.4541 H         1 UNK         0.0869 
     61 H61        21.5768   50.4548   10.3616 H         1 UNK         0.1451 
     62 H62        21.8500   50.8391   14.6246 H         1 UNK         0.1348 
     63 H63        18.1170   49.7746   12.8023 H         1 UNK         0.1248 
     64 H64        18.8155   49.2218   15.3508 H         1 UNK         0.0802 
     65 H65        19.9892   50.3181   16.0303 H         1 UNK         0.0802 
     66 H66        19.8514   52.7861   16.0628 H         1 UNK         0.0831 
     67 H67        18.3541   53.6719   16.2531 H         1 UNK         0.0831 
     68 H68        19.6008   52.9513   13.5527 H         1 UNK         0.1266 
     69 H69        17.5174   53.2731   12.9128 H         1 UNK         0.2858 
     70 H70        15.0788   54.4924   13.3152 H         1 UNK         0.0493 
     71 H71        15.8015   57.0506   11.7977 H         1 UNK         0.0858 
     72 H72        14.2066   56.3377   11.9680 H         1 UNK         0.0858 
     73 H73        15.0247   56.9962   13.3722 H         1 UNK         0.0858 
     74 H74        15.5123   53.4050   11.4343 H         1 UNK         0.2998 
     75 H75        19.5728   55.2866   16.1366 H         1 UNK         0.2942 
     76 H76        22.0985   56.3177   15.5514 H         1 UNK         0.0588 
     77 H77        21.5419   57.9797   17.3388 H         1 UNK         0.0836 
     78 H78        21.0770   56.3540   17.8056 H         1 UNK         0.0836 
     79 H79        19.8513   57.5035   17.2660 H         1 UNK         0.0836 
     80 H80        19.0483   57.3217   14.1674 H         1 UNK         0.3003 
     81 H81        19.7965   59.9510   13.2965 H         1 UNK         0.0959 
     82 H82        17.8539   57.9528   12.0309 H         1 UNK         0.0808 
     83 H83        17.4314   59.0771   13.3247 H         1 UNK         0.0808 
     84 H84        17.8865   59.6851   11.7382 H         1 UNK         0.0808 
     85 H85        20.5577   56.7277   12.0813 H         1 UNK         0.3181 
     86 H86        21.9267   57.8609    9.6665 H         1 UNK         0.0819 
     87 H87        20.9377   55.0123   10.2265 H         1 UNK         0.0823 
     88 H88        20.1542   56.1773    9.1628 H         1 UNK         0.0823 
     89 H89        21.7493   55.5554    8.7646 H         1 UNK         0.0823 
     90 H90        22.2343   55.4921   12.3644 H         1 UNK         0.3159 
     91 H91        25.0821   55.0886   11.7877 H         1 UNK         0.0870 
     92 H92        23.6340   57.5056   13.6673 H         1 UNK         0.3462 
     93 H93        24.9378   57.6417   14.8130 H         1 UNK         0.3462 
     94 H94        23.1641   53.6623   13.6988 H         1 UNK         0.0763 
     95 H95        24.8530   53.2439   13.5074 H         1 UNK         0.0763 
     96 H96        23.8221   50.2487   11.7153 H         1 UNK         0.0881 
     97 H97        23.8585   50.9687   13.3012 H         1 UNK         0.0881 
@<TRIPOS>BOND
     1    1    2 1    
     2    1   52 1    
     3    1   53 1    
     4    1   54 1    
     5    2    3 2    
     6    2    4 am   BACKBONE|DICT|INTERRES
     7    4    5 1    
     8    4   55 1    
     9    5    6 1    
    10    5   25 1    
    11    5   56 1    
    12    6    7 1    
    13    6   57 1    
    14    6   58 1    
    15    7    8 1    
    16    8    9 1    
    17    8   59 1    
    18    8   60 1    
    19    9   10 ar   
    20    9   14 ar   
    21   10   11 ar   
    22   10   61 1    
    23   11   12 ar   
    24   11   51 1    
    25   12   13 ar   
    26   12   62 1    
    27   13   14 ar   
    28   13   15 1    
    29   14   63 1    
    30   15   16 1    
    31   15   64 1    
    32   15   65 1    
    33   16   17 1    
    34   17   18 1    
    35   17   66 1    
    36   17   67 1    
    37   18   19 1    
    38   18   27 1    
    39   18   68 1    
    40   19   20 am   BACKBONE|DICT|INTERRES
    41   19   69 1    
    42   20   21 2    
    43   20   22 1    
    44   22   23 1    
    45   22   24 1    
    46   22   70 1    
    47   23   71 1    
    48   23   72 1    
    49   23   73 1    
    50   24   25 am   BACKBONE|DICT|INTERRES
    51   24   74 1    
    52   25   26 2    
    53   27   28 2    
    54   27   29 am   BACKBONE|DICT|INTERRES
    55   29   30 1    
    56   29   75 1    
    57   30   31 1    
    58   30   32 1    
    59   30   76 1    
    60   31   77 1    
    61   31   78 1    
    62   31   79 1    
    63   32   33 2    
    64   32   34 am   BACKBONE|DICT|INTERRES
    65   34   35 1    
    66   34   80 1    
    67   35   36 1    
    68   35   37 1    
    69   35   81 1    
    70   36   82 1    
    71   36   83 1    
    72   36   84 1    
    73   37   38 2    
    74   37   39 am   BACKBONE|DICT|INTERRES
    75   39   40 1    
    76   39   85 1    
    77   40   41 1    
    78   40   42 1    
    79   40   86 1    
    80   41   87 1    
    81   41   88 1    
    82   41   89 1    
    83   42   43 2    
    84   42   44 am   BACKBONE|DICT|INTERRES
    85   44   45 1    
    86   44   90 1    
    87   45   46 1    
    88   45   49 1    
    89   45   91 1    
    90   46   47 am   BACKBONE|DICT|INTERRES
    91   46   48 2    
    92   47   92 1    
    93   47   93 1    
    94   49   50 1    
    95   49   94 1    
    96   49   95 1    
    97   50   51 1    
    98   51   96 1    
    99   51   97 1    
@<TRIPOS>SUBSTRUCTURE
     1 UNK         1 GROUP             0       ****    0 ROOT    
