@<TRIPOS>MOLECULE
3R0
97   99    1
SMALL
USER_CHARGES


@<TRIPOS>ATOM
      1 CA         12.6249   50.9009   10.7317 C.3       0 UNK        -0.2006 
      2 C          14.0929   50.8104   10.3433 C.2       0 UNK         0.4864 
      3 O          14.4286   50.9785    9.1706 O.2       0 UNK        -0.5092 
      4 N          14.9701   50.5487   11.3170 N.am      1 UNK        -0.4825 
      5 CA         16.4199   50.4778   11.1505 C.3       1 UNK         0.0812 
      6 C6         16.8667   49.1151   10.5506 C.3       8 UNK        -0.0932 
      7 S7         18.6249   48.9798   10.0641 S.3       8 UNK        -0.2545 
      8 C8         18.7495   50.0711    8.6083 C.3       8 UNK         0.0228 
      9 C9         19.1660   51.4841    8.9978 C.ar      8 UNK        -0.0842 
     10 C10        20.4691   51.7363    9.4417 C.ar      8 UNK        -0.0874 
     11 C11        20.8558   53.0289    9.8096 C.ar      8 UNK        -0.0867 
     12 C12        19.9273   54.0697    9.7411 C.ar      8 UNK        -0.1042 
     13 C13        18.6210   53.8300    9.3080 C.ar      8 UNK        -0.0824 
     14 C14        18.2559   52.5418    8.9102 C.ar      8 UNK        -0.1194 
     15 C15        17.6000   54.9570    9.2655 C.3       8 UNK         0.0180 
     16 S16        16.6878   55.1002   10.8382 S.3       8 UNK        -0.2273 
     17 C17        17.8787   56.0106   11.8820 C.3       8 UNK        -0.0981 
     18 CA         18.2224   55.2925   13.2110 C.3       3 UNK         0.0747 
     19 N          18.6749   53.9124   13.0133 N.am      3 UNK        -0.4794 
     20 C          18.8260   53.0121   13.9951 C.2       2 UNK         0.5067 
     21 O          18.6137   53.2529   15.1848 O.2       2 UNK        -0.4802 
     22 CA         19.2349   51.5951   13.5526 C.3       2 UNK         0.0370 
     23 CB         19.3009   50.5816   14.7149 C.3       2 UNK        -0.1774 
     24 N          18.3915   51.1081   12.4565 N.am      2 UNK        -0.4750 
     25 C          17.0788   50.8396   12.4944 C.2       1 UNK         0.5001 
     26 O          16.3894   50.8879   13.5177 O.2       1 UNK        -0.4889 
     27 C          19.2584   56.1155   14.0038 C.2       3 UNK         0.4972 
     28 O          20.4638   55.9900   13.7586 O.2       3 UNK        -0.4802 
     29 N          18.7666   56.9654   14.9169 N.am      4 UNK        -0.4926 
     30 CA         19.5650   57.8814   15.7373 C.3       4 UNK         0.0426 
     31 CB         18.6354   58.6345   16.7016 C.3       4 UNK        -0.1835 
     32 C          20.3719   58.8759   14.8856 C.2       4 UNK         0.5138 
     33 O          19.9035   59.2898   13.8219 O.2       4 UNK        -0.5194 
     34 N          21.5814   59.2088   15.3552 N.am      5 UNK        -0.4222 
     35 CA         22.6125   60.0472   14.7208 C.3       5 UNK         0.0221 
     36 CB         22.1065   61.4796   14.4565 C.3       5 UNK        -0.2034 
     37 C          23.2422   59.4353   13.4535 C.2       5 UNK         0.4987 
     38 O          24.4538   59.5618   13.2732 O.2       5 UNK        -0.5478 
     39 N          22.4340   58.7740   12.6144 N.am      6 UNK        -0.4365 
     40 CA         22.8596   58.0381   11.4221 C.3       6 UNK         0.0273 
     41 CB         21.6262   57.6176   10.6092 C.3       6 UNK        -0.1956 
     42 C          23.7308   56.8184   11.7650 C.2       6 UNK         0.4962 
     43 O          24.7744   56.6304   11.1375 O.2       6 UNK        -0.5385 
     44 N          23.3070   56.0371   12.7652 N.am      7 UNK        -0.4054 
     45 CA         24.0758   54.9157   13.3250 C.3       7 UNK         0.0701 
     46 C          23.7264   54.5830   14.7999 C.2       7 UNK         0.5602 
     47 N          22.5789   54.9871   15.3306 N.am      7 UNK        -0.7339 
     48 O          24.5340   53.9685   15.4919 O.2       7 UNK        -0.5126 
     49 C49        24.0910   53.6574   12.4126 C.3       8 UNK        -0.0906 
     50 S50        22.4267   52.9971   12.0666 S.3       8 UNK        -0.2590 
     51 C51        22.2729   53.3079   10.2843 C.3       8 UNK         0.0201 
     52 H52        12.4736   50.7261   11.7969 H         1 UNK         0.0901 
     53 H53        12.0450   50.1607   10.1810 H         1 UNK         0.0901 
     54 H54        12.2336   51.8890   10.4910 H         1 UNK         0.0901 
     55 H55        14.6697   50.4753   12.2823 H         1 UNK         0.3005 
     56 H56        16.6858   51.2756   10.4647 H         1 UNK         0.1258 
     57 H57        16.2716   48.8873    9.6650 H         1 UNK         0.0713 
     58 H58        16.6530   48.3126   11.2588 H         1 UNK         0.0713 
     59 H59        17.8052   50.0730    8.0611 H         1 UNK         0.0869 
     60 H60        19.4940   49.6596    7.9252 H         1 UNK         0.0869 
     61 H61        21.1810   50.9241    9.5059 H         1 UNK         0.1451 
     62 H62        20.2263   55.0662   10.0280 H         1 UNK         0.1348 
     63 H63        17.2508   52.3604    8.5526 H         1 UNK         0.1248 
     64 H64        18.0818   55.9055    9.0232 H         1 UNK         0.0802 
     65 H65        16.8828   54.7727    8.4642 H         1 UNK         0.0802 
     66 H66        18.7827   56.2137   11.3109 H         1 UNK         0.0831 
     67 H67        17.4428   56.9897   12.0905 H         1 UNK         0.0831 
     68 H68        17.3082   55.2364   13.8065 H         1 UNK         0.1266 
     69 H69        18.8741   53.6393   12.0615 H         1 UNK         0.2858 
     70 H70        20.2394   51.6714   13.1439 H         1 UNK         0.0493 
     71 H71        20.0352   50.8948   15.4579 H         1 UNK         0.0858 
     72 H72        19.5974   49.5935   14.3635 H         1 UNK         0.0858 
     73 H73        18.3452   50.4828   15.2300 H         1 UNK         0.0858 
     74 H74        18.8585   51.0145   11.5627 H         1 UNK         0.2998 
     75 H75        17.7653   57.0307   15.0301 H         1 UNK         0.2942 
     76 H76        20.2603   57.2762   16.3229 H         1 UNK         0.0588 
     77 H77        17.9041   59.2410   16.1654 H         1 UNK         0.0836 
     78 H78        19.2020   59.3059   17.3483 H         1 UNK         0.0836 
     79 H79        18.0921   57.9469   17.3501 H         1 UNK         0.0836 
     80 H80        21.8661   58.7884   16.2297 H         1 UNK         0.3003 
     81 H81        23.4169   60.1204   15.4551 H         1 UNK         0.0959 
     82 H82        21.3226   61.5064   13.6993 H         1 UNK         0.0808 
     83 H83        21.7119   61.9349   15.3648 H         1 UNK         0.0808 
     84 H84        22.9177   62.1164   14.1009 H         1 UNK         0.0808 
     85 H85        21.4414   58.7741   12.8369 H         1 UNK         0.3181 
     86 H86        23.4594   58.7141   10.8090 H         1 UNK         0.0819 
     87 H87        20.9688   56.9755   11.1933 H         1 UNK         0.0823 
     88 H88        21.0487   58.4837   10.2858 H         1 UNK         0.0823 
     89 H89        21.9161   57.0669    9.7132 H         1 UNK         0.0823 
     90 H90        22.4121   56.2264   13.2010 H         1 UNK         0.3159 
     91 H91        25.1086   55.2642   13.3869 H         1 UNK         0.0870 
     92 H92        21.8391   55.3876   14.7630 H         1 UNK         0.3462 
     93 H93        22.3952   54.7628   16.2950 H         1 UNK         0.3462 
     94 H94        24.6867   52.8633   12.8664 H         1 UNK         0.0763 
     95 H95        24.5925   53.8888   11.4719 H         1 UNK         0.0763 
     96 H96        22.5450   54.3428   10.0699 H         1 UNK         0.0881 
     97 H97        22.9832   52.6820    9.7418 H         1 UNK         0.0881 
@<TRIPOS>BOND
     1    1    2 1    
     2    1   52 1    
     3    1   53 1    
     4    1   54 1    
     5    2    3 2    
     6    2    4 am   BACKBONE|DICT|INTERRES
     7    4    5 1    
     8    4   55 1    
     9    5    6 1    
    10    5   25 1    
    11    5   56 1    
    12    6    7 1    
    13    6   57 1    
    14    6   58 1    
    15    7    8 1    
    16    8    9 1    
    17    8   59 1    
    18    8   60 1    
    19    9   10 ar   
    20    9   14 ar   
    21   10   11 ar   
    22   10   61 1    
    23   11   12 ar   
    24   11   51 1    
    25   12   13 ar   
    26   12   62 1    
    27   13   14 ar   
    28   13   15 1    
    29   14   63 1    
    30   15   16 1    
    31   15   64 1    
    32   15   65 1    
    33   16   17 1    
    34   17   18 1    
    35   17   66 1    
    36   17   67 1    
    37   18   19 1    
    38   18   27 1    
    39   18   68 1    
    40   19   20 am   BACKBONE|DICT|INTERRES
    41   19   69 1    
    42   20   21 2    
    43   20   22 1    
    44   22   23 1    
    45   22   24 1    
    46   22   70 1    
    47   23   71 1    
    48   23   72 1    
    49   23   73 1    
    50   24   25 am   BACKBONE|DICT|INTERRES
    51   24   74 1    
    52   25   26 2    
    53   27   28 2    
    54   27   29 am   BACKBONE|DICT|INTERRES
    55   29   30 1    
    56   29   75 1    
    57   30   31 1    
    58   30   32 1    
    59   30   76 1    
    60   31   77 1    
    61   31   78 1    
    62   31   79 1    
    63   32   33 2    
    64   32   34 am   BACKBONE|DICT|INTERRES
    65   34   35 1    
    66   34   80 1    
    67   35   36 1    
    68   35   37 1    
    69   35   81 1    
    70   36   82 1    
    71   36   83 1    
    72   36   84 1    
    73   37   38 2    
    74   37   39 am   BACKBONE|DICT|INTERRES
    75   39   40 1    
    76   39   85 1    
    77   40   41 1    
    78   40   42 1    
    79   40   86 1    
    80   41   87 1    
    81   41   88 1    
    82   41   89 1    
    83   42   43 2    
    84   42   44 am   BACKBONE|DICT|INTERRES
    85   44   45 1    
    86   44   90 1    
    87   45   46 1    
    88   45   49 1    
    89   45   91 1    
    90   46   47 am   BACKBONE|DICT|INTERRES
    91   46   48 2    
    92   47   92 1    
    93   47   93 1    
    94   49   50 1    
    95   49   94 1    
    96   49   95 1    
    97   50   51 1    
    98   51   96 1    
    99   51   97 1    
@<TRIPOS>SUBSTRUCTURE
     1 UNK         1 GROUP             0       ****    0 ROOT    
