@<TRIPOS>MOLECULE
3R0
97   99    1
SMALL
USER_CHARGES


@<TRIPOS>ATOM
      1 CA         15.8015   50.4548   16.8689 C.3       0 UNK        -0.2006 
      2 C          15.7718   50.3522   15.3513 C.2       0 UNK         0.4864 
      3 O          15.6849   49.2486   14.8125 O.2       0 UNK        -0.5092 
      4 N          15.8409   51.4934   14.6598 N.am      1 UNK        -0.4825 
      5 CA         15.7997   51.6143   13.2040 C.3       1 UNK         0.0812 
      6 C6         17.1476   51.2256   12.5374 C.3       8 UNK        -0.0932 
      7 S7         16.9118   50.5976   10.8427 S.3       8 UNK        -0.2545 
      8 C8         18.6192   50.1546   10.3848 C.3       8 UNK         0.0228 
      9 C9         19.5121   51.3825   10.2858 C.ar      8 UNK        -0.0842 
     10 C10        20.5276   51.6013   11.2224 C.ar      8 UNK        -0.0874 
     11 C11        21.3202   52.7506   11.1477 C.ar      8 UNK        -0.0867 
     12 C12        21.0983   53.6759   10.1250 C.ar      8 UNK        -0.1042 
     13 C13        20.0778   53.4761    9.1938 C.ar      8 UNK        -0.0824 
     14 C14        19.3021   52.3158    9.2670 C.ar      8 UNK        -0.1194 
     15 C15        19.8038   54.5140    8.1157 C.3       8 UNK         0.0180 
     16 S16        18.1263   55.2123    8.2557 S.3       8 UNK        -0.2273 
     17 C17        18.3175   56.5694    9.4708 C.3       8 UNK        -0.0981 
     18 CA         17.8510   56.2719   10.9314 C.3       3 UNK         0.0747 
     19 N          16.7197   55.3441   11.0095 N.am      3 UNK        -0.4794 
     20 C          15.4316   55.6927   11.0712 C.2       2 UNK         0.5067 
     21 O          15.0370   56.8585   11.0944 O.2       2 UNK        -0.4802 
     22 CA         14.4006   54.5483   11.1155 C.3       2 UNK         0.0370 
     23 CB         13.8022   54.3256    9.7173 C.3       2 UNK        -0.1774 
     24 N          14.9185   53.2699   11.6217 N.am      2 UNK        -0.4750 
     25 C          15.3706   53.0534   12.8642 C.2       1 UNK         0.5001 
     26 O          15.4686   53.9380   13.7204 O.2       1 UNK        -0.4889 
     27 C          18.9708   55.8474   11.9015 C.2       3 UNK         0.4972 
     28 O          20.1347   56.1694   11.6665 O.2       3 UNK        -0.4802 
     29 N          18.6002   55.1723   13.0048 N.am      4 UNK        -0.4926 
     30 CA         19.4905   54.5718   14.0121 C.3       4 UNK         0.0426 
     31 CB         18.6479   53.9986   15.1608 C.3       4 UNK        -0.1835 
     32 C          20.5986   55.4828   14.5783 C.2       4 UNK         0.5138 
     33 O          21.6729   54.9842   14.9160 O.2       4 UNK        -0.5194 
     34 N          20.3383   56.7947   14.6459 N.am      5 UNK        -0.4222 
     35 CA         21.3001   57.8113   15.0786 C.3       5 UNK         0.0221 
     36 CB         20.5622   59.1422   15.2961 C.3       5 UNK        -0.2034 
     37 C          22.4833   58.0089   14.1112 C.2       5 UNK         0.4987 
     38 O          23.5547   58.4202   14.5588 O.2       5 UNK        -0.5478 
     39 N          22.2938   57.7143   12.8150 N.am      6 UNK        -0.4365 
     40 CA         23.2940   57.9299   11.7614 C.3       6 UNK         0.0273 
     41 CB         22.6221   57.8225   10.3824 C.3       6 UNK        -0.1956 
     42 C          24.5125   56.9925   11.8457 C.2       6 UNK         0.4962 
     43 O          25.5494   57.3101   11.2607 O.2       6 UNK        -0.5385 
     44 N          24.3799   55.8751   12.5705 N.am      7 UNK        -0.4054 
     45 CA         25.4758   54.9396   12.8676 C.3       7 UNK         0.0701 
     46 C          26.3793   55.3993   14.0483 C.2       7 UNK         0.5602 
     47 N          26.0669   56.4778   14.7592 N.am      7 UNK        -0.7339 
     48 O          27.3974   54.7678   14.3197 O.2       7 UNK        -0.5126 
     49 C49        24.9643   53.4882   13.0779 C.3       8 UNK        -0.0906 
     50 S50        24.0611   52.8304   11.6322 S.3       8 UNK        -0.2590 
     51 C51        22.3565   53.0478   12.2176 C.3       8 UNK         0.0201 
     52 H52        15.8942   51.4872   17.2059 H         1 UNK         0.0901 
     53 H53        16.6457   49.8919   17.2661 H         1 UNK         0.0901 
     54 H54        14.8863   50.0407   17.2911 H         1 UNK         0.0901 
     55 H55        15.8488   52.3886   15.1350 H         1 UNK         0.3005 
     56 H56        15.0091   50.9470   12.8514 H         1 UNK         0.1258 
     57 H57        17.6381   50.4314   13.1021 H         1 UNK         0.0713 
     58 H58        17.8493   52.0621   12.5302 H         1 UNK         0.0713 
     59 H59        18.6063   49.6429    9.4214 H         1 UNK         0.0869 
     60 H60        19.0139   49.4378   11.1066 H         1 UNK         0.0869 
     61 H61        20.6838   50.8913   12.0231 H         1 UNK         0.1451 
     62 H62        21.6996   54.5725   10.0815 H         1 UNK         0.1348 
     63 H63        18.5089   52.1556    8.5494 H         1 UNK         0.1248 
     64 H64        20.5422   55.3169    8.1377 H         1 UNK         0.0802 
     65 H65        19.9014   54.0355    7.1405 H         1 UNK         0.0802 
     66 H66        17.7023   57.3848    9.0875 H         1 UNK         0.0831 
     67 H67        19.3355   56.9601    9.4301 H         1 UNK         0.0831 
     68 H68        17.5319   57.2299   11.3492 H         1 UNK         0.1266 
     69 H69        16.9535   54.3621   10.9691 H         1 UNK         0.2858 
     70 H70        13.5965   54.8643   11.7833 H         1 UNK         0.0493 
     71 H71        14.5568   53.9876    9.0056 H         1 UNK         0.0858 
     72 H72        13.3754   55.2490    9.3231 H         1 UNK         0.0858 
     73 H73        13.0020   53.5858    9.7383 H         1 UNK         0.0858 
     74 H74        14.9157   52.4951   10.9719 H         1 UNK         0.2998 
     75 H75        17.6109   55.0021   13.1322 H         1 UNK         0.2942 
     76 H76        19.9864   53.7331   13.5248 H         1 UNK         0.0588 
     77 H77        18.0196   54.7612   15.6226 H         1 UNK         0.0836 
     78 H78        19.2811   53.5775   15.9434 H         1 UNK         0.0836 
     79 H79        18.0030   53.1956   14.8111 H         1 UNK         0.0836 
     80 H80        19.4308   57.1156   14.3419 H         1 UNK         0.3003 
     81 H81        21.7170   57.4909   16.0361 H         1 UNK         0.0959 
     82 H82        20.1053   59.5065   14.3750 H         1 UNK         0.0808 
     83 H83        19.7773   59.0439   16.0462 H         1 UNK         0.0808 
     84 H84        21.2476   59.9152   15.6473 H         1 UNK         0.0808 
     85 H85        21.4069   57.3135   12.5183 H         1 UNK         0.3181 
     86 H86        23.6701   58.9495   11.8708 H         1 UNK         0.0819 
     87 H87        22.2573   56.8148   10.1878 H         1 UNK         0.0823 
     88 H88        21.7786   58.5074   10.2946 H         1 UNK         0.0823 
     89 H89        23.3251   58.0710    9.5863 H         1 UNK         0.0823 
     90 H90        23.5068   55.7114   13.0491 H         1 UNK         0.3159 
     91 H91        26.1381   54.9177   12.0004 H         1 UNK         0.0870 
     92 H92        26.6728   56.7557   15.5149 H         1 UNK         0.3462 
     93 H93        25.2419   57.0262   14.5523 H         1 UNK         0.3462 
     94 H94        25.8037   52.8148   13.2619 H         1 UNK         0.0763 
     95 H95        24.3349   53.4293   13.9684 H         1 UNK         0.0763 
     96 H96        22.2271   54.0815   12.5324 H         1 UNK         0.0881 
     97 H97        22.1923   52.4297   13.1019 H         1 UNK         0.0881 
@<TRIPOS>BOND
     1    1    2 1    
     2    1   52 1    
     3    1   53 1    
     4    1   54 1    
     5    2    3 2    
     6    2    4 am   BACKBONE|DICT|INTERRES
     7    4    5 1    
     8    4   55 1    
     9    5    6 1    
    10    5   25 1    
    11    5   56 1    
    12    6    7 1    
    13    6   57 1    
    14    6   58 1    
    15    7    8 1    
    16    8    9 1    
    17    8   59 1    
    18    8   60 1    
    19    9   10 ar   
    20    9   14 ar   
    21   10   11 ar   
    22   10   61 1    
    23   11   12 ar   
    24   11   51 1    
    25   12   13 ar   
    26   12   62 1    
    27   13   14 ar   
    28   13   15 1    
    29   14   63 1    
    30   15   16 1    
    31   15   64 1    
    32   15   65 1    
    33   16   17 1    
    34   17   18 1    
    35   17   66 1    
    36   17   67 1    
    37   18   19 1    
    38   18   27 1    
    39   18   68 1    
    40   19   20 am   BACKBONE|DICT|INTERRES
    41   19   69 1    
    42   20   21 2    
    43   20   22 1    
    44   22   23 1    
    45   22   24 1    
    46   22   70 1    
    47   23   71 1    
    48   23   72 1    
    49   23   73 1    
    50   24   25 am   BACKBONE|DICT|INTERRES
    51   24   74 1    
    52   25   26 2    
    53   27   28 2    
    54   27   29 am   BACKBONE|DICT|INTERRES
    55   29   30 1    
    56   29   75 1    
    57   30   31 1    
    58   30   32 1    
    59   30   76 1    
    60   31   77 1    
    61   31   78 1    
    62   31   79 1    
    63   32   33 2    
    64   32   34 am   BACKBONE|DICT|INTERRES
    65   34   35 1    
    66   34   80 1    
    67   35   36 1    
    68   35   37 1    
    69   35   81 1    
    70   36   82 1    
    71   36   83 1    
    72   36   84 1    
    73   37   38 2    
    74   37   39 am   BACKBONE|DICT|INTERRES
    75   39   40 1    
    76   39   85 1    
    77   40   41 1    
    78   40   42 1    
    79   40   86 1    
    80   41   87 1    
    81   41   88 1    
    82   41   89 1    
    83   42   43 2    
    84   42   44 am   BACKBONE|DICT|INTERRES
    85   44   45 1    
    86   44   90 1    
    87   45   46 1    
    88   45   49 1    
    89   45   91 1    
    90   46   47 am   BACKBONE|DICT|INTERRES
    91   46   48 2    
    92   47   92 1    
    93   47   93 1    
    94   49   50 1    
    95   49   94 1    
    96   49   95 1    
    97   50   51 1    
    98   51   96 1    
    99   51   97 1    
@<TRIPOS>SUBSTRUCTURE
     1 UNK         1 GROUP             0       ****    0 ROOT    
