@<TRIPOS>MOLECULE
3R0
97   99    1
SMALL
USER_CHARGES


@<TRIPOS>ATOM
      1 CA         15.8873   46.6648   12.7895 C.3       0 UNK        -0.2006 
      2 C          16.1924   47.8435   11.8770 C.2       0 UNK         0.4864 
      3 O          15.3911   48.1592   10.9977 O.2       0 UNK        -0.5092 
      4 N          17.3397   48.4960   12.0850 N.am      1 UNK        -0.4825 
      5 CA         17.7963   49.6732   11.3470 C.3       1 UNK         0.0812 
      6 C6         18.4432   49.3116    9.9752 C.3       8 UNK        -0.0932 
      7 S7         17.4548   49.9017    8.5625 S.3       8 UNK        -0.2545 
      8 C8         18.2677   51.4851    8.1376 C.3       8 UNK         0.0228 
      9 C9         17.8733   52.6909    8.9969 C.ar      8 UNK        -0.0842 
     10 C10        18.7101   53.8138    9.0011 C.ar      8 UNK        -0.0874 
     11 C11        18.3552   54.9691    9.7053 C.ar      8 UNK        -0.0867 
     12 C12        17.1627   54.9920   10.4322 C.ar      8 UNK        -0.1042 
     13 C13        16.3226   53.8771   10.4541 C.ar      8 UNK        -0.0824 
     14 C14        16.6753   52.7383    9.7244 C.ar      8 UNK        -0.1194 
     15 C15        15.0074   53.9175   11.2203 C.3       8 UNK         0.0180 
     16 S16        15.1788   53.2952   12.9243 S.3       8 UNK        -0.2273 
     17 C17        15.9313   54.7218   13.7854 C.3       8 UNK        -0.0981 
     18 CA         17.3169   54.3946   14.3956 C.3       3 UNK         0.0747 
     19 N          18.2386   53.8622   13.3874 N.am      3 UNK        -0.4794 
     20 C          19.3817   53.2170   13.6431 C.2       2 UNK         0.5067 
     21 O          19.8497   53.0549   14.7706 O.2       2 UNK        -0.4802 
     22 CA         20.0662   52.6118   12.4084 C.3       2 UNK         0.0370 
     23 CB         21.4670   52.0351   12.6997 C.3       2 UNK        -0.1774 
     24 N          19.1987   51.6308   11.7504 N.am      2 UNK        -0.4750 
     25 C          18.7520   50.4707   12.2520 C.2       1 UNK         0.5001 
     26 O          19.0698   50.0210   13.3570 O.2       1 UNK        -0.4889 
     27 C          17.8745   55.6124   15.1658 C.2       3 UNK         0.4972 
     28 O          17.3420   55.9395   16.2271 O.2       3 UNK        -0.4802 
     29 N          18.9194   56.2594   14.6350 N.am      4 UNK        -0.4926 
     30 CA         19.6403   57.3676   15.2551 C.3       4 UNK         0.0426 
     31 CB         19.2552   58.6759   14.5441 C.3       4 UNK        -0.1835 
     32 C          21.1480   57.1129   15.1392 C.2       4 UNK         0.5138 
     33 O          21.5838   56.3938   14.2377 O.2       4 UNK        -0.5194 
     34 N          21.9299   57.7502   16.0206 N.am      5 UNK        -0.4222 
     35 CA         23.3957   57.6503   16.0646 C.3       5 UNK         0.0221 
     36 CB         23.9125   58.3668   17.3233 C.3       5 UNK        -0.2034 
     37 C          24.1090   58.1886   14.8081 C.2       5 UNK         0.4987 
     38 O          25.2460   57.7958   14.5459 O.2       5 UNK        -0.5478 
     39 N          23.4340   59.0670   14.0546 N.am      6 UNK        -0.4365 
     40 CA         23.9018   59.6209   12.7833 C.3       6 UNK         0.0273 
     41 CB         23.1077   60.9036   12.4816 C.3       6 UNK        -0.1956 
     42 C          23.8018   58.6393   11.5986 C.2       6 UNK         0.4962 
     43 O          24.4126   58.9076   10.5622 O.2       6 UNK        -0.5385 
     44 N          23.0271   57.5541   11.7377 N.am      7 UNK        -0.4054 
     45 CA         22.8241   56.5406   10.6917 C.3       7 UNK         0.0701 
     46 C          24.0977   55.6951   10.4298 C.2       7 UNK         0.5602 
     47 N          24.3251   55.2864    9.1894 N.am      7 UNK        -0.7339 
     48 O          24.8534   55.3671   11.3422 O.2       7 UNK        -0.5126 
     49 C49        21.6190   55.6219   11.0124 C.3       8 UNK        -0.0906 
     50 S50        20.0627   56.5528   11.2129 S.3       8 UNK        -0.2590 
     51 C51        19.2170   56.2219    9.6377 C.3       8 UNK         0.0201 
     52 H52        16.6802   46.4974   13.5184 H         1 UNK         0.0901 
     53 H53        15.7709   45.7553   12.2007 H         1 UNK         0.0901 
     54 H54        14.9590   46.8409   13.3324 H         1 UNK         0.0901 
     55 H55        17.9402   48.2512   12.8638 H         1 UNK         0.3005 
     56 H56        16.9272   50.3179   11.2023 H         1 UNK         0.1258 
     57 H57        19.4638   49.6851    9.8704 H         1 UNK         0.0713 
     58 H58        18.5394   48.2296    9.8699 H         1 UNK         0.0713 
     59 H59        19.3499   51.3463    8.1559 H         1 UNK         0.0869 
     60 H60        18.0133   51.7208    7.1034 H         1 UNK         0.0869 
     61 H61        19.6250   53.8019    8.4236 H         1 UNK         0.1451 
     62 H62        16.8830   55.8911   10.9641 H         1 UNK         0.1348 
     63 H63        15.9934   51.9001    9.7119 H         1 UNK         0.1248 
     64 H64        14.2658   53.3067   10.7033 H         1 UNK         0.0802 
     65 H65        14.6004   54.9297   11.2337 H         1 UNK         0.0802 
     66 H66        15.2371   55.0273   14.5708 H         1 UNK         0.0831 
     67 H67        16.0020   55.5727   13.1068 H         1 UNK         0.0831 
     68 H68        17.1735   53.6091   15.1416 H         1 UNK         0.1266 
     69 H69        17.9230   53.9247   12.4289 H         1 UNK         0.2858 
     70 H70        20.1833   53.4195   11.6895 H         1 UNK         0.0493 
     71 H71        21.9366   51.6568   11.7921 H         1 UNK         0.0858 
     72 H72        22.1234   52.8043   13.1086 H         1 UNK         0.0858 
     73 H73        21.4344   51.2225   13.4256 H         1 UNK         0.0858 
     74 H74        18.8438   51.9165   10.8462 H         1 UNK         0.2998 
     75 H75        19.3447   55.8938   13.7914 H         1 UNK         0.2942 
     76 H76        19.3886   57.4427   16.3150 H         1 UNK         0.0588 
     77 H77        19.7568   59.5335   14.9937 H         1 UNK         0.0836 
     78 H78        18.1828   58.8594   14.6105 H         1 UNK         0.0836 
     79 H79        19.5240   58.6554   13.4870 H         1 UNK         0.0836 
     80 H80        21.4952   58.3295   16.7251 H         1 UNK         0.3003 
     81 H81        23.6503   56.5910   16.1441 H         1 UNK         0.0959 
     82 H82        23.6662   59.4294   17.3135 H         1 UNK         0.0808 
     83 H83        23.4924   57.9313   18.2302 H         1 UNK         0.0808 
     84 H84        24.9978   58.2852   17.4012 H         1 UNK         0.0808 
     85 H85        22.5145   59.3473   14.3619 H         1 UNK         0.3181 
     86 H86        24.9549   59.8895   12.8923 H         1 UNK         0.0819 
     87 H87        22.0425   60.7014   12.3620 H         1 UNK         0.0823 
     88 H88        23.2244   61.6404   13.2766 H         1 UNK         0.0823 
     89 H89        23.4553   61.3701   11.5587 H         1 UNK         0.0823 
     90 H90        22.5798   57.3618   12.6261 H         1 UNK         0.3159 
     91 H91        22.5958   57.0777    9.7691 H         1 UNK         0.0870 
     92 H92        23.7095   55.5381    8.4319 H         1 UNK         0.3462 
     93 H93        25.1393   54.7218    9.0038 H         1 UNK         0.3462 
     94 H94        21.4886   54.8680   10.2338 H         1 UNK         0.0763 
     95 H95        21.8086   55.0745   11.9367 H         1 UNK         0.0763 
     96 H96        18.5790   57.0752    9.4026 H         1 UNK         0.0881 
     97 H97        19.9441   56.1616    8.8265 H         1 UNK         0.0881 
@<TRIPOS>BOND
     1    1    2 1    
     2    1   52 1    
     3    1   53 1    
     4    1   54 1    
     5    2    3 2    
     6    2    4 am   BACKBONE|DICT|INTERRES
     7    4    5 1    
     8    4   55 1    
     9    5    6 1    
    10    5   25 1    
    11    5   56 1    
    12    6    7 1    
    13    6   57 1    
    14    6   58 1    
    15    7    8 1    
    16    8    9 1    
    17    8   59 1    
    18    8   60 1    
    19    9   10 ar   
    20    9   14 ar   
    21   10   11 ar   
    22   10   61 1    
    23   11   12 ar   
    24   11   51 1    
    25   12   13 ar   
    26   12   62 1    
    27   13   14 ar   
    28   13   15 1    
    29   14   63 1    
    30   15   16 1    
    31   15   64 1    
    32   15   65 1    
    33   16   17 1    
    34   17   18 1    
    35   17   66 1    
    36   17   67 1    
    37   18   19 1    
    38   18   27 1    
    39   18   68 1    
    40   19   20 am   BACKBONE|DICT|INTERRES
    41   19   69 1    
    42   20   21 2    
    43   20   22 1    
    44   22   23 1    
    45   22   24 1    
    46   22   70 1    
    47   23   71 1    
    48   23   72 1    
    49   23   73 1    
    50   24   25 am   BACKBONE|DICT|INTERRES
    51   24   74 1    
    52   25   26 2    
    53   27   28 2    
    54   27   29 am   BACKBONE|DICT|INTERRES
    55   29   30 1    
    56   29   75 1    
    57   30   31 1    
    58   30   32 1    
    59   30   76 1    
    60   31   77 1    
    61   31   78 1    
    62   31   79 1    
    63   32   33 2    
    64   32   34 am   BACKBONE|DICT|INTERRES
    65   34   35 1    
    66   34   80 1    
    67   35   36 1    
    68   35   37 1    
    69   35   81 1    
    70   36   82 1    
    71   36   83 1    
    72   36   84 1    
    73   37   38 2    
    74   37   39 am   BACKBONE|DICT|INTERRES
    75   39   40 1    
    76   39   85 1    
    77   40   41 1    
    78   40   42 1    
    79   40   86 1    
    80   41   87 1    
    81   41   88 1    
    82   41   89 1    
    83   42   43 2    
    84   42   44 am   BACKBONE|DICT|INTERRES
    85   44   45 1    
    86   44   90 1    
    87   45   46 1    
    88   45   49 1    
    89   45   91 1    
    90   46   47 am   BACKBONE|DICT|INTERRES
    91   46   48 2    
    92   47   92 1    
    93   47   93 1    
    94   49   50 1    
    95   49   94 1    
    96   49   95 1    
    97   50   51 1    
    98   51   96 1    
    99   51   97 1    
@<TRIPOS>SUBSTRUCTURE
     1 UNK         1 GROUP             0       ****    0 ROOT    
