@<TRIPOS>MOLECULE
3R0
97   99    1
SMALL
USER_CHARGES


@<TRIPOS>ATOM
      1 CA         22.0073   52.5611    7.1471 C.3       0 UNK        -0.2006 
      2 C          21.5756   51.4700    8.1150 C.2       0 UNK         0.4864 
      3 O          22.1625   50.3874    8.1220 O.2       0 UNK        -0.5092 
      4 N          20.5556   51.7499    8.9331 N.am      1 UNK        -0.4825 
      5 CA         20.0671   50.8633    9.9952 C.3       1 UNK         0.0812 
      6 C6         18.5928   51.1430   10.3632 C.3       8 UNK        -0.0932 
      7 S7         17.4517   51.1450    8.9349 S.3       8 UNK        -0.2545 
      8 C8         15.8144   51.0510    9.7410 C.3       8 UNK         0.0228 
      9 C9         15.7463   51.8950   11.0061 C.ar      8 UNK        -0.0842 
     10 C10        15.7042   53.2905   10.9297 C.ar      8 UNK        -0.0874 
     11 C11        15.7492   54.0644   12.0944 C.ar      8 UNK        -0.0867 
     12 C12        15.7975   53.4302   13.3397 C.ar      8 UNK        -0.1042 
     13 C13        15.8681   52.0375   13.4235 C.ar      8 UNK        -0.0824 
     14 C14        15.8162   51.2748   12.2560 C.ar      8 UNK        -0.1194 
     15 C15        16.0744   51.3509   14.7635 C.3       8 UNK         0.0180 
     16 S16        17.8417   50.9976   15.0442 S.3       8 UNK        -0.2273 
     17 C17        18.4491   52.6452   15.5280 C.3       8 UNK        -0.0981 
     18 CA         19.9927   52.7418   15.5542 C.3       3 UNK         0.0747 
     19 N          20.5863   52.6207   14.2096 N.am      3 UNK        -0.4794 
     20 C          21.8973   52.4434   13.9858 C.2       2 UNK         0.5067 
     21 O          22.7066   52.2110   14.8849 O.2       2 UNK        -0.4802 
     22 CA         22.3998   52.6139   12.5370 C.3       2 UNK         0.0370 
     23 CB         23.7675   51.9408   12.2956 C.3       2 UNK        -0.1774 
     24 N          21.4406   52.2232   11.4989 N.am      2 UNK        -0.4750 
     25 C          20.9494   50.9971   11.2531 C.2       1 UNK         0.5001 
     26 O          21.1770   50.0060   11.9471 O.2       1 UNK        -0.4889 
     27 C          20.4073   54.0616   16.2443 C.2       3 UNK         0.4972 
     28 O          20.4621   54.1222   17.4727 O.2       3 UNK        -0.4802 
     29 N          20.6854   55.0875   15.4348 N.am      4 UNK        -0.4926 
     30 CA         21.1445   56.4197   15.8019 C.3       4 UNK         0.0426 
     31 CB         19.9422   57.2867   16.2178 C.3       4 UNK        -0.1835 
     32 C          21.8485   57.0029   14.5705 C.2       4 UNK         0.5138 
     33 O          21.6755   56.4714   13.4693 O.2       4 UNK        -0.5194 
     34 N          22.5936   58.1011   14.7545 N.am      5 UNK        -0.4222 
     35 CA         23.3375   58.7929   13.6905 C.3       5 UNK         0.0221 
     36 CB         24.1272   59.9656   14.2945 C.3       5 UNK        -0.2034 
     37 C          22.4598   59.2787   12.5208 C.2       5 UNK         0.4987 
     38 O          22.9046   59.2462   11.3731 O.2       5 UNK        -0.5478 
     39 N          21.2151   59.6713   12.8252 N.am      6 UNK        -0.4365 
     40 CA         20.1886   60.0423   11.8463 C.3       6 UNK         0.0273 
     41 CB         19.0513   60.7787   12.5741 C.3       6 UNK        -0.1956 
     42 C          19.6257   58.8482   11.0483 C.2       6 UNK         0.4962 
     43 O          19.0066   59.0708   10.0066 O.2       6 UNK        -0.5385 
     44 N          19.8336   57.6220   11.5425 N.am      7 UNK        -0.4054 
     45 CA         19.3746   56.3632   10.9391 C.3       7 UNK         0.0701 
     46 C          20.5132   55.6012   10.2046 C.2       7 UNK         0.5602 
     47 N          21.6933   56.1772   10.0119 N.am      7 UNK        -0.7339 
     48 O          20.3272   54.4559    9.8022 O.2       7 UNK        -0.5126 
     49 C49        18.6688   55.4561   11.9835 C.3       8 UNK        -0.0906 
     50 S50        17.2803   56.2779   12.8444 S.3       8 UNK        -0.2590 
     51 C51        15.8125   55.5844   12.0035 C.3       8 UNK         0.0201 
     52 H52        21.8962   52.2172    6.1192 H         1 UNK         0.0901 
     53 H53        23.0539   52.8159    7.3118 H         1 UNK         0.0901 
     54 H54        21.4151   53.4684    7.2683 H         1 UNK         0.0901 
     55 H55        20.1562   52.6838    8.9277 H         1 UNK         0.3005 
     56 H56        20.1398   49.8292    9.6500 H         1 UNK         0.1258 
     57 H57        18.5042   52.1127   10.8576 H         1 UNK         0.0713 
     58 H58        18.2476   50.3962   11.0807 H         1 UNK         0.0713 
     59 H59        15.5929   50.0065    9.9663 H         1 UNK         0.0869 
     60 H60        15.0483   51.3792    9.0372 H         1 UNK         0.0869 
     61 H61        15.6873   53.7694    9.9600 H         1 UNK         0.1451 
     62 H62        15.8454   54.0272   14.2402 H         1 UNK         0.1348 
     63 H63        15.8892   50.1975   12.3198 H         1 UNK         0.1248 
     64 H64        15.6814   51.9602   15.5789 H         1 UNK         0.0802 
     65 H65        15.5174   50.4131   14.7857 H         1 UNK         0.0802 
     66 H66        18.0288   52.8629   16.5124 H         1 UNK         0.0831 
     67 H67        18.0470   53.3986   14.8505 H         1 UNK         0.0831 
     68 H68        20.3799   51.9282   16.1726 H         1 UNK         0.1266 
     69 H69        19.9694   52.7565   13.4230 H         1 UNK         0.2858 
     70 H70        22.5436   53.6878   12.4066 H         1 UNK         0.0493 
     71 H71        24.5294   52.3493   12.9606 H         1 UNK         0.0858 
     72 H72        23.7263   50.8657   12.4721 H         1 UNK         0.0858 
     73 H73        24.1142   52.1005   11.2747 H         1 UNK         0.0858 
     74 H74        21.1605   52.9639   10.8622 H         1 UNK         0.2998 
     75 H75        20.6797   54.9345   14.4339 H         1 UNK         0.2942 
     76 H76        21.8635   56.3479   16.6204 H         1 UNK         0.0588 
     77 H77        19.2161   57.3818   15.4089 H         1 UNK         0.0836 
     78 H78        20.2562   58.2927   16.4978 H         1 UNK         0.0836 
     79 H79        19.4258   56.8617   17.0786 H         1 UNK         0.0836 
     80 H80        22.6832   58.4764   15.6882 H         1 UNK         0.3003 
     81 H81        24.0517   58.0771   13.2771 H         1 UNK         0.0959 
     82 H82        23.4689   60.7013   14.7583 H         1 UNK         0.0808 
     83 H83        24.8338   59.6219   15.0502 H         1 UNK         0.0808 
     84 H84        24.7046   60.4833   13.5270 H         1 UNK         0.0808 
     85 H85        20.9408   59.6762   13.7970 H         1 UNK         0.3181 
     86 H86        20.6376   60.7305   11.1267 H         1 UNK         0.0819 
     87 H87        18.5620   60.1394   13.3104 H         1 UNK         0.0823 
     88 H88        18.2854   61.1067   11.8697 H         1 UNK         0.0823 
     89 H89        19.4167   61.6681   13.0878 H         1 UNK         0.0823 
     90 H90        20.4197   57.5046   12.3617 H         1 UNK         0.3159 
     91 H91        18.6424   56.5845   10.1616 H         1 UNK         0.0870 
     92 H92        22.4175   55.6673    9.5335 H         1 UNK         0.3462 
     93 H93        21.8740   57.1099   10.3510 H         1 UNK         0.3462 
     94 H94        18.3104   54.5414   11.5106 H         1 UNK         0.0763 
     95 H95        19.3811   55.1338   12.7433 H         1 UNK         0.0763 
     96 H96        14.9132   56.0047   12.4555 H         1 UNK         0.0881 
     97 H97        15.8175   55.9139   10.9634 H         1 UNK         0.0881 
@<TRIPOS>BOND
     1    1    2 1    
     2    1   52 1    
     3    1   53 1    
     4    1   54 1    
     5    2    3 2    
     6    2    4 am   BACKBONE|DICT|INTERRES
     7    4    5 1    
     8    4   55 1    
     9    5    6 1    
    10    5   25 1    
    11    5   56 1    
    12    6    7 1    
    13    6   57 1    
    14    6   58 1    
    15    7    8 1    
    16    8    9 1    
    17    8   59 1    
    18    8   60 1    
    19    9   10 ar   
    20    9   14 ar   
    21   10   11 ar   
    22   10   61 1    
    23   11   12 ar   
    24   11   51 1    
    25   12   13 ar   
    26   12   62 1    
    27   13   14 ar   
    28   13   15 1    
    29   14   63 1    
    30   15   16 1    
    31   15   64 1    
    32   15   65 1    
    33   16   17 1    
    34   17   18 1    
    35   17   66 1    
    36   17   67 1    
    37   18   19 1    
    38   18   27 1    
    39   18   68 1    
    40   19   20 am   BACKBONE|DICT|INTERRES
    41   19   69 1    
    42   20   21 2    
    43   20   22 1    
    44   22   23 1    
    45   22   24 1    
    46   22   70 1    
    47   23   71 1    
    48   23   72 1    
    49   23   73 1    
    50   24   25 am   BACKBONE|DICT|INTERRES
    51   24   74 1    
    52   25   26 2    
    53   27   28 2    
    54   27   29 am   BACKBONE|DICT|INTERRES
    55   29   30 1    
    56   29   75 1    
    57   30   31 1    
    58   30   32 1    
    59   30   76 1    
    60   31   77 1    
    61   31   78 1    
    62   31   79 1    
    63   32   33 2    
    64   32   34 am   BACKBONE|DICT|INTERRES
    65   34   35 1    
    66   34   80 1    
    67   35   36 1    
    68   35   37 1    
    69   35   81 1    
    70   36   82 1    
    71   36   83 1    
    72   36   84 1    
    73   37   38 2    
    74   37   39 am   BACKBONE|DICT|INTERRES
    75   39   40 1    
    76   39   85 1    
    77   40   41 1    
    78   40   42 1    
    79   40   86 1    
    80   41   87 1    
    81   41   88 1    
    82   41   89 1    
    83   42   43 2    
    84   42   44 am   BACKBONE|DICT|INTERRES
    85   44   45 1    
    86   44   90 1    
    87   45   46 1    
    88   45   49 1    
    89   45   91 1    
    90   46   47 am   BACKBONE|DICT|INTERRES
    91   46   48 2    
    92   47   92 1    
    93   47   93 1    
    94   49   50 1    
    95   49   94 1    
    96   49   95 1    
    97   50   51 1    
    98   51   96 1    
    99   51   97 1    
@<TRIPOS>SUBSTRUCTURE
     1 UNK         1 GROUP             0       ****    0 ROOT    
