@<TRIPOS>MOLECULE
3R0
97   99    1
SMALL
USER_CHARGES


@<TRIPOS>ATOM
      1 CA         12.6875   51.9169    8.7245 C.3       0 UNK        -0.2006 
      2 C          13.8991   52.7882    9.0195 C.2       0 UNK         0.4864 
      3 O          13.7948   54.0143    8.9832 O.2       0 UNK        -0.5092 
      4 N          15.0487   52.1633    9.3058 N.am      1 UNK        -0.4825 
      5 CA         16.3079   52.8303    9.6614 C.3       1 UNK         0.0812 
      6 C6         17.5200   51.8636    9.5819 C.3       8 UNK        -0.0932 
      7 S7         17.2845   50.3011   10.5044 S.3       8 UNK        -0.2545 
      8 C8         18.9362   49.5454   10.3850 C.3       8 UNK         0.0228 
      9 C9         19.9440   50.2499   11.2804 C.ar      8 UNK        -0.0842 
     10 C10        20.9317   51.0694   10.7284 C.ar      8 UNK        -0.0874 
     11 C11        21.8463   51.7326   11.5526 C.ar      8 UNK        -0.0867 
     12 C12        21.7757   51.5612   12.9392 C.ar      8 UNK        -0.1042 
     13 C13        20.7935   50.7399   13.5018 C.ar      8 UNK        -0.0824 
     14 C14        19.8879   50.0799   12.6660 C.ar      8 UNK        -0.1194 
     15 C15        20.7004   50.5657   15.0111 C.3       8 UNK         0.0180 
     16 S16        19.1503   51.2528   15.6780 S.3       8 UNK        -0.2273 
     17 C17        19.4512   53.0517   15.5911 C.3       8 UNK        -0.0981 
     18 CA         19.0834   53.6976   14.2242 C.3       3 UNK         0.0747 
     19 N          17.7542   53.3250   13.7229 N.am      3 UNK        -0.4794 
     20 C          16.5652   53.6874   14.2233 C.2       2 UNK         0.5067 
     21 O          16.4283   54.2911   15.2879 O.2       2 UNK        -0.4802 
     22 CA         15.3140   53.3436   13.3830 C.3       2 UNK         0.0370 
     23 CB         14.3125   54.5168   13.3610 C.3       2 UNK        -0.1774 
     24 N          15.5814   52.8898   12.0072 N.am      2 UNK        -0.4750 
     25 C          16.2333   53.5416   11.0285 C.2       1 UNK         0.5001 
     26 O          16.7686   54.6420   11.1705 O.2       1 UNK        -0.4889 
     27 C          19.3048   55.2302   14.2199 C.2       3 UNK         0.4972 
     28 O          20.0334   55.7411   15.0737 O.2       3 UNK        -0.4802 
     29 N          18.6578   55.9385   13.2769 N.am      4 UNK        -0.4926 
     30 CA         18.6198   57.4001   13.1537 C.3       4 UNK         0.0426 
     31 CB         17.8108   57.7785   11.9028 C.3       4 UNK        -0.1835 
     32 C          20.0205   58.0332   13.1153 C.2       4 UNK         0.5138 
     33 O          20.7507   57.8337   12.1421 O.2       4 UNK        -0.5194 
     34 N          20.3852   58.7209   14.2091 N.am      5 UNK        -0.4222 
     35 CA         21.6942   59.3365   14.4807 C.3       5 UNK         0.0221 
     36 CB         21.8911   60.5803   13.5876 C.3       5 UNK        -0.2034 
     37 C          22.8776   58.3488   14.3771 C.2       5 UNK         0.4987 
     38 O          23.9785   58.7541   13.9978 O.2       5 UNK        -0.5478 
     39 N          22.6152   57.0576   14.6445 N.am      6 UNK        -0.4365 
     40 CA         23.5024   55.9063   14.4231 C.3       6 UNK         0.0273 
     41 CB         24.6678   55.9177   15.4344 C.3       6 UNK        -0.1956 
     42 C          23.9870   55.7713   12.9611 C.2       6 UNK         0.4962 
     43 O          25.0497   55.1931   12.7260 O.2       6 UNK        -0.5385 
     44 N          23.2100   56.3171   12.0139 N.am      7 UNK        -0.4054 
     45 CA         23.5272   56.4593   10.5848 C.3       7 UNK         0.0701 
     46 C          24.7020   57.4376   10.2858 C.2       7 UNK         0.5602 
     47 N          25.0991   58.3049   11.2107 N.am      7 UNK        -0.7339 
     48 O          25.2458   57.4392    9.1840 O.2       7 UNK        -0.5126 
     49 C49        23.6481   55.1021    9.8339 C.3       8 UNK        -0.0906 
     50 S50        22.1770   54.0487   10.0751 S.3       8 UNK        -0.2590 
     51 C51        22.9136   52.6285   10.9434 C.3       8 UNK         0.0201 
     52 H52        12.9245   50.8548    8.7840 H         1 UNK         0.0901 
     53 H53        12.3109   52.1247    7.7234 H         1 UNK         0.0901 
     54 H54        11.8919   52.1273    9.4388 H         1 UNK         0.0901 
     55 H55        15.0811   51.1529    9.3166 H         1 UNK         0.3005 
     56 H56        16.4734   53.6192    8.9235 H         1 UNK         0.1258 
     57 H57        18.4289   52.3587    9.9297 H         1 UNK         0.0713 
     58 H58        17.7065   51.6059    8.5382 H         1 UNK         0.0713 
     59 H59        18.8665   48.4976   10.6805 H         1 UNK         0.0869 
     60 H60        19.2647   49.5470    9.3445 H         1 UNK         0.0869 
     61 H61        20.9835   51.2054    9.6565 H         1 UNK         0.1451 
     62 H62        22.4798   52.0727   13.5816 H         1 UNK         0.1348 
     63 H63        19.1227   49.4487   13.0975 H         1 UNK         0.1248 
     64 H64        20.7404   49.5011   15.2455 H         1 UNK         0.0802 
     65 H65        21.5522   51.0218   15.5177 H         1 UNK         0.0802 
     66 H66        20.4985   53.2398   15.8342 H         1 UNK         0.0831 
     67 H67        18.8716   53.5159   16.3910 H         1 UNK         0.0831 
     68 H68        19.7850   53.3226   13.4806 H         1 UNK         0.1266 
     69 H69        17.7485   52.8109   12.8538 H         1 UNK         0.2858 
     70 H70        14.8337   52.5049   13.8887 H         1 UNK         0.0493 
     71 H71        14.7518   55.4134   12.9223 H         1 UNK         0.0858 
     72 H72        13.4197   54.2668   12.7879 H         1 UNK         0.0858 
     73 H73        13.9850   54.7757   14.3685 H         1 UNK         0.0858 
     74 H74        15.2208   51.9739   11.7763 H         1 UNK         0.2998 
     75 H75        18.0869   55.4275   12.6111 H         1 UNK         0.2942 
     76 H76        18.0856   57.7841   14.0250 H         1 UNK         0.0588 
     77 H77        17.7644   58.8611   11.7777 H         1 UNK         0.0836 
     78 H78        16.7850   57.4151   11.9682 H         1 UNK         0.0836 
     79 H79        18.2539   57.3632   10.9965 H         1 UNK         0.0836 
     80 H80        19.7175   58.7794   14.9662 H         1 UNK         0.3003 
     81 H81        21.6721   59.6709   15.5191 H         1 UNK         0.0959 
     82 H82        21.0566   61.2748   13.6837 H         1 UNK         0.0808 
     83 H83        22.7953   61.1242   13.8642 H         1 UNK         0.0808 
     84 H84        21.9837   60.3100   12.5350 H         1 UNK         0.0808 
     85 H85        21.6673   56.8137   14.9231 H         1 UNK         0.3181 
     86 H86        22.9003   55.0180   14.6210 H         1 UNK         0.0819 
     87 H87        25.3499   56.7493   15.2544 H         1 UNK         0.0823 
     88 H88        24.3038   55.9974   16.4587 H         1 UNK         0.0823 
     89 H89        25.2522   54.9990   15.3710 H         1 UNK         0.0823 
     90 H90        22.3533   56.7888   12.2911 H         1 UNK         0.3159 
     91 H91        22.6607   56.9698   10.1639 H         1 UNK         0.0870 
     92 H92        25.8526   58.9378   10.9957 H         1 UNK         0.3462 
     93 H93        24.6642   58.3357   12.1270 H         1 UNK         0.3462 
     94 H94        24.5505   54.5712   10.1411 H         1 UNK         0.0763 
     95 H95        23.7521   55.2708    8.7607 H         1 UNK         0.0763 
     96 H96        23.5938   52.9886   11.7164 H         1 UNK         0.0881 
     97 H97        23.5189   52.0505   10.2437 H         1 UNK         0.0881 
@<TRIPOS>BOND
     1    1    2 1    
     2    1   52 1    
     3    1   53 1    
     4    1   54 1    
     5    2    3 2    
     6    2    4 am   BACKBONE|DICT|INTERRES
     7    4    5 1    
     8    4   55 1    
     9    5    6 1    
    10    5   25 1    
    11    5   56 1    
    12    6    7 1    
    13    6   57 1    
    14    6   58 1    
    15    7    8 1    
    16    8    9 1    
    17    8   59 1    
    18    8   60 1    
    19    9   10 ar   
    20    9   14 ar   
    21   10   11 ar   
    22   10   61 1    
    23   11   12 ar   
    24   11   51 1    
    25   12   13 ar   
    26   12   62 1    
    27   13   14 ar   
    28   13   15 1    
    29   14   63 1    
    30   15   16 1    
    31   15   64 1    
    32   15   65 1    
    33   16   17 1    
    34   17   18 1    
    35   17   66 1    
    36   17   67 1    
    37   18   19 1    
    38   18   27 1    
    39   18   68 1    
    40   19   20 am   BACKBONE|DICT|INTERRES
    41   19   69 1    
    42   20   21 2    
    43   20   22 1    
    44   22   23 1    
    45   22   24 1    
    46   22   70 1    
    47   23   71 1    
    48   23   72 1    
    49   23   73 1    
    50   24   25 am   BACKBONE|DICT|INTERRES
    51   24   74 1    
    52   25   26 2    
    53   27   28 2    
    54   27   29 am   BACKBONE|DICT|INTERRES
    55   29   30 1    
    56   29   75 1    
    57   30   31 1    
    58   30   32 1    
    59   30   76 1    
    60   31   77 1    
    61   31   78 1    
    62   31   79 1    
    63   32   33 2    
    64   32   34 am   BACKBONE|DICT|INTERRES
    65   34   35 1    
    66   34   80 1    
    67   35   36 1    
    68   35   37 1    
    69   35   81 1    
    70   36   82 1    
    71   36   83 1    
    72   36   84 1    
    73   37   38 2    
    74   37   39 am   BACKBONE|DICT|INTERRES
    75   39   40 1    
    76   39   85 1    
    77   40   41 1    
    78   40   42 1    
    79   40   86 1    
    80   41   87 1    
    81   41   88 1    
    82   41   89 1    
    83   42   43 2    
    84   42   44 am   BACKBONE|DICT|INTERRES
    85   44   45 1    
    86   44   90 1    
    87   45   46 1    
    88   45   49 1    
    89   45   91 1    
    90   46   47 am   BACKBONE|DICT|INTERRES
    91   46   48 2    
    92   47   92 1    
    93   47   93 1    
    94   49   50 1    
    95   49   94 1    
    96   49   95 1    
    97   50   51 1    
    98   51   96 1    
    99   51   97 1    
@<TRIPOS>SUBSTRUCTURE
     1 UNK         1 GROUP             0       ****    0 ROOT    
