@<TRIPOS>MOLECULE
3R0
97   99    1
SMALL
USER_CHARGES


@<TRIPOS>ATOM
      1 CA         23.4217   52.9245   15.2977 C.3       0 UNK        -0.2006 
      2 C          22.2296   52.0516   14.9350 C.2       0 UNK         0.4864 
      3 O          22.0523   50.9818   15.5195 O.2       0 UNK        -0.5092 
      4 N          21.4141   52.4995   13.9735 N.am      1 UNK        -0.4825 
      5 CA         20.1666   51.8445   13.5676 C.3       1 UNK         0.0812 
      6 C6         19.8219   52.1755   12.0923 C.3       8 UNK        -0.0932 
      7 S7         18.7394   50.9166   11.3302 S.3       8 UNK        -0.2545 
      8 C8         18.9321   51.2748    9.5542 C.3       8 UNK         0.0228 
      9 C9         18.5608   52.7096    9.2045 C.ar      8 UNK        -0.0842 
     10 C10        19.4965   53.5443    8.5897 C.ar      8 UNK        -0.0874 
     11 C11        19.1721   54.8652    8.2717 C.ar      8 UNK        -0.0867 
     12 C12        17.9014   55.3568    8.5873 C.ar      8 UNK        -0.1042 
     13 C13        16.9502   54.5301    9.1959 C.ar      8 UNK        -0.0824 
     14 C14        17.2832   53.2021    9.4850 C.ar      8 UNK        -0.1194 
     15 C15        15.5571   55.0693    9.5064 C.3       8 UNK         0.0180 
     16 S16        14.9730   54.6565   11.1848 S.3       8 UNK        -0.2273 
     17 C17        16.1244   55.6213   12.2169 C.3       8 UNK        -0.0981 
     18 CA         16.0040   55.2470   13.7159 C.3       3 UNK         0.0747 
     19 N          16.3601   53.8414   13.9484 N.am      3 UNK        -0.4794 
     20 C          16.0059   53.1159   15.0170 C.2       2 UNK         0.5067 
     21 O          15.2436   53.5207   15.8941 O.2       2 UNK        -0.4802 
     22 CA         16.6364   51.7154   15.1529 C.3       2 UNK         0.0370 
     23 CB         15.6228   50.6355   14.7429 C.3       2 UNK        -0.1774 
     24 N          17.8751   51.5236   14.3857 N.am      2 UNK        -0.4750 
     25 C          19.0154   52.2145   14.5310 C.2       1 UNK         0.5001 
     26 O          19.1518   53.1289   15.3482 O.2       1 UNK        -0.4889 
     27 C          16.8208   56.2261   14.5937 C.2       3 UNK         0.4972 
     28 O          16.5629   57.4285   14.5330 O.2       3 UNK        -0.4802 
     29 N          17.7851   55.7134   15.3781 N.am      4 UNK        -0.4926 
     30 CA         18.7308   56.4408   16.2323 C.3       4 UNK         0.0426 
     31 CB         18.0040   57.2240   17.3466 C.3       4 UNK        -0.1835 
     32 C          19.6979   57.3045   15.4035 C.2       4 UNK         0.5138 
     33 O          19.9424   58.4654   15.7388 O.2       4 UNK        -0.5194 
     34 N          20.2201   56.7104   14.3252 N.am      5 UNK        -0.4222 
     35 CA         21.1649   57.3178   13.3974 C.3       5 UNK         0.0221 
     36 CB         20.4200   57.7294   12.1175 C.3       5 UNK        -0.2034 
     37 C          22.2629   56.2973   13.0886 C.2       5 UNK         0.4987 
     38 O          21.9754   55.1014   12.9848 O.2       5 UNK        -0.5478 
     39 N          23.4971   56.7881   12.9232 N.am      6 UNK        -0.4365 
     40 CA         24.6996   55.9852   12.6683 C.3       6 UNK         0.0273 
     41 CB         25.9407   56.8346   12.9927 C.3       6 UNK        -0.1956 
     42 C          24.7936   55.4102   11.2415 C.2       6 UNK         0.4962 
     43 O          25.6956   54.6138   10.9774 O.2       6 UNK        -0.5385 
     44 N          23.8828   55.8179   10.3501 N.am      7 UNK        -0.4054 
     45 CA         23.7581   55.3304    8.9693 C.3       7 UNK         0.0701 
     46 C          23.2799   53.8566    8.8266 C.2       7 UNK         0.5602 
     47 N          22.8362   53.1929    9.8870 N.am      7 UNK        -0.7339 
     48 O          23.3248   53.3023    7.7316 O.2       7 UNK        -0.5126 
     49 C49        22.9255   56.3128    8.1020 C.3       8 UNK        -0.0906 
     50 S50        21.2465   56.6249    8.7581 S.3       8 UNK        -0.2590 
     51 C51        20.1910   55.7452    7.5644 C.3       8 UNK         0.0201 
     52 H52        23.2284   53.9743   15.0813 H         1 UNK         0.0901 
     53 H53        24.3023   52.6117   14.7375 H         1 UNK         0.0901 
     54 H54        23.6444   52.8403   16.3611 H         1 UNK         0.0901 
     55 H55        21.5923   53.4147   13.5601 H         1 UNK         0.3005 
     56 H56        20.3203   50.7655   13.6495 H         1 UNK         0.1258 
     57 H57        20.7367   52.2086   11.4998 H         1 UNK         0.0713 
     58 H58        19.3686   53.1645   11.9956 H         1 UNK         0.0713 
     59 H59        18.2966   50.5951    8.9851 H         1 UNK         0.0869 
     60 H60        19.9592   51.0532    9.2601 H         1 UNK         0.0869 
     61 H61        20.4794   53.1645    8.3499 H         1 UNK         0.1451 
     62 H62        17.6510   56.3810    8.3458 H         1 UNK         0.1348 
     63 H63        16.5527   52.5523    9.9473 H         1 UNK         0.1248 
     64 H64        15.5227   56.1528    9.3821 H         1 UNK         0.0802 
     65 H65        14.8561   54.6537    8.7818 H         1 UNK         0.0802 
     66 H66        15.9006   56.6778   12.0561 H         1 UNK         0.0831 
     67 H67        17.1461   55.4652   11.8648 H         1 UNK         0.0831 
     68 H68        14.9614   55.3834   14.0134 H         1 UNK         0.1266 
     69 H69        16.9671   53.4156   13.2640 H         1 UNK         0.2858 
     70 H70        16.8807   51.5732   16.2074 H         1 UNK         0.0493 
     71 H71        15.3592   50.7101   13.6870 H         1 UNK         0.0858 
     72 H72        14.6990   50.7281   15.3159 H         1 UNK         0.0858 
     73 H73        16.0126   49.6336   14.9232 H         1 UNK         0.0858 
     74 H74        17.8408   50.8292   13.6504 H         1 UNK         0.2998 
     75 H75        17.9472   54.7116   15.3335 H         1 UNK         0.2942 
     76 H76        19.3443   55.6804   16.7177 H         1 UNK         0.0588 
     77 H77        18.7192   57.6420   18.0557 H         1 UNK         0.0836 
     78 H78        17.3295   56.5791   17.9095 H         1 UNK         0.0836 
     79 H79        17.4215   58.0559   16.9502 H         1 UNK         0.0836 
     80 H80        20.0208   55.7331   14.1574 H         1 UNK         0.3003 
     81 H81        21.6214   58.2012   13.8496 H         1 UNK         0.0959 
     82 H82        19.9791   56.8682   11.6125 H         1 UNK         0.0808 
     83 H83        19.6166   58.4330   12.3365 H         1 UNK         0.0808 
     84 H84        21.0929   58.2169   11.4113 H         1 UNK         0.0808 
     85 H85        23.6379   57.7855   13.0072 H         1 UNK         0.3181 
     86 H86        24.6869   55.1320   13.3495 H         1 UNK         0.0819 
     87 H87        25.9270   57.1809   14.0264 H         1 UNK         0.0823 
     88 H88        26.8568   56.2566   12.8619 H         1 UNK         0.0823 
     89 H89        26.0132   57.7088   12.3446 H         1 UNK         0.0823 
     90 H90        23.1587   56.4505   10.6548 H         1 UNK         0.3159 
     91 H91        24.7674   55.3269    8.5541 H         1 UNK         0.0870 
     92 H92        22.5593   52.2308    9.7851 H         1 UNK         0.3462 
     93 H93        22.7803   53.6479   10.7846 H         1 UNK         0.3462 
     94 H94        23.4392   57.2745    8.0613 H         1 UNK         0.0763 
     95 H95        22.8791   55.9752    7.0653 H         1 UNK         0.0763 
     96 H96        20.7921   55.1297    6.8938 H         1 UNK         0.0881 
     97 H97        19.6862   56.4754    6.9302 H         1 UNK         0.0881 
@<TRIPOS>BOND
     1    1    2 1    
     2    1   52 1    
     3    1   53 1    
     4    1   54 1    
     5    2    3 2    
     6    2    4 am   BACKBONE|DICT|INTERRES
     7    4    5 1    
     8    4   55 1    
     9    5    6 1    
    10    5   25 1    
    11    5   56 1    
    12    6    7 1    
    13    6   57 1    
    14    6   58 1    
    15    7    8 1    
    16    8    9 1    
    17    8   59 1    
    18    8   60 1    
    19    9   10 ar   
    20    9   14 ar   
    21   10   11 ar   
    22   10   61 1    
    23   11   12 ar   
    24   11   51 1    
    25   12   13 ar   
    26   12   62 1    
    27   13   14 ar   
    28   13   15 1    
    29   14   63 1    
    30   15   16 1    
    31   15   64 1    
    32   15   65 1    
    33   16   17 1    
    34   17   18 1    
    35   17   66 1    
    36   17   67 1    
    37   18   19 1    
    38   18   27 1    
    39   18   68 1    
    40   19   20 am   BACKBONE|DICT|INTERRES
    41   19   69 1    
    42   20   21 2    
    43   20   22 1    
    44   22   23 1    
    45   22   24 1    
    46   22   70 1    
    47   23   71 1    
    48   23   72 1    
    49   23   73 1    
    50   24   25 am   BACKBONE|DICT|INTERRES
    51   24   74 1    
    52   25   26 2    
    53   27   28 2    
    54   27   29 am   BACKBONE|DICT|INTERRES
    55   29   30 1    
    56   29   75 1    
    57   30   31 1    
    58   30   32 1    
    59   30   76 1    
    60   31   77 1    
    61   31   78 1    
    62   31   79 1    
    63   32   33 2    
    64   32   34 am   BACKBONE|DICT|INTERRES
    65   34   35 1    
    66   34   80 1    
    67   35   36 1    
    68   35   37 1    
    69   35   81 1    
    70   36   82 1    
    71   36   83 1    
    72   36   84 1    
    73   37   38 2    
    74   37   39 am   BACKBONE|DICT|INTERRES
    75   39   40 1    
    76   39   85 1    
    77   40   41 1    
    78   40   42 1    
    79   40   86 1    
    80   41   87 1    
    81   41   88 1    
    82   41   89 1    
    83   42   43 2    
    84   42   44 am   BACKBONE|DICT|INTERRES
    85   44   45 1    
    86   44   90 1    
    87   45   46 1    
    88   45   49 1    
    89   45   91 1    
    90   46   47 am   BACKBONE|DICT|INTERRES
    91   46   48 2    
    92   47   92 1    
    93   47   93 1    
    94   49   50 1    
    95   49   94 1    
    96   49   95 1    
    97   50   51 1    
    98   51   96 1    
    99   51   97 1    
@<TRIPOS>SUBSTRUCTURE
     1 UNK         1 GROUP             0       ****    0 ROOT    
