@<TRIPOS>MOLECULE
3R0
97   99    1
SMALL
USER_CHARGES


@<TRIPOS>ATOM
      1 CA         14.6824   50.6224   12.4881 C.3       0 UNK        -0.2006 
      2 C          14.8538   51.5495   11.2948 C.2       0 UNK         0.4864 
      3 O          13.8645   51.9700   10.6957 O.2       0 UNK        -0.5092 
      4 N          16.1036   51.8828   10.9523 N.am      1 UNK        -0.4825 
      5 CA         16.4760   52.7043    9.7893 C.3       1 UNK         0.0812 
      6 C6         17.7799   52.1935    9.1134 C.3       8 UNK        -0.0932 
      7 S7         17.7549   50.4046    8.7468 S.3       8 UNK        -0.2545 
      8 C8         19.5091   49.9448    8.9859 C.3       8 UNK         0.0228 
      9 C9         20.0760   50.2225   10.3801 C.ar      8 UNK        -0.0842 
     10 C10        21.4286   50.5538   10.5097 C.ar      8 UNK        -0.0874 
     11 C11        21.9918   50.7978   11.7663 C.ar      8 UNK        -0.0867 
     12 C12        21.1846   50.7339   12.9058 C.ar      8 UNK        -0.1042 
     13 C13        19.8335   50.3903   12.7944 C.ar      8 UNK        -0.0824 
     14 C14        19.2905   50.1217   11.5342 C.ar      8 UNK        -0.1194 
     15 C15        18.9610   50.2659   14.0335 C.3       8 UNK         0.0180 
     16 S16        17.8286   51.6786   14.2083 S.3       8 UNK        -0.2273 
     17 C17        18.9244   52.9808   14.8702 C.3       8 UNK        -0.0981 
     18 CA         19.1031   54.1797   13.9051 C.3       3 UNK         0.0747 
     19 N          17.8129   54.6890   13.4209 N.am      3 UNK        -0.4794 
     20 C          17.5884   55.7665   12.6554 C.2       2 UNK         0.5067 
     21 O          18.4346   56.6187   12.3844 O.2       2 UNK        -0.4802 
     22 CA         16.1804   55.8358   12.0387 C.3       2 UNK         0.0370 
     23 CB         15.9355   57.1181   11.2148 C.3       2 UNK        -0.1774 
     24 N          15.9308   54.6150   11.2584 N.am      2 UNK        -0.4750 
     25 C          16.6056   54.1970   10.1729 C.2       1 UNK         0.5001 
     26 O          17.3530   54.9231    9.5170 O.2       1 UNK        -0.4889 
     27 C          19.9960   55.2493   14.5595 C.2       3 UNK         0.4972 
     28 O          21.1893   55.2967   14.2696 O.2       3 UNK        -0.4802 
     29 N          19.3957   56.1080   15.3963 N.am      4 UNK        -0.4926 
     30 CA         20.0775   57.1966   16.1037 C.3       4 UNK         0.0426 
     31 CB         19.1264   57.7904   17.1546 C.3       4 UNK        -0.1835 
     32 C          20.6163   58.3056   15.1803 C.2       4 UNK         0.5138 
     33 O          21.6082   58.9455   15.5306 O.2       4 UNK        -0.5194 
     34 N          19.9664   58.5105   14.0275 N.am      5 UNK        -0.4222 
     35 CA         20.3925   59.4582   12.9982 C.3       5 UNK         0.0221 
     36 CB         19.1573   60.0488   12.2965 C.3       5 UNK        -0.2034 
     37 C          21.3253   58.7839   11.9829 C.2       5 UNK         0.4987 
     38 O          22.3445   59.3699   11.6176 O.2       5 UNK        -0.5478 
     39 N          20.9608   57.5705   11.5456 N.am      6 UNK        -0.4365 
     40 CA         21.6831   56.7883   10.5408 C.3       6 UNK         0.0273 
     41 CB         20.8046   55.6111   10.0842 C.3       6 UNK        -0.1956 
     42 C          23.0510   56.2793   11.0217 C.2       6 UNK         0.4962 
     43 O          24.0160   56.3378   10.2573 O.2       6 UNK        -0.5385 
     44 N          23.1010   55.7811   12.2613 N.am      7 UNK        -0.4054 
     45 CA         24.2648   55.1277   12.8772 C.3       7 UNK         0.0701 
     46 C          24.6870   55.7861   14.2201 C.2       7 UNK         0.5602 
     47 N          24.1441   56.9354   14.6013 N.am      7 UNK        -0.7339 
     48 O          25.5482   55.2618   14.9221 O.2       7 UNK        -0.5126 
     49 C49        24.0332   53.5961   13.0160 C.3       8 UNK        -0.0906 
     50 S50        23.9089   52.7704   11.3948 S.3       8 UNK        -0.2590 
     51 C51        23.4847   51.0715   11.8839 C.3       8 UNK         0.0201 
     52 H52        15.6125   50.1142   12.7419 H         1 UNK         0.0901 
     53 H53        13.9351   49.8602   12.2686 H         1 UNK         0.0901 
     54 H54        14.3503   51.1862   13.3593 H         1 UNK         0.0901 
     55 H55        16.8792   51.5374   11.5000 H         1 UNK         0.3005 
     56 H56        15.6801   52.6496    9.0429 H         1 UNK         0.1258 
     57 H57        18.6409   52.4196    9.7449 H         1 UNK         0.0713 
     58 H58        17.9527   52.7184    8.1721 H         1 UNK         0.0713 
     59 H59        20.0985   50.4689    8.2318 H         1 UNK         0.0869 
     60 H60        19.6194   48.8803    8.7757 H         1 UNK         0.0869 
     61 H61        22.0552   50.6086    9.6295 H         1 UNK         0.1451 
     62 H62        21.6144   50.9221   13.8802 H         1 UNK         0.1348 
     63 H63        18.2521   49.8324   11.4565 H         1 UNK         0.1248 
     64 H64        18.3687   49.3525   13.9625 H         1 UNK         0.0802 
     65 H65        19.5669   50.1609   14.9347 H         1 UNK         0.0802 
     66 H66        19.8951   52.5476   15.1189 H         1 UNK         0.0831 
     67 H67        18.4935   53.3127   15.8169 H         1 UNK         0.0831 
     68 H68        19.6404   53.8196   13.0245 H         1 UNK         0.1266 
     69 H69        17.0386   54.0599   13.5750 H         1 UNK         0.2858 
     70 H70        15.4686   55.8329   12.8655 H         1 UNK         0.0493 
     71 H71        16.6639   57.2424   10.4132 H         1 UNK         0.0858 
     72 H72        14.9416   57.1194   10.7682 H         1 UNK         0.0858 
     73 H73        16.0083   58.0021   11.8492 H         1 UNK         0.0858 
     74 H74        15.3190   53.9367   11.6912 H         1 UNK         0.2998 
     75 H75        18.4034   56.0057   15.5561 H         1 UNK         0.2942 
     76 H76        20.9346   56.7663   16.6263 H         1 UNK         0.0588 
     77 H77        19.6157   58.5864   17.7178 H         1 UNK         0.0836 
     78 H78        18.8084   57.0364   17.8747 H         1 UNK         0.0836 
     79 H79        18.2334   58.2177   16.6966 H         1 UNK         0.0836 
     80 H80        19.1963   57.8960   13.7902 H         1 UNK         0.3003 
     81 H81        20.9399   60.2825   13.4616 H         1 UNK         0.0959 
     82 H82        18.5598   59.2817   11.8027 H         1 UNK         0.0808 
     83 H83        18.5125   60.5697   13.0045 H         1 UNK         0.0808 
     84 H84        19.4521   60.7718   11.5348 H         1 UNK         0.0808 
     85 H85        20.0768   57.1854   11.8735 H         1 UNK         0.3181 
     86 H86        21.8569   57.4353    9.6784 H         1 UNK         0.0819 
     87 H87        21.3121   55.0142    9.3252 H         1 UNK         0.0823 
     88 H88        20.5565   54.9435   10.9100 H         1 UNK         0.0823 
     89 H89        19.8695   55.9624    9.6479 H         1 UNK         0.0823 
     90 H90        22.2652   55.7734   12.8402 H         1 UNK         0.3159 
     91 H91        25.1365   55.2711   12.2371 H         1 UNK         0.0870 
     92 H92        24.4330   57.3514   15.4721 H         1 UNK         0.3462 
     93 H93        23.4515   57.3943   14.0328 H         1 UNK         0.3462 
     94 H94        23.1279   53.3949   13.5919 H         1 UNK         0.0763 
     95 H95        24.8559   53.1253   13.5574 H         1 UNK         0.0763 
     96 H96        23.8399   50.8696   12.8956 H         1 UNK         0.0881 
     97 H97        24.0254   50.3795   11.2365 H         1 UNK         0.0881 
@<TRIPOS>BOND
     1    1    2 1    
     2    1   52 1    
     3    1   53 1    
     4    1   54 1    
     5    2    3 2    
     6    2    4 am   BACKBONE|DICT|INTERRES
     7    4    5 1    
     8    4   55 1    
     9    5    6 1    
    10    5   25 1    
    11    5   56 1    
    12    6    7 1    
    13    6   57 1    
    14    6   58 1    
    15    7    8 1    
    16    8    9 1    
    17    8   59 1    
    18    8   60 1    
    19    9   10 ar   
    20    9   14 ar   
    21   10   11 ar   
    22   10   61 1    
    23   11   12 ar   
    24   11   51 1    
    25   12   13 ar   
    26   12   62 1    
    27   13   14 ar   
    28   13   15 1    
    29   14   63 1    
    30   15   16 1    
    31   15   64 1    
    32   15   65 1    
    33   16   17 1    
    34   17   18 1    
    35   17   66 1    
    36   17   67 1    
    37   18   19 1    
    38   18   27 1    
    39   18   68 1    
    40   19   20 am   BACKBONE|DICT|INTERRES
    41   19   69 1    
    42   20   21 2    
    43   20   22 1    
    44   22   23 1    
    45   22   24 1    
    46   22   70 1    
    47   23   71 1    
    48   23   72 1    
    49   23   73 1    
    50   24   25 am   BACKBONE|DICT|INTERRES
    51   24   74 1    
    52   25   26 2    
    53   27   28 2    
    54   27   29 am   BACKBONE|DICT|INTERRES
    55   29   30 1    
    56   29   75 1    
    57   30   31 1    
    58   30   32 1    
    59   30   76 1    
    60   31   77 1    
    61   31   78 1    
    62   31   79 1    
    63   32   33 2    
    64   32   34 am   BACKBONE|DICT|INTERRES
    65   34   35 1    
    66   34   80 1    
    67   35   36 1    
    68   35   37 1    
    69   35   81 1    
    70   36   82 1    
    71   36   83 1    
    72   36   84 1    
    73   37   38 2    
    74   37   39 am   BACKBONE|DICT|INTERRES
    75   39   40 1    
    76   39   85 1    
    77   40   41 1    
    78   40   42 1    
    79   40   86 1    
    80   41   87 1    
    81   41   88 1    
    82   41   89 1    
    83   42   43 2    
    84   42   44 am   BACKBONE|DICT|INTERRES
    85   44   45 1    
    86   44   90 1    
    87   45   46 1    
    88   45   49 1    
    89   45   91 1    
    90   46   47 am   BACKBONE|DICT|INTERRES
    91   46   48 2    
    92   47   92 1    
    93   47   93 1    
    94   49   50 1    
    95   49   94 1    
    96   49   95 1    
    97   50   51 1    
    98   51   96 1    
    99   51   97 1    
@<TRIPOS>SUBSTRUCTURE
     1 UNK         1 GROUP             0       ****    0 ROOT    
