@<TRIPOS>MOLECULE
3R0
97   99    1
SMALL
USER_CHARGES


@<TRIPOS>ATOM
      1 CA         15.2014   47.6474   12.6702 C.3       0 UNK        -0.2006 
      2 C          15.8837   48.9565   12.3013 C.2       0 UNK         0.4864 
      3 O          15.2153   49.9852   12.2037 O.2       0 UNK        -0.5092 
      4 N          17.2046   48.9178   12.0895 N.am      1 UNK        -0.4825 
      5 CA         18.0454   50.0799   11.7749 C.3       1 UNK         0.0812 
      6 C6         19.1940   49.6958   10.8027 C.3       8 UNK        -0.0932 
      7 S7         18.5351   49.2618    9.1588 S.3       8 UNK        -0.2545 
      8 C8         19.1510   50.6354    8.1215 C.3       8 UNK         0.0228 
      9 C9         18.7136   52.0306    8.5715 C.ar      8 UNK        -0.0842 
     10 C10        19.6226   53.0919    8.4946 C.ar      8 UNK        -0.0874 
     11 C11        19.2379   54.3901    8.8451 C.ar      8 UNK        -0.0867 
     12 C12        17.9349   54.6215    9.2925 C.ar      8 UNK        -0.1042 
     13 C13        17.0226   53.5697    9.4024 C.ar      8 UNK        -0.0824 
     14 C14        17.4100   52.2827    9.0164 C.ar      8 UNK        -0.1194 
     15 C15        15.6120   53.8253    9.9137 C.3       8 UNK         0.0180 
     16 S16        15.4870   53.6007   11.7185 S.3       8 UNK        -0.2273 
     17 C17        16.0947   55.2007   12.3575 C.3       8 UNK        -0.0981 
     18 CA         16.9595   55.0547   13.6346 C.3       3 UNK         0.0747 
     19 N          18.1050   54.1586   13.4231 N.am      3 UNK        -0.4794 
     20 C          18.8684   53.6326   14.3926 C.2       2 UNK         0.5067 
     21 O          18.7160   53.8712   15.5910 O.2       2 UNK        -0.4802 
     22 CA         19.9688   52.6614   13.9223 C.3       2 UNK         0.0370 
     23 CB         20.6749   51.9214   15.0785 C.3       2 UNK        -0.1774 
     24 N          19.4632   51.7370   12.8985 N.am      2 UNK        -0.4750 
     25 C          18.5454   50.7704   13.0630 C.2       1 UNK         0.5001 
     26 O          18.0874   50.4430   14.1609 O.2       1 UNK        -0.4889 
     27 C          17.3731   56.4473   14.1599 C.2       3 UNK         0.4972 
     28 O          16.5540   57.1312   14.7745 O.2       3 UNK        -0.4802 
     29 N          18.6280   56.8366   13.9134 N.am      4 UNK        -0.4926 
     30 CA         19.2783   58.0441   14.4087 C.3       4 UNK         0.0426 
     31 CB         19.2007   59.1392   13.3314 C.3       4 UNK        -0.1835 
     32 C          20.7356   57.6941   14.7311 C.2       4 UNK         0.5138 
     33 O          21.2448   56.6916   14.2231 O.2       4 UNK        -0.5194 
     34 N          21.4014   58.5398   15.5295 N.am      5 UNK        -0.4222 
     35 CA         22.8011   58.3674   15.9478 C.3       5 UNK         0.0221 
     36 CB         23.1921   59.4986   16.9126 C.3       5 UNK        -0.2034 
     37 C          23.8014   58.2850   14.7791 C.2       5 UNK         0.4987 
     38 O          24.7817   57.5452   14.8693 O.2       5 UNK        -0.5478 
     39 N          23.5080   59.0023   13.6854 N.am      6 UNK        -0.4365 
     40 CA         24.2576   58.9650   12.4265 C.3       6 UNK         0.0273 
     41 CB         23.7780   60.1152   11.5255 C.3       6 UNK        -0.1956 
     42 C          24.1580   57.6217   11.6758 C.2       6 UNK         0.4962 
     43 O          25.0196   57.3448   10.8396 O.2       6 UNK        -0.5385 
     44 N          23.1268   56.8203   11.9721 N.am      7 UNK        -0.4054 
     45 CA         22.9033   55.4876   11.3937 C.3       7 UNK         0.0701 
     46 C          23.6443   54.3519   12.1543 C.2       7 UNK         0.5602 
     47 N          24.3340   54.6183   13.2578 N.am      7 UNK        -0.7339 
     48 O          23.6017   53.2017   11.7263 O.2       7 UNK        -0.5126 
     49 C49        21.3905   55.1725   11.2495 C.3       8 UNK        -0.0906 
     50 S50        20.4848   56.4260   10.2845 S.3       8 UNK        -0.2590 
     51 C51        20.2172   55.5502    8.7095 C.3       8 UNK         0.0201 
     52 H52        14.7292   47.7340   13.6485 H         1 UNK         0.0901 
     53 H53        15.9049   46.8158   12.7056 H         1 UNK         0.0901 
     54 H54        14.4299   47.4076   11.9390 H         1 UNK         0.0901 
     55 H55        17.6986   48.0452   12.2089 H         1 UNK         0.3005 
     56 H56        17.4232   50.8311   11.2861 H         1 UNK         0.1258 
     57 H57        19.7605   48.8475   11.1907 H         1 UNK         0.0713 
     58 H58        19.9163   50.5023   10.6726 H         1 UNK         0.0713 
     59 H59        18.8033   50.4796    7.0996 H         1 UNK         0.0869 
     60 H60        20.2397   50.5705    8.0854 H         1 UNK         0.0869 
     61 H61        20.6278   52.9113    8.1381 H         1 UNK         0.1451 
     62 H62        17.6366   55.6272    9.5532 H         1 UNK         0.1348 
     63 H63        16.6936   51.4740    9.0688 H         1 UNK         0.1248 
     64 H64        15.2780   54.8275    9.6407 H         1 UNK         0.0802 
     65 H65        14.9183   53.1356    9.4305 H         1 UNK         0.0802 
     66 H66        15.2206   55.8231   12.5598 H         1 UNK         0.0831 
     67 H67        16.6572   55.7195   11.5819 H         1 UNK         0.0831 
     68 H68        16.3374   54.6056   14.4125 H         1 UNK         0.1266 
     69 H69        18.2758   53.8849   12.4667 H         1 UNK         0.2858 
     70 H70        20.7308   53.2661   13.4340 H         1 UNK         0.0493 
     71 H71        21.1786   52.6298   15.7373 H         1 UNK         0.0858 
     72 H72        19.9765   51.3542   15.6939 H         1 UNK         0.0858 
     73 H73        21.4325   51.2327   14.7056 H         1 UNK         0.0858 
     74 H74        19.7852   51.9215   11.9586 H         1 UNK         0.2998 
     75 H75        19.2568   56.1858   13.4601 H         1 UNK         0.2942 
     76 H76        18.7926   58.3855   15.3252 H         1 UNK         0.0588 
     77 H77        19.7016   58.8350   12.4111 H         1 UNK         0.0836 
     78 H78        19.6696   60.0633   13.6709 H         1 UNK         0.0836 
     79 H79        18.1659   59.3758   13.0836 H         1 UNK         0.0836 
     80 H80        20.9129   59.3421   15.9014 H         1 UNK         0.3003 
     81 H81        22.8632   57.4201   16.4882 H         1 UNK         0.0959 
     82 H82        23.1152   60.4788   16.4403 H         1 UNK         0.0808 
     83 H83        22.5585   59.5014   17.7998 H         1 UNK         0.0808 
     84 H84        24.2218   59.3814   17.2539 H         1 UNK         0.0808 
     85 H85        22.6859   59.5880   13.7081 H         1 UNK         0.3181 
     86 H86        25.3121   59.1278   12.6598 H         1 UNK         0.0819 
     87 H87        22.7232   60.0128   11.2664 H         1 UNK         0.0823 
     88 H88        24.3408   60.1394   10.5911 H         1 UNK         0.0823 
     89 H89        23.9152   61.0833   12.0077 H         1 UNK         0.0823 
     90 H90        22.4840   57.0776   12.7128 H         1 UNK         0.3159 
     91 H91        23.3264   55.4781   10.3879 H         1 UNK         0.0870 
     92 H92        24.8110   53.8678   13.7310 H         1 UNK         0.3462 
     93 H93        24.3859   55.5582   13.6242 H         1 UNK         0.3462 
     94 H94        20.9193   55.1251   12.2288 H         1 UNK         0.0763 
     95 H95        21.2429   54.1904   10.7976 H         1 UNK         0.0763 
     96 H96        21.1795   55.2121    8.3216 H         1 UNK         0.0881 
     97 H97        19.8241   56.2570    7.9776 H         1 UNK         0.0881 
@<TRIPOS>BOND
     1    1    2 1    
     2    1   52 1    
     3    1   53 1    
     4    1   54 1    
     5    2    3 2    
     6    2    4 am   BACKBONE|DICT|INTERRES
     7    4    5 1    
     8    4   55 1    
     9    5    6 1    
    10    5   25 1    
    11    5   56 1    
    12    6    7 1    
    13    6   57 1    
    14    6   58 1    
    15    7    8 1    
    16    8    9 1    
    17    8   59 1    
    18    8   60 1    
    19    9   10 ar   
    20    9   14 ar   
    21   10   11 ar   
    22   10   61 1    
    23   11   12 ar   
    24   11   51 1    
    25   12   13 ar   
    26   12   62 1    
    27   13   14 ar   
    28   13   15 1    
    29   14   63 1    
    30   15   16 1    
    31   15   64 1    
    32   15   65 1    
    33   16   17 1    
    34   17   18 1    
    35   17   66 1    
    36   17   67 1    
    37   18   19 1    
    38   18   27 1    
    39   18   68 1    
    40   19   20 am   BACKBONE|DICT|INTERRES
    41   19   69 1    
    42   20   21 2    
    43   20   22 1    
    44   22   23 1    
    45   22   24 1    
    46   22   70 1    
    47   23   71 1    
    48   23   72 1    
    49   23   73 1    
    50   24   25 am   BACKBONE|DICT|INTERRES
    51   24   74 1    
    52   25   26 2    
    53   27   28 2    
    54   27   29 am   BACKBONE|DICT|INTERRES
    55   29   30 1    
    56   29   75 1    
    57   30   31 1    
    58   30   32 1    
    59   30   76 1    
    60   31   77 1    
    61   31   78 1    
    62   31   79 1    
    63   32   33 2    
    64   32   34 am   BACKBONE|DICT|INTERRES
    65   34   35 1    
    66   34   80 1    
    67   35   36 1    
    68   35   37 1    
    69   35   81 1    
    70   36   82 1    
    71   36   83 1    
    72   36   84 1    
    73   37   38 2    
    74   37   39 am   BACKBONE|DICT|INTERRES
    75   39   40 1    
    76   39   85 1    
    77   40   41 1    
    78   40   42 1    
    79   40   86 1    
    80   41   87 1    
    81   41   88 1    
    82   41   89 1    
    83   42   43 2    
    84   42   44 am   BACKBONE|DICT|INTERRES
    85   44   45 1    
    86   44   90 1    
    87   45   46 1    
    88   45   49 1    
    89   45   91 1    
    90   46   47 am   BACKBONE|DICT|INTERRES
    91   46   48 2    
    92   47   92 1    
    93   47   93 1    
    94   49   50 1    
    95   49   94 1    
    96   49   95 1    
    97   50   51 1    
    98   51   96 1    
    99   51   97 1    
@<TRIPOS>SUBSTRUCTURE
     1 UNK         1 GROUP             0       ****    0 ROOT    
