@<TRIPOS>MOLECULE
3R0
97   99    1
SMALL
USER_CHARGES


@<TRIPOS>ATOM
      1 CA         18.6890   54.8486    7.8654 C.3       0 UNK        -0.2006 
      2 C          18.4806   54.1263    9.1868 C.2       0 UNK         0.4864 
      3 O          19.0418   54.5327   10.2035 O.2       0 UNK        -0.5092 
      4 N          17.6607   53.0669    9.1909 N.am      1 UNK        -0.4825 
      5 CA         17.3818   52.1909   10.3406 C.3       1 UNK         0.0812 
      6 C6         16.8929   50.7896    9.8879 C.3       8 UNK        -0.0932 
      7 S7         18.1475   49.9216    8.8876 S.3       8 UNK        -0.2545 
      8 C8         18.8447   48.7530   10.1023 C.3       8 UNK         0.0228 
      9 C9         19.4568   49.4550   11.3089 C.ar      8 UNK        -0.0842 
     10 C10        20.5763   50.2786   11.1531 C.ar      8 UNK        -0.0874 
     11 C11        21.1433   50.9194   12.2587 C.ar      8 UNK        -0.0867 
     12 C12        20.6054   50.7060   13.5302 C.ar      8 UNK        -0.1042 
     13 C13        19.4679   49.9140   13.6955 C.ar      8 UNK        -0.0824 
     14 C14        18.9016   49.2848   12.5819 C.ar      8 UNK        -0.1194 
     15 C15        18.8414   49.7456   15.0716 C.3       8 UNK         0.0180 
     16 S16        17.4624   50.9114   15.3121 S.3       8 UNK        -0.2273 
     17 C17        18.2415   52.3232   16.1776 C.3       8 UNK        -0.0981 
     18 CA         18.8590   53.4038   15.2431 C.3       3 UNK         0.0747 
     19 N          17.9890   53.8113   14.1338 N.am      3 UNK        -0.4794 
     20 C          16.8047   54.4372   14.2149 C.2       2 UNK         0.5067 
     21 O          16.2518   54.7419   15.2714 O.2       2 UNK        -0.4802 
     22 CA         16.1274   54.8055   12.8811 C.3       2 UNK         0.0370 
     23 CB         16.2326   56.3190   12.6339 C.3       2 UNK        -0.1774 
     24 N          16.7280   54.0941   11.7501 N.am      2 UNK        -0.4750 
     25 C          16.4409   52.8385   11.3853 C.2       1 UNK         0.5001 
     26 O          15.4957   52.2015   11.8534 O.2       1 UNK        -0.4889 
     27 C          19.3901   54.6390   16.0045 C.2       3 UNK         0.4972 
     28 O          19.3751   54.6713   17.2363 O.2       3 UNK        -0.4802 
     29 N          19.8166   55.6523   15.2406 N.am      4 UNK        -0.4926 
     30 CA         20.2670   56.9600   15.7105 C.3       4 UNK         0.0426 
     31 CB         19.0424   57.8574   15.9935 C.3       4 UNK        -0.1835 
     32 C          21.2380   57.5533   14.6747 C.2       4 UNK         0.5138 
     33 O          21.8524   56.7981   13.9181 O.2       4 UNK        -0.5194 
     34 N          21.3482   58.8898   14.6297 N.am      5 UNK        -0.4222 
     35 CA         22.2466   59.6581   13.7530 C.3       5 UNK         0.0221 
     36 CB         22.0451   61.1595   14.0158 C.3       5 UNK        -0.2034 
     37 C          22.1198   59.3581   12.2460 C.2       5 UNK         0.4987 
     38 O          23.0966   59.5318   11.5159 O.2       5 UNK        -0.5478 
     39 N          20.9496   58.8658   11.8133 N.am      6 UNK        -0.4365 
     40 CA         20.6800   58.3664   10.4603 C.3       6 UNK         0.0273 
     41 CB         19.1971   57.9782   10.3540 C.3       6 UNK        -0.1956 
     42 C          21.5780   57.1882   10.0258 C.2       6 UNK         0.4962 
     43 O          21.7550   56.9922    8.8221 O.2       6 UNK        -0.5385 
     44 N          22.1514   56.4533   10.9898 N.am      7 UNK        -0.4054 
     45 CA         23.1842   55.4324   10.7576 C.3       7 UNK         0.0701 
     46 C          24.5667   56.0102   10.3366 C.2       7 UNK         0.5602 
     47 N          24.8215   57.3094   10.4472 N.am      7 UNK        -0.7339 
     48 O          25.4298   55.2582    9.8910 O.2       7 UNK        -0.5126 
     49 C49        23.3375   54.4848   11.9767 C.3       8 UNK        -0.0906 
     50 S50        21.7978   53.5872   12.3608 S.3       8 UNK        -0.2590 
     51 C51        22.3191   51.8653   12.0847 C.3       8 UNK         0.0201 
     52 H52        19.7471   55.0684    7.7222 H         1 UNK         0.0901 
     53 H53        18.1421   55.7906    7.8621 H         1 UNK         0.0901 
     54 H54        18.3499   54.2513    7.0193 H         1 UNK         0.0901 
     55 H55        17.2107   52.7934    8.3289 H         1 UNK         0.3005 
     56 H56        18.3249   52.0441   10.8720 H         1 UNK         0.1258 
     57 H57        16.6427   50.1630   10.7461 H         1 UNK         0.0713 
     58 H58        15.9777   50.8756    9.2997 H         1 UNK         0.0713 
     59 H59        18.0655   48.0546   10.4117 H         1 UNK         0.0869 
     60 H60        19.6130   48.1527    9.6130 H         1 UNK         0.0869 
     61 H61        20.9914   50.4330   10.1661 H         1 UNK         0.1451 
     62 H62        21.0585   51.1851   14.3868 H         1 UNK         0.1348 
     63 H63        18.0231   48.6668   12.7090 H         1 UNK         0.1248 
     64 H64        18.4595   48.7287   15.1732 H         1 UNK         0.0802 
     65 H65        19.5872   49.8669   15.8584 H         1 UNK         0.0802 
     66 H66        18.9952   51.9441   16.8698 H         1 UNK         0.0831 
     67 H67        17.4679   52.7725   16.8029 H         1 UNK         0.0831 
     68 H68        19.7403   52.9674   14.7781 H         1 UNK         0.1266 
     69 H69        18.3454   53.6130   13.2106 H         1 UNK         0.2858 
     70 H70        15.0706   54.5407   12.9535 H         1 UNK         0.0493 
     71 H71        17.2694   56.6547   12.6229 H         1 UNK         0.0858 
     72 H72        15.7749   56.6022   11.6861 H         1 UNK         0.0858 
     73 H73        15.7215   56.8767   13.4197 H         1 UNK         0.0858 
     74 H74        17.5306   54.5277   11.2978 H         1 UNK         0.2998 
     75 H75        19.8857   55.5145   14.2406 H         1 UNK         0.2942 
     76 H76        20.8335   56.8291   16.6345 H         1 UNK         0.0588 
     77 H77        19.3313   58.8005   16.4580 H         1 UNK         0.0836 
     78 H78        18.3483   57.3736   16.6812 H         1 UNK         0.0836 
     79 H79        18.4911   58.0876   15.0809 H         1 UNK         0.0836 
     80 H80        20.7987   59.4296   15.2824 H         1 UNK         0.3003 
     81 H81        23.2679   59.3960   14.0378 H         1 UNK         0.0959 
     82 H82        22.2537   61.4139   15.0552 H         1 UNK         0.0808 
     83 H83        22.7170   61.7581   13.3986 H         1 UNK         0.0808 
     84 H84        21.0262   61.4759   13.7887 H         1 UNK         0.0808 
     85 H85        20.2052   58.7676   12.4873 H         1 UNK         0.3181 
     86 H86        20.8705   59.1883    9.7671 H         1 UNK         0.0819 
     87 H87        18.9536   57.1504   11.0196 H         1 UNK         0.0823 
     88 H88        18.5428   58.8155   10.5970 H         1 UNK         0.0823 
     89 H89        18.9515   57.6604    9.3402 H         1 UNK         0.0823 
     90 H90        21.9547   56.6601   11.9645 H         1 UNK         0.3159 
     91 H91        22.8535   54.8270    9.9119 H         1 UNK         0.0870 
     92 H92        25.7239   57.6555   10.1632 H         1 UNK         0.3462 
     93 H93        24.1274   57.9570   10.8052 H         1 UNK         0.3462 
     94 H94        24.1356   53.7604   11.8027 H         1 UNK         0.0763 
     95 H95        23.6355   55.0486   12.8624 H         1 UNK         0.0763 
     96 H96        23.1092   51.6030   12.7900 H         1 UNK         0.0881 
     97 H97        22.7460   51.7714   11.0848 H         1 UNK         0.0881 
@<TRIPOS>BOND
     1    1    2 1    
     2    1   52 1    
     3    1   53 1    
     4    1   54 1    
     5    2    3 2    
     6    2    4 am   BACKBONE|DICT|INTERRES
     7    4    5 1    
     8    4   55 1    
     9    5    6 1    
    10    5   25 1    
    11    5   56 1    
    12    6    7 1    
    13    6   57 1    
    14    6   58 1    
    15    7    8 1    
    16    8    9 1    
    17    8   59 1    
    18    8   60 1    
    19    9   10 ar   
    20    9   14 ar   
    21   10   11 ar   
    22   10   61 1    
    23   11   12 ar   
    24   11   51 1    
    25   12   13 ar   
    26   12   62 1    
    27   13   14 ar   
    28   13   15 1    
    29   14   63 1    
    30   15   16 1    
    31   15   64 1    
    32   15   65 1    
    33   16   17 1    
    34   17   18 1    
    35   17   66 1    
    36   17   67 1    
    37   18   19 1    
    38   18   27 1    
    39   18   68 1    
    40   19   20 am   BACKBONE|DICT|INTERRES
    41   19   69 1    
    42   20   21 2    
    43   20   22 1    
    44   22   23 1    
    45   22   24 1    
    46   22   70 1    
    47   23   71 1    
    48   23   72 1    
    49   23   73 1    
    50   24   25 am   BACKBONE|DICT|INTERRES
    51   24   74 1    
    52   25   26 2    
    53   27   28 2    
    54   27   29 am   BACKBONE|DICT|INTERRES
    55   29   30 1    
    56   29   75 1    
    57   30   31 1    
    58   30   32 1    
    59   30   76 1    
    60   31   77 1    
    61   31   78 1    
    62   31   79 1    
    63   32   33 2    
    64   32   34 am   BACKBONE|DICT|INTERRES
    65   34   35 1    
    66   34   80 1    
    67   35   36 1    
    68   35   37 1    
    69   35   81 1    
    70   36   82 1    
    71   36   83 1    
    72   36   84 1    
    73   37   38 2    
    74   37   39 am   BACKBONE|DICT|INTERRES
    75   39   40 1    
    76   39   85 1    
    77   40   41 1    
    78   40   42 1    
    79   40   86 1    
    80   41   87 1    
    81   41   88 1    
    82   41   89 1    
    83   42   43 2    
    84   42   44 am   BACKBONE|DICT|INTERRES
    85   44   45 1    
    86   44   90 1    
    87   45   46 1    
    88   45   49 1    
    89   45   91 1    
    90   46   47 am   BACKBONE|DICT|INTERRES
    91   46   48 2    
    92   47   92 1    
    93   47   93 1    
    94   49   50 1    
    95   49   94 1    
    96   49   95 1    
    97   50   51 1    
    98   51   96 1    
    99   51   97 1    
@<TRIPOS>SUBSTRUCTURE
     1 UNK         1 GROUP             0       ****    0 ROOT    
