@<TRIPOS>MOLECULE
3R0
97   99    1
SMALL
USER_CHARGES


@<TRIPOS>ATOM
      1 CA         14.3032   54.0802    7.8290 C.3       0 UNK        -0.2006 
      2 C          15.4345   54.6614    8.6633 C.2       0 UNK         0.4864 
      3 O          15.4495   55.8649    8.9219 O.2       0 UNK        -0.5092 
      4 N          16.3847   53.8162    9.0841 N.am      1 UNK        -0.4825 
      5 CA         17.5290   54.1916    9.9237 C.3       1 UNK         0.0812 
      6 C6         18.6555   53.1259    9.8914 C.3       8 UNK        -0.0932 
      7 S7         18.0919   51.4188   10.2088 S.3       8 UNK        -0.2545 
      8 C8         19.6812   50.5305   10.2931 C.3       8 UNK         0.0228 
      9 C9         20.3248   50.6633   11.6653 C.ar      8 UNK        -0.0842 
     10 C10        21.4509   51.4698   11.8580 C.ar      8 UNK        -0.0874 
     11 C11        22.0174   51.6018   13.1310 C.ar      8 UNK        -0.0867 
     12 C12        21.4586   50.9122   14.2120 C.ar      8 UNK        -0.1042 
     13 C13        20.3142   50.1286   14.0328 C.ar      8 UNK        -0.0824 
     14 C14        19.7704   49.9866   12.7540 C.ar      8 UNK        -0.1194 
     15 C15        19.6071   49.5035   15.2254 C.3       8 UNK         0.0180 
     16 S16        18.0104   50.3299   15.5479 S.3       8 UNK        -0.2273 
     17 C17        18.5375   51.9800   16.1285 C.3       8 UNK        -0.0981 
     18 CA         18.7348   53.0181   14.9860 C.3       3 UNK         0.0747 
     19 N          17.5677   53.1885   14.1173 N.am      3 UNK        -0.4794 
     20 C          16.4222   53.8192   14.4031 C.2       2 UNK         0.5067 
     21 O          16.1205   54.2158   15.5291 O.2       2 UNK        -0.4802 
     22 CA         15.4623   54.0776   13.2186 C.3       2 UNK         0.0370 
     23 CB         14.8039   55.4692   13.3195 C.3       2 UNK        -0.1774 
     24 N          16.0610   53.9031   11.8826 N.am      2 UNK        -0.4750 
     25 C          17.1270   54.5421   11.3704 C.2       1 UNK         0.5001 
     26 O          17.8040   55.3588   11.9977 O.2       1 UNK        -0.4889 
     27 C          19.3115   54.3637   15.4840 C.2       3 UNK         0.4972 
     28 O          19.7553   54.4479   16.6312 O.2       3 UNK        -0.4802 
     29 N          19.3029   55.3939   14.6219 N.am      4 UNK        -0.4926 
     30 CA         19.8575   56.7126   14.9364 C.3       4 UNK         0.0426 
     31 CB         18.8385   57.5413   15.7406 C.3       4 UNK        -0.1835 
     32 C          20.3260   57.4870   13.6974 C.2       4 UNK         0.5138 
     33 O          21.4132   58.0642   13.7292 O.2       4 UNK        -0.5194 
     34 N          19.5000   57.5245   12.6429 N.am      5 UNK        -0.4222 
     35 CA         19.6781   58.4191   11.4943 C.3       5 UNK         0.0221 
     36 CB         18.3668   58.4947   10.6942 C.3       5 UNK        -0.2034 
     37 C          20.8483   58.0362   10.5766 C.2       5 UNK         0.4987 
     38 O          21.5372   58.9254   10.0753 O.2       5 UNK        -0.5478 
     39 N          21.0520   56.7296   10.3689 N.am      6 UNK        -0.4365 
     40 CA         22.0955   56.1927    9.4870 C.3       6 UNK         0.0273 
     41 CB         21.5771   54.9027    8.8301 C.3       6 UNK        -0.1956 
     42 C          23.4251   55.9191   10.2120 C.2       6 UNK         0.4962 
     43 O          24.3999   55.5576    9.5509 O.2       6 UNK        -0.5385 
     44 N          23.4414   56.0448   11.5438 N.am      7 UNK        -0.4054 
     45 CA         24.5552   55.6232   12.4080 C.3       7 UNK         0.0701 
     46 C          25.7387   56.6271   12.4845 C.2       7 UNK         0.5602 
     47 N          25.6362   57.8229   11.9182 N.am      7 UNK        -0.7339 
     48 O          26.7753   56.3098   13.0621 O.2       7 UNK        -0.5126 
     49 C49        24.0698   55.2086   13.8251 C.3       8 UNK        -0.0906 
     50 S50        22.5575   54.1874   13.8169 S.3       8 UNK        -0.2590 
     51 C51        23.1869   52.5469   13.3538 C.3       8 UNK         0.0201 
     52 H52        14.2702   54.5639    6.8532 H         1 UNK         0.0901 
     53 H53        13.3475   54.2475    8.3250 H         1 UNK         0.0901 
     54 H54        14.4211   53.0082    7.6722 H         1 UNK         0.0901 
     55 H55        16.3325   52.8362    8.8404 H         1 UNK         0.3005 
     56 H56        17.9448   55.1108    9.5043 H         1 UNK         0.1258 
     57 H57        19.4451   53.3756   10.6025 H         1 UNK         0.0713 
     58 H58        19.1246   53.1327    8.9066 H         1 UNK         0.0713 
     59 H59        19.5043   49.4744   10.0844 H         1 UNK         0.0869 
     60 H60        20.3488   50.8873    9.5073 H         1 UNK         0.0869 
     61 H61        21.8731   52.0136   11.0241 H         1 UNK         0.1451 
     62 H62        21.8749   51.0410   15.2021 H         1 UNK         0.1348 
     63 H63        18.8804   49.3877   12.6146 H         1 UNK         0.1248 
     64 H64        19.4256   48.4471   15.0225 H         1 UNK         0.0802 
     65 H65        20.2296   49.5431   16.1205 H         1 UNK         0.0802 
     66 H66        17.7901   52.3418   16.8365 H         1 UNK         0.0831 
     67 H67        19.4587   51.8570   16.7009 H         1 UNK         0.0831 
     68 H68        19.5095   52.6454   14.3220 H         1 UNK         0.1266 
     69 H69        17.6945   52.8835   13.1632 H         1 UNK         0.2858 
     70 H70        14.6740   53.3280   13.2989 H         1 UNK         0.0493 
     71 H71        15.5461   56.2681   13.3139 H         1 UNK         0.0858 
     72 H72        14.2286   55.5676   14.2408 H         1 UNK         0.0858 
     73 H73        14.1169   55.6449   12.4918 H         1 UNK         0.0858 
     74 H74        15.6052   53.2266   11.2856 H         1 UNK         0.2998 
     75 H75        18.9097   55.2603   13.6959 H         1 UNK         0.2942 
     76 H76        20.7463   56.5741   15.5566 H         1 UNK         0.0588 
     77 H77        19.2245   58.5392   15.9535 H         1 UNK         0.0836 
     78 H78        18.6121   57.0735   16.6986 H         1 UNK         0.0836 
     79 H79        17.8997   57.6609   15.1985 H         1 UNK         0.0836 
     80 H80        18.6577   56.9578   12.6464 H         1 UNK         0.3003 
     81 H81        19.8888   59.4181   11.8835 H         1 UNK         0.0959 
     82 H82        18.0855   57.5268   10.2788 H         1 UNK         0.0808 
     83 H83        17.5420   58.8434   11.3158 H         1 UNK         0.0808 
     84 H84        18.4589   59.1915    9.8599 H         1 UNK         0.0808 
     85 H85        20.4465   56.0679   10.8333 H         1 UNK         0.3181 
     86 H86        22.3037   56.9113    8.6910 H         1 UNK         0.0819 
     87 H87        20.6288   55.0681    8.3188 H         1 UNK         0.0823 
     88 H88        21.4415   54.1059    9.5609 H         1 UNK         0.0823 
     89 H89        22.2831   54.5359    8.0837 H         1 UNK         0.0823 
     90 H90        22.6162   56.3805   12.0178 H         1 UNK         0.3159 
     91 H91        24.9859   54.7290   11.9545 H         1 UNK         0.0870 
     92 H92        26.4126   58.4634   11.9708 H         1 UNK         0.3462 
     93 H93        24.7911   58.0897   11.4390 H         1 UNK         0.3462 
     94 H94        24.8557   54.6729   14.3609 H         1 UNK         0.0763 
     95 H95        23.8495   56.0976   14.4197 H         1 UNK         0.0763 
     96 H96        23.8432   52.1673   14.1385 H         1 UNK         0.0881 
     97 H97        23.7897   52.6213   12.4477 H         1 UNK         0.0881 
@<TRIPOS>BOND
     1    1    2 1    
     2    1   52 1    
     3    1   53 1    
     4    1   54 1    
     5    2    3 2    
     6    2    4 am   BACKBONE|DICT|INTERRES
     7    4    5 1    
     8    4   55 1    
     9    5    6 1    
    10    5   25 1    
    11    5   56 1    
    12    6    7 1    
    13    6   57 1    
    14    6   58 1    
    15    7    8 1    
    16    8    9 1    
    17    8   59 1    
    18    8   60 1    
    19    9   10 ar   
    20    9   14 ar   
    21   10   11 ar   
    22   10   61 1    
    23   11   12 ar   
    24   11   51 1    
    25   12   13 ar   
    26   12   62 1    
    27   13   14 ar   
    28   13   15 1    
    29   14   63 1    
    30   15   16 1    
    31   15   64 1    
    32   15   65 1    
    33   16   17 1    
    34   17   18 1    
    35   17   66 1    
    36   17   67 1    
    37   18   19 1    
    38   18   27 1    
    39   18   68 1    
    40   19   20 am   BACKBONE|DICT|INTERRES
    41   19   69 1    
    42   20   21 2    
    43   20   22 1    
    44   22   23 1    
    45   22   24 1    
    46   22   70 1    
    47   23   71 1    
    48   23   72 1    
    49   23   73 1    
    50   24   25 am   BACKBONE|DICT|INTERRES
    51   24   74 1    
    52   25   26 2    
    53   27   28 2    
    54   27   29 am   BACKBONE|DICT|INTERRES
    55   29   30 1    
    56   29   75 1    
    57   30   31 1    
    58   30   32 1    
    59   30   76 1    
    60   31   77 1    
    61   31   78 1    
    62   31   79 1    
    63   32   33 2    
    64   32   34 am   BACKBONE|DICT|INTERRES
    65   34   35 1    
    66   34   80 1    
    67   35   36 1    
    68   35   37 1    
    69   35   81 1    
    70   36   82 1    
    71   36   83 1    
    72   36   84 1    
    73   37   38 2    
    74   37   39 am   BACKBONE|DICT|INTERRES
    75   39   40 1    
    76   39   85 1    
    77   40   41 1    
    78   40   42 1    
    79   40   86 1    
    80   41   87 1    
    81   41   88 1    
    82   41   89 1    
    83   42   43 2    
    84   42   44 am   BACKBONE|DICT|INTERRES
    85   44   45 1    
    86   44   90 1    
    87   45   46 1    
    88   45   49 1    
    89   45   91 1    
    90   46   47 am   BACKBONE|DICT|INTERRES
    91   46   48 2    
    92   47   92 1    
    93   47   93 1    
    94   49   50 1    
    95   49   94 1    
    96   49   95 1    
    97   50   51 1    
    98   51   96 1    
    99   51   97 1    
@<TRIPOS>SUBSTRUCTURE
     1 UNK         1 GROUP             0       ****    0 ROOT    
