@<TRIPOS>MOLECULE
3R0
97   99    1
SMALL
USER_CHARGES


@<TRIPOS>ATOM
      1 CA         20.8267   47.6329    8.0033 C.3       0 UNK        -0.2006 
      2 C          20.0469   47.9068    9.2810 C.2       0 UNK         0.4864 
      3 O          20.1415   47.1302   10.2320 O.2       0 UNK        -0.5092 
      4 N          19.2704   48.9967    9.3001 N.am      1 UNK        -0.4825 
      5 CA         18.4969   49.4710   10.4499 C.3       1 UNK         0.0812 
      6 C6         17.1525   50.1158   10.0082 C.3       8 UNK        -0.0932 
      7 S7         17.2941   51.4248    8.7332 S.3       8 UNK        -0.2545 
      8 C8         15.8256   52.4436    9.0751 C.3       8 UNK         0.0228 
      9 C9         15.9708   53.2869   10.3358 C.ar      8 UNK        -0.0842 
     10 C10        16.6008   54.5357   10.2843 C.ar      8 UNK        -0.0874 
     11 C11        16.6514   55.3504   11.4207 C.ar      8 UNK        -0.0867 
     12 C12        16.0900   54.8975   12.6181 C.ar      8 UNK        -0.1042 
     13 C13        15.4771   53.6440   12.6870 C.ar      8 UNK        -0.0824 
     14 C14        15.4148   52.8477   11.5412 C.ar      8 UNK        -0.1194 
     15 C15        14.8347   53.1662   13.9810 C.3       8 UNK         0.0180 
     16 S16        15.9618   52.1281   14.9635 S.3       8 UNK        -0.2273 
     17 C17        17.0565   53.3755   15.7233 C.3       8 UNK        -0.0981 
     18 CA         18.5508   53.1443   15.3929 C.3       3 UNK         0.0747 
     19 N          18.8059   53.1295   13.9453 N.am      3 UNK        -0.4794 
     20 C          19.9435   52.7082   13.3796 C.2       2 UNK         0.5067 
     21 O          20.9091   52.2836   14.0162 O.2       2 UNK        -0.4802 
     22 CA         19.9890   52.7699   11.8447 C.3       2 UNK         0.0370 
     23 CB         21.4310   52.8183   11.2977 C.3       2 UNK        -0.1774 
     24 N          19.2298   51.6923   11.2073 N.am      2 UNK        -0.4750 
     25 C          19.3924   50.3674   11.3335 C.2       1 UNK         0.5001 
     26 O          20.2191   49.8409   12.0793 O.2       1 UNK        -0.4889 
     27 C          19.4305   54.1558   16.1636 C.2       3 UNK         0.4972 
     28 O          19.5841   54.0104   17.3770 O.2       3 UNK        -0.4802 
     29 N          19.9896   55.1505   15.4637 N.am      4 UNK        -0.4926 
     30 CA         20.9346   56.1346   15.9826 C.3       4 UNK         0.0426 
     31 CB         20.1940   57.4593   16.2301 C.3       4 UNK        -0.1835 
     32 C          22.0577   56.3271   14.9573 C.2       4 UNK         0.5138 
     33 O          21.8472   56.0805   13.7678 O.2       4 UNK        -0.5194 
     34 N          23.2172   56.8163   15.4184 N.am      5 UNK        -0.4222 
     35 CA         24.3908   57.1071   14.5810 C.3       5 UNK         0.0221 
     36 CB         25.5660   57.5326   15.4757 C.3       5 UNK        -0.2034 
     37 C          24.1310   58.1659   13.4925 C.2       5 UNK         0.4987 
     38 O          24.7324   58.0965   12.4198 O.2       5 UNK        -0.5478 
     39 N          23.2018   59.0928   13.7674 N.am      6 UNK        -0.4365 
     40 CA         22.7092   60.1116   12.8361 C.3       6 UNK         0.0273 
     41 CB         21.7873   61.0785   13.5975 C.3       6 UNK        -0.1956 
     42 C          21.9842   59.5431   11.5997 C.2       6 UNK         0.4962 
     43 O          21.8605   60.2591   10.6047 O.2       6 UNK        -0.5385 
     44 N          21.5245   58.2864   11.6698 N.am      7 UNK        -0.4054 
     45 CA         20.9050   57.5601   10.5522 C.3       7 UNK         0.0701 
     46 C          21.9193   57.0803    9.4758 C.2       7 UNK         0.5602 
     47 N          23.2257   57.1295    9.7134 N.am      7 UNK        -0.7339 
     48 O          21.5099   56.6593    8.3976 O.2       7 UNK        -0.5126 
     49 C49        20.0368   56.3764   11.0506 C.3       8 UNK        -0.0906 
     50 S50        18.7987   56.8700   12.2969 S.3       8 UNK        -0.2590 
     51 C51        17.2489   56.7487   11.3544 C.3       8 UNK         0.0201 
     52 H52        20.5536   46.6586    7.5985 H         1 UNK         0.0901 
     53 H53        20.6331   48.3842    7.2377 H         1 UNK         0.0901 
     54 H54        21.8965   47.6283    8.2108 H         1 UNK         0.0901 
     55 H55        19.2379   49.6005    8.4900 H         1 UNK         0.3005 
     56 H56        18.2371   48.6124   11.0745 H         1 UNK         0.1258 
     57 H57        16.5052   49.3392    9.5979 H         1 UNK         0.0713 
     58 H58        16.6249   50.4934   10.8832 H         1 UNK         0.0713 
     59 H59        14.9465   51.8005    9.1424 H         1 UNK         0.0869 
     60 H60        15.6500   53.0986    8.2204 H         1 UNK         0.0869 
     61 H61        17.0185   54.8862    9.3501 H         1 UNK         0.1451 
     62 H62        16.1158   55.5356   13.4908 H         1 UNK         0.1348 
     63 H63        14.9105   51.8921   11.5860 H         1 UNK         0.1248 
     64 H64        14.4928   54.0123   14.5790 H         1 UNK         0.0802 
     65 H65        13.9410   52.5846   13.7500 H         1 UNK         0.0802 
     66 H66        16.8958   53.3268   16.8022 H         1 UNK         0.0831 
     67 H67        16.7500   54.3783   15.4240 H         1 UNK         0.0831 
     68 H68        18.8252   52.1578   15.7744 H         1 UNK         0.1266 
     69 H69        18.0445   53.4358   13.3544 H         1 UNK         0.2858 
     70 H70        19.4862   53.6901   11.5502 H         1 UNK         0.0493 
     71 H71        21.9976   53.6272   11.7612 H         1 UNK         0.0858 
     72 H72        21.4408   52.9897   10.2215 H         1 UNK         0.0858 
     73 H73        21.9733   51.8933   11.4957 H         1 UNK         0.0858 
     74 H74        18.5046   51.9947   10.5670 H         1 UNK         0.2998 
     75 H75        19.8683   55.1717   14.4583 H         1 UNK         0.2942 
     76 H76        21.3792   55.7820   16.9156 H         1 UNK         0.0588 
     77 H77        19.7614   57.8565   15.3105 H         1 UNK         0.0836 
     78 H78        20.8648   58.2191   16.6325 H         1 UNK         0.0836 
     79 H79        19.3852   57.3306   16.9493 H         1 UNK         0.0836 
     80 H80        23.3105   56.9949   16.4084 H         1 UNK         0.3003 
     81 H81        24.6658   56.1822   14.0692 H         1 UNK         0.0959 
     82 H82        26.4573   57.7329   14.8790 H         1 UNK         0.0808 
     83 H83        25.3399   58.4396   16.0376 H         1 UNK         0.0808 
     84 H84        25.8264   56.7503   16.1889 H         1 UNK         0.0808 
     85 H85        22.7722   59.0710   14.6805 H         1 UNK         0.3181 
     86 H86        23.5730   60.6723   12.4727 H         1 UNK         0.0819 
     87 H87        21.4277   61.8727   12.9415 H         1 UNK         0.0823 
     88 H88        22.3092   61.5587   14.4253 H         1 UNK         0.0823 
     89 H89        20.9112   60.5685   14.0004 H         1 UNK         0.0823 
     90 H90        21.6693   57.7411   12.5118 H         1 UNK         0.3159 
     91 H91        20.2401   58.2560   10.0387 H         1 UNK         0.0870 
     92 H92        23.5834   57.4757   10.5938 H         1 UNK         0.3462 
     93 H93        23.8658   56.8176    9.0012 H         1 UNK         0.3462 
     94 H94        20.6807   55.6253   11.5046 H         1 UNK         0.0763 
     95 H95        19.5362   55.8814   10.2164 H         1 UNK         0.0763 
     96 H96        16.5327   57.4567   11.7738 H         1 UNK         0.0881 
     97 H97        17.4115   57.0645   10.3228 H         1 UNK         0.0881 
@<TRIPOS>BOND
     1    1    2 1    
     2    1   52 1    
     3    1   53 1    
     4    1   54 1    
     5    2    3 2    
     6    2    4 am   BACKBONE|DICT|INTERRES
     7    4    5 1    
     8    4   55 1    
     9    5    6 1    
    10    5   25 1    
    11    5   56 1    
    12    6    7 1    
    13    6   57 1    
    14    6   58 1    
    15    7    8 1    
    16    8    9 1    
    17    8   59 1    
    18    8   60 1    
    19    9   10 ar   
    20    9   14 ar   
    21   10   11 ar   
    22   10   61 1    
    23   11   12 ar   
    24   11   51 1    
    25   12   13 ar   
    26   12   62 1    
    27   13   14 ar   
    28   13   15 1    
    29   14   63 1    
    30   15   16 1    
    31   15   64 1    
    32   15   65 1    
    33   16   17 1    
    34   17   18 1    
    35   17   66 1    
    36   17   67 1    
    37   18   19 1    
    38   18   27 1    
    39   18   68 1    
    40   19   20 am   BACKBONE|DICT|INTERRES
    41   19   69 1    
    42   20   21 2    
    43   20   22 1    
    44   22   23 1    
    45   22   24 1    
    46   22   70 1    
    47   23   71 1    
    48   23   72 1    
    49   23   73 1    
    50   24   25 am   BACKBONE|DICT|INTERRES
    51   24   74 1    
    52   25   26 2    
    53   27   28 2    
    54   27   29 am   BACKBONE|DICT|INTERRES
    55   29   30 1    
    56   29   75 1    
    57   30   31 1    
    58   30   32 1    
    59   30   76 1    
    60   31   77 1    
    61   31   78 1    
    62   31   79 1    
    63   32   33 2    
    64   32   34 am   BACKBONE|DICT|INTERRES
    65   34   35 1    
    66   34   80 1    
    67   35   36 1    
    68   35   37 1    
    69   35   81 1    
    70   36   82 1    
    71   36   83 1    
    72   36   84 1    
    73   37   38 2    
    74   37   39 am   BACKBONE|DICT|INTERRES
    75   39   40 1    
    76   39   85 1    
    77   40   41 1    
    78   40   42 1    
    79   40   86 1    
    80   41   87 1    
    81   41   88 1    
    82   41   89 1    
    83   42   43 2    
    84   42   44 am   BACKBONE|DICT|INTERRES
    85   44   45 1    
    86   44   90 1    
    87   45   46 1    
    88   45   49 1    
    89   45   91 1    
    90   46   47 am   BACKBONE|DICT|INTERRES
    91   46   48 2    
    92   47   92 1    
    93   47   93 1    
    94   49   50 1    
    95   49   94 1    
    96   49   95 1    
    97   50   51 1    
    98   51   96 1    
    99   51   97 1    
@<TRIPOS>SUBSTRUCTURE
     1 UNK         1 GROUP             0       ****    0 ROOT    
