@<TRIPOS>MOLECULE
3R0
97   99    1
SMALL
USER_CHARGES


@<TRIPOS>ATOM
      1 CA         14.9329   51.3402    6.5470 C.3       0 UNK        -0.2006 
      2 C          15.8150   52.3213    7.3049 C.2       0 UNK         0.4864 
      3 O          15.8559   53.5022    6.9577 O.2       0 UNK        -0.5092 
      4 N          16.5276   51.8398    8.3305 N.am      1 UNK        -0.4825 
      5 CA         17.3901   52.6466    9.1995 C.3       1 UNK         0.0812 
      6 C6         18.3117   51.7608   10.0673 C.3       8 UNK        -0.0932 
      7 S7         19.5608   50.8510    9.1023 S.3       8 UNK        -0.2545 
      8 C8         20.0759   49.5770   10.3027 C.3       8 UNK         0.0228 
      9 C9         20.4601   50.1834   11.6459 C.ar      8 UNK        -0.0842 
     10 C10        21.7121   50.7756   11.8265 C.ar      8 UNK        -0.0874 
     11 C11        22.0419   51.3820   13.0437 C.ar      8 UNK        -0.0867 
     12 C12        21.1119   51.3803   14.0896 C.ar      8 UNK        -0.1042 
     13 C13        19.8569   50.7862   13.9190 C.ar      8 UNK        -0.0824 
     14 C14        19.5452   50.1779   12.7012 C.ar      8 UNK        -0.1194 
     15 C15        18.8235   50.7916   15.0357 C.3       8 UNK         0.0180 
     16 S16        17.4481   51.9307   14.6656 S.3       8 UNK        -0.2273 
     17 C17        18.0829   53.5187   15.2977 C.3       8 UNK        -0.0981 
     18 CA         18.8700   54.3395   14.2368 C.3       3 UNK         0.0747 
     19 N          18.1240   54.5975   12.9953 N.am      3 UNK        -0.4794 
     20 C          17.0464   55.3846   12.8526 C.2       2 UNK         0.5067 
     21 O          16.4361   55.8970   13.7910 O.2       2 UNK        -0.4802 
     22 CA         16.5910   55.6890   11.4129 C.3       2 UNK         0.0370 
     23 CB         17.0393   57.1047   11.0143 C.3       2 UNK        -0.1774 
     24 N          17.1281   54.7380   10.4363 N.am      2 UNK        -0.4750 
     25 C          16.5631   53.5669   10.1202 C.2       1 UNK         0.5001 
     26 O          15.4783   53.1832   10.5654 O.2       1 UNK        -0.4889 
     27 C          19.4689   55.6579   14.7834 C.2       3 UNK         0.4972 
     28 O          19.8674   56.5023   13.9780 O.2       3 UNK        -0.4802 
     29 N          19.5524   55.8160   16.1154 N.am      4 UNK        -0.4926 
     30 CA         19.9199   57.0431   16.8451 C.3       4 UNK         0.0426 
     31 CB         18.7620   58.0597   16.7565 C.3       4 UNK        -0.1835 
     32 C          21.2719   57.6674   16.4328 C.2       4 UNK         0.5138 
     33 O          21.4097   58.8912   16.4413 O.2       4 UNK        -0.5194 
     34 N          22.2235   56.8114   16.0314 N.am      5 UNK        -0.4222 
     35 CA         23.5418   57.1210   15.4548 C.3       5 UNK         0.0221 
     36 CB         24.4107   57.9374   16.4352 C.3       5 UNK        -0.2034 
     37 C          23.5072   57.7605   14.0482 C.2       5 UNK         0.4987 
     38 O          24.5747   57.9736   13.4712 O.2       5 UNK        -0.5478 
     39 N          22.3137   58.0223   13.4960 N.am      6 UNK        -0.4365 
     40 CA         22.1053   58.3971   12.0959 C.3       6 UNK         0.0273 
     41 CB         20.7770   59.1586   11.9493 C.3       6 UNK        -0.1956 
     42 C          22.1299   57.1488   11.2003 C.2       6 UNK         0.4962 
     43 O          22.7516   57.1815   10.1374 O.2       6 UNK        -0.5385 
     44 N          21.4978   56.0681   11.6813 N.am      7 UNK        -0.4054 
     45 CA         21.5263   54.7120   11.1151 C.3       7 UNK         0.0701 
     46 C          20.9078   54.6596    9.6917 C.2       7 UNK         0.5602 
     47 N          21.5669   54.0750    8.7014 N.am      7 UNK        -0.7339 
     48 O          19.7760   55.1004    9.5026 O.2       7 UNK        -0.5126 
     49 C49        22.9206   54.0406   11.2786 C.3       8 UNK        -0.0906 
     50 S50        23.3506   53.8409   13.0446 S.3       8 UNK        -0.2590 
     51 C51        23.4080   52.0284   13.2311 C.3       8 UNK         0.0201 
     52 H52        15.2250   51.3061    5.4978 H         1 UNK         0.0901 
     53 H53        13.8909   51.6542    6.6010 H         1 UNK         0.0901 
     54 H54        15.0043   50.3308    6.9517 H         1 UNK         0.0901 
     55 H55        16.4504   50.8639    8.5780 H         1 UNK         0.3005 
     56 H56        18.0110   53.2772    8.5582 H         1 UNK         0.1258 
     57 H57        17.7157   51.0506   10.6438 H         1 UNK         0.0713 
     58 H58        18.8557   52.3668   10.7946 H         1 UNK         0.0713 
     59 H59        20.9199   49.0203    9.8931 H         1 UNK         0.0869 
     60 H60        19.2672   48.8550   10.4267 H         1 UNK         0.0869 
     61 H61        22.4219   50.7743   11.0107 H         1 UNK         0.1451 
     62 H62        21.3642   51.8487   15.0312 H         1 UNK         0.1348 
     63 H63        18.5725   49.7241   12.5678 H         1 UNK         0.1248 
     64 H64        18.4190   49.7845   15.1467 H         1 UNK         0.0802 
     65 H65        19.2784   51.0396   15.9956 H         1 UNK         0.0802 
     66 H66        18.7019   53.3050   16.1700 H         1 UNK         0.0831 
     67 H67        17.2299   54.0919   15.6653 H         1 UNK         0.0831 
     68 H68        19.7346   53.7460   13.9419 H         1 UNK         0.1266 
     69 H69        18.5307   54.2253   12.1524 H         1 UNK         0.2858 
     70 H70        15.4997   55.6571   11.3924 H         1 UNK         0.0493 
     71 H71        18.1264   57.1966   11.0105 H         1 UNK         0.0858 
     72 H72        16.6771   57.3710   10.0214 H         1 UNK         0.0858 
     73 H73        16.6518   57.8498   11.7106 H         1 UNK         0.0858 
     74 H74        18.0343   54.9700   10.0294 H         1 UNK         0.2998 
     75 H75        19.2394   55.0534   16.7001 H         1 UNK         0.2942 
     76 H76        20.0295   56.7572   17.8921 H         1 UNK         0.0588 
     77 H77        18.9468   58.9265   17.3922 H         1 UNK         0.0836 
     78 H78        17.8200   57.6187   17.0822 H         1 UNK         0.0836 
     79 H79        18.6249   58.4250   15.7379 H         1 UNK         0.0836 
     80 H80        21.9866   55.8293   16.0567 H         1 UNK         0.3003 
     81 H81        24.0306   56.1548   15.3184 H         1 UNK         0.0959 
     82 H82        24.0337   58.9516   16.5684 H         1 UNK         0.0808 
     83 H83        24.4569   57.4633   17.4155 H         1 UNK         0.0808 
     84 H84        25.4348   58.0222   16.0695 H         1 UNK         0.0808 
     85 H85        21.4811   57.7921   14.0259 H         1 UNK         0.3181 
     86 H86        22.9138   59.0596   11.7790 H         1 UNK         0.0819 
     87 H87        19.9215   58.5565   12.2562 H         1 UNK         0.0823 
     88 H88        20.7760   60.0685   12.5496 H         1 UNK         0.0823 
     89 H89        20.6115   59.4541   10.9124 H         1 UNK         0.0823 
     90 H90        20.9601   56.1806   12.5356 H         1 UNK         0.3159 
     91 H91        20.8299   54.1258   11.7136 H         1 UNK         0.0870 
     92 H92        22.4926   53.7035    8.8370 H         1 UNK         0.3462 
     93 H93        21.1376   54.0284    7.7914 H         1 UNK         0.3462 
     94 H94        22.9469   53.0656   10.7937 H         1 UNK         0.0763 
     95 H95        23.6970   54.6366   10.7963 H         1 UNK         0.0763 
     96 H96        24.1318   51.6144   12.5272 H         1 UNK         0.0881 
     97 H97        23.7877   51.7900   14.2257 H         1 UNK         0.0881 
@<TRIPOS>BOND
     1    1    2 1    
     2    1   52 1    
     3    1   53 1    
     4    1   54 1    
     5    2    3 2    
     6    2    4 am   BACKBONE|DICT|INTERRES
     7    4    5 1    
     8    4   55 1    
     9    5    6 1    
    10    5   25 1    
    11    5   56 1    
    12    6    7 1    
    13    6   57 1    
    14    6   58 1    
    15    7    8 1    
    16    8    9 1    
    17    8   59 1    
    18    8   60 1    
    19    9   10 ar   
    20    9   14 ar   
    21   10   11 ar   
    22   10   61 1    
    23   11   12 ar   
    24   11   51 1    
    25   12   13 ar   
    26   12   62 1    
    27   13   14 ar   
    28   13   15 1    
    29   14   63 1    
    30   15   16 1    
    31   15   64 1    
    32   15   65 1    
    33   16   17 1    
    34   17   18 1    
    35   17   66 1    
    36   17   67 1    
    37   18   19 1    
    38   18   27 1    
    39   18   68 1    
    40   19   20 am   BACKBONE|DICT|INTERRES
    41   19   69 1    
    42   20   21 2    
    43   20   22 1    
    44   22   23 1    
    45   22   24 1    
    46   22   70 1    
    47   23   71 1    
    48   23   72 1    
    49   23   73 1    
    50   24   25 am   BACKBONE|DICT|INTERRES
    51   24   74 1    
    52   25   26 2    
    53   27   28 2    
    54   27   29 am   BACKBONE|DICT|INTERRES
    55   29   30 1    
    56   29   75 1    
    57   30   31 1    
    58   30   32 1    
    59   30   76 1    
    60   31   77 1    
    61   31   78 1    
    62   31   79 1    
    63   32   33 2    
    64   32   34 am   BACKBONE|DICT|INTERRES
    65   34   35 1    
    66   34   80 1    
    67   35   36 1    
    68   35   37 1    
    69   35   81 1    
    70   36   82 1    
    71   36   83 1    
    72   36   84 1    
    73   37   38 2    
    74   37   39 am   BACKBONE|DICT|INTERRES
    75   39   40 1    
    76   39   85 1    
    77   40   41 1    
    78   40   42 1    
    79   40   86 1    
    80   41   87 1    
    81   41   88 1    
    82   41   89 1    
    83   42   43 2    
    84   42   44 am   BACKBONE|DICT|INTERRES
    85   44   45 1    
    86   44   90 1    
    87   45   46 1    
    88   45   49 1    
    89   45   91 1    
    90   46   47 am   BACKBONE|DICT|INTERRES
    91   46   48 2    
    92   47   92 1    
    93   47   93 1    
    94   49   50 1    
    95   49   94 1    
    96   49   95 1    
    97   50   51 1    
    98   51   96 1    
    99   51   97 1    
@<TRIPOS>SUBSTRUCTURE
     1 UNK         1 GROUP             0       ****    0 ROOT    
