@<TRIPOS>MOLECULE
3R0
97   99    1
SMALL
USER_CHARGES


@<TRIPOS>ATOM
      1 CA         20.2674   53.3498   12.9294 C.3       0 UNK        -0.2006 
      2 C          19.3993   52.2127   13.4378 C.2       0 UNK         0.4864 
      3 O          19.4904   51.8531   14.6119 O.2       0 UNK        -0.5092 
      4 N          18.5384   51.6544   12.5771 N.am      1 UNK        -0.4825 
      5 CA         17.6371   50.5335   12.8825 C.3       1 UNK         0.0812 
      6 C6         17.2342   49.7437   11.6098 C.3       8 UNK        -0.0932 
      7 S7         18.6741   49.1761   10.6409 S.3       8 UNK        -0.2545 
      8 C8         18.4305   50.0517    9.0611 C.3       8 UNK         0.0228 
      9 C9         18.6908   51.5489    9.1722 C.ar      8 UNK        -0.0842 
     10 C10        19.9864   52.0512    9.0214 C.ar      8 UNK        -0.0874 
     11 C11        20.2242   53.4292    9.0554 C.ar      8 UNK        -0.0867 
     12 C12        19.1578   54.3079    9.2782 C.ar      8 UNK        -0.1042 
     13 C13        17.8569   53.8166    9.4350 C.ar      8 UNK        -0.0824 
     14 C14        17.6312   52.4385    9.3704 C.ar      8 UNK        -0.1194 
     15 C15        16.6785   54.7683    9.5993 C.3       8 UNK         0.0180 
     16 S16        15.8042   54.5338   11.1800 S.3       8 UNK        -0.2273 
     17 C17        16.8414   55.5157   12.3074 C.3       8 UNK        -0.0981 
     18 CA         16.3052   55.4962   13.7619 C.3       3 UNK         0.0747 
     19 N          16.2972   54.1366   14.3105 N.am      3 UNK        -0.4794 
     20 C          15.5669   53.7146   15.3512 C.2       2 UNK         0.5067 
     21 O          14.7884   54.4387   15.9714 O.2       2 UNK        -0.4802 
     22 CA         15.7679   52.2509   15.8003 C.3       2 UNK         0.0370 
     23 CB         14.4301   51.5271   16.0588 C.3       2 UNK        -0.1774 
     24 N          16.6545   51.4839   14.9101 N.am      2 UNK        -0.4750 
     25 C          16.4084   51.0440   13.6663 C.2       1 UNK         0.5001 
     26 O          15.3059   51.1044   13.1211 O.2       1 UNK        -0.4889 
     27 C          17.1290   56.4672   14.6310 C.2       3 UNK         0.4972 
     28 O          16.9288   57.6771   14.5296 O.2       3 UNK        -0.4802 
     29 N          18.0695   55.9252   15.4249 N.am      4 UNK        -0.4926 
     30 CA         19.0747   56.6340   16.2345 C.3       4 UNK         0.0426 
     31 CB         18.4062   57.4758   17.3417 C.3       4 UNK        -0.1835 
     32 C          20.0850   57.4504   15.3964 C.2       4 UNK         0.5138 
     33 O          20.7349   58.3545   15.9249 O.2       4 UNK        -0.5194 
     34 N          20.2025   57.1098   14.1070 N.am      5 UNK        -0.4222 
     35 CA         21.1468   57.6867   13.1550 C.3       5 UNK         0.0221 
     36 CB         20.6412   57.3970   11.7302 C.3       5 UNK        -0.2034 
     37 C          22.5522   57.0986   13.3506 C.2       5 UNK         0.4987 
     38 O          22.6837   55.9540   13.7911 O.2       5 UNK        -0.5478 
     39 N          23.5752   57.8764   12.9741 N.am      6 UNK        -0.4365 
     40 CA         24.9750   57.4375   12.9588 C.3       6 UNK         0.0273 
     41 CB         25.8958   58.6690   12.9346 C.3       6 UNK        -0.1956 
     42 C          25.2964   56.5013   11.7784 C.2       6 UNK         0.4962 
     43 O          26.2195   55.6934   11.8913 O.2       6 UNK        -0.5385 
     44 N          24.5420   56.6385   10.6775 N.am      7 UNK        -0.4054 
     45 CA         24.6440   55.8542    9.4327 C.3       7 UNK         0.0701 
     46 C          25.9682   56.0565    8.6354 C.2       7 UNK         0.5602 
     47 N          26.7399   57.1060    8.8897 N.am      7 UNK        -0.7339 
     48 O          26.2873   55.2747    7.7429 O.2       7 UNK        -0.5126 
     49 C49        24.2772   54.3534    9.6259 C.3       8 UNK        -0.0906 
     50 S50        22.6032   54.1062   10.3128 S.3       8 UNK        -0.2590 
     51 C51        21.6248   53.9616    8.7875 C.3       8 UNK         0.0201 
     52 H52        20.2464   54.1858   13.6264 H         1 UNK         0.0901 
     53 H53        19.9395   53.7076   11.9551 H         1 UNK         0.0901 
     54 H54        21.3007   53.0162   12.8395 H         1 UNK         0.0901 
     55 H55        18.5095   51.9772   11.6176 H         1 UNK         0.3005 
     56 H56        18.1660   49.8358   13.5365 H         1 UNK         0.1258 
     57 H57        16.5775   50.3365   10.9729 H         1 UNK         0.0713 
     58 H58        16.6557   48.8609   11.8880 H         1 UNK         0.0713 
     59 H59        17.4208   49.8646    8.6917 H         1 UNK         0.0869 
     60 H60        19.1026   49.6205    8.3177 H         1 UNK         0.0869 
     61 H61        20.8079   51.3689    8.8486 H         1 UNK         0.1451 
     62 H62        19.3382   55.3742    9.2986 H         1 UNK         0.1348 
     63 H63        16.6206   52.0641    9.4599 H         1 UNK         0.1248 
     64 H64        16.9935   55.8085    9.5046 H         1 UNK         0.0802 
     65 H65        15.9741   54.5906    8.7855 H         1 UNK         0.0802 
     66 H66        16.8727   56.5378   11.9234 H         1 UNK         0.0831 
     67 H67        17.8634   55.1366   12.2599 H         1 UNK         0.0831 
     68 H68        15.2786   55.8711   13.7579 H         1 UNK         0.1266 
     69 H69        16.8686   53.4567   13.8328 H         1 UNK         0.2858 
     70 H70        16.2942   52.3052   16.7542 H         1 UNK         0.0493 
     71 H71        13.7844   51.5324   15.1806 H         1 UNK         0.0858 
     72 H72        13.8763   52.0122   16.8634 H         1 UNK         0.0858 
     73 H73        14.5881   50.4906   16.3558 H         1 UNK         0.0858 
     74 H74        17.6256   51.4404   15.2091 H         1 UNK         0.2998 
     75 H75        18.1298   54.9165   15.4437 H         1 UNK         0.2942 
     76 H76        19.6612   55.8568   16.7267 H         1 UNK         0.0588 
     77 H77        17.7000   56.8815   17.9212 H         1 UNK         0.0836 
     78 H78        17.8697   58.3328   16.9340 H         1 UNK         0.0836 
     79 H79        19.1491   57.8639   18.0396 H         1 UNK         0.0836 
     80 H80        19.6528   56.3320   13.7813 H         1 UNK         0.3003 
     81 H81        21.1838   58.7676   13.3100 H         1 UNK         0.0959 
     82 H82        20.6166   56.3265   11.5198 H         1 UNK         0.0808 
     83 H83        19.6364   57.7916   11.5766 H         1 UNK         0.0808 
     84 H84        21.2855   57.8593   10.9817 H         1 UNK         0.0808 
     85 H85        23.3860   58.8130   12.6446 H         1 UNK         0.3181 
     86 H86        25.1742   56.8835   13.8791 H         1 UNK         0.0819 
     87 H87        25.7350   59.3015   13.8079 H         1 UNK         0.0823 
     88 H88        26.9453   58.3706   12.9434 H         1 UNK         0.0823 
     89 H89        25.7383   59.2788   12.0441 H         1 UNK         0.0823 
     90 H90        23.8212   57.3432   10.6854 H         1 UNK         0.3159 
     91 H91        23.8882   56.2769    8.7708 H         1 UNK         0.0870 
     92 H92        27.5873   57.2336    8.3590 H         1 UNK         0.3462 
     93 H93        26.4925   57.7628    9.6114 H         1 UNK         0.3462 
     94 H94        24.9928   53.8722   10.2942 H         1 UNK         0.0763 
     95 H95        24.3472   53.8096    8.6824 H         1 UNK         0.0763 
     96 H96        22.1339   53.2996    8.0853 H         1 UNK         0.0881 
     97 H97        21.5713   54.9368    8.3012 H         1 UNK         0.0881 
@<TRIPOS>BOND
     1    1    2 1    
     2    1   52 1    
     3    1   53 1    
     4    1   54 1    
     5    2    3 2    
     6    2    4 am   BACKBONE|DICT|INTERRES
     7    4    5 1    
     8    4   55 1    
     9    5    6 1    
    10    5   25 1    
    11    5   56 1    
    12    6    7 1    
    13    6   57 1    
    14    6   58 1    
    15    7    8 1    
    16    8    9 1    
    17    8   59 1    
    18    8   60 1    
    19    9   10 ar   
    20    9   14 ar   
    21   10   11 ar   
    22   10   61 1    
    23   11   12 ar   
    24   11   51 1    
    25   12   13 ar   
    26   12   62 1    
    27   13   14 ar   
    28   13   15 1    
    29   14   63 1    
    30   15   16 1    
    31   15   64 1    
    32   15   65 1    
    33   16   17 1    
    34   17   18 1    
    35   17   66 1    
    36   17   67 1    
    37   18   19 1    
    38   18   27 1    
    39   18   68 1    
    40   19   20 am   BACKBONE|DICT|INTERRES
    41   19   69 1    
    42   20   21 2    
    43   20   22 1    
    44   22   23 1    
    45   22   24 1    
    46   22   70 1    
    47   23   71 1    
    48   23   72 1    
    49   23   73 1    
    50   24   25 am   BACKBONE|DICT|INTERRES
    51   24   74 1    
    52   25   26 2    
    53   27   28 2    
    54   27   29 am   BACKBONE|DICT|INTERRES
    55   29   30 1    
    56   29   75 1    
    57   30   31 1    
    58   30   32 1    
    59   30   76 1    
    60   31   77 1    
    61   31   78 1    
    62   31   79 1    
    63   32   33 2    
    64   32   34 am   BACKBONE|DICT|INTERRES
    65   34   35 1    
    66   34   80 1    
    67   35   36 1    
    68   35   37 1    
    69   35   81 1    
    70   36   82 1    
    71   36   83 1    
    72   36   84 1    
    73   37   38 2    
    74   37   39 am   BACKBONE|DICT|INTERRES
    75   39   40 1    
    76   39   85 1    
    77   40   41 1    
    78   40   42 1    
    79   40   86 1    
    80   41   87 1    
    81   41   88 1    
    82   41   89 1    
    83   42   43 2    
    84   42   44 am   BACKBONE|DICT|INTERRES
    85   44   45 1    
    86   44   90 1    
    87   45   46 1    
    88   45   49 1    
    89   45   91 1    
    90   46   47 am   BACKBONE|DICT|INTERRES
    91   46   48 2    
    92   47   92 1    
    93   47   93 1    
    94   49   50 1    
    95   49   94 1    
    96   49   95 1    
    97   50   51 1    
    98   51   96 1    
    99   51   97 1    
@<TRIPOS>SUBSTRUCTURE
     1 UNK         1 GROUP             0       ****    0 ROOT    
