@<TRIPOS>MOLECULE
3R0
97   99    1
SMALL
USER_CHARGES


@<TRIPOS>ATOM
      1 CA         17.7176   53.6144    6.0658 C.3       0 UNK        -0.2006 
      2 C          17.1801   52.9855    7.3423 C.2       0 UNK         0.4864 
      3 O          15.9980   52.6476    7.4054 O.2       0 UNK        -0.5092 
      4 N          18.0436   52.8387    8.3557 N.am      1 UNK        -0.4825 
      5 CA         17.7591   52.2835    9.6865 C.3       1 UNK         0.0812 
      6 C6         17.3981   50.7758    9.6793 C.3       8 UNK        -0.0932 
      7 S7         18.8338   49.7809    9.1604 S.3       8 UNK        -0.2545 
      8 C8         19.2955   48.9595   10.7200 C.3       8 UNK         0.0228 
      9 C9         19.8140   49.9168   11.7905 C.ar      8 UNK        -0.0842 
     10 C10        21.0598   50.5357   11.6414 C.ar      8 UNK        -0.0874 
     11 C11        21.6004   51.3023   12.6794 C.ar      8 UNK        -0.0867 
     12 C12        20.8827   51.4503   13.8696 C.ar      8 UNK        -0.1042 
     13 C13        19.6196   50.8678   14.0236 C.ar      8 UNK        -0.0824 
     14 C14        19.0913   50.1071   12.9742 C.ar      8 UNK        -0.1194 
     15 C15        18.8563   50.9625   15.3459 C.3       8 UNK         0.0180 
     16 S16        18.9764   52.5818   16.1859 S.3       8 UNK        -0.2273 
     17 C17        17.9286   53.6311   15.1267 C.3       8 UNK        -0.0981 
     18 CA         18.7625   54.4937   14.1396 C.3       3 UNK         0.0747 
     19 N          18.0497   54.7442   12.8883 N.am      3 UNK        -0.4794 
     20 C          16.9080   55.4262   12.7185 C.2       2 UNK         0.5067 
     21 O          16.2876   55.9767   13.6275 O.2       2 UNK        -0.4802 
     22 CA         16.3594   55.4884   11.2767 C.3       2 UNK         0.0370 
     23 CB         16.5825   56.8881   10.6826 C.3       2 UNK        -0.1774 
     24 N          16.9706   54.4876   10.3919 N.am      2 UNK        -0.4750 
     25 C          16.7760   53.1621   10.4868 C.2       1 UNK         0.5001 
     26 O          15.9203   52.6512   11.2109 O.2       1 UNK        -0.4889 
     27 C          19.3491   55.7989   14.7193 C.2       3 UNK         0.4972 
     28 O          19.7664   56.6599   13.9393 O.2       3 UNK        -0.4802 
     29 N          19.4295   55.9057   16.0553 N.am      4 UNK        -0.4926 
     30 CA         19.8943   57.0672   16.8324 C.3       4 UNK         0.0426 
     31 CB         18.8645   58.2120   16.7312 C.3       4 UNK        -0.1835 
     32 C          21.3233   57.5335   16.4774 C.2       4 UNK         0.5138 
     33 O          21.6125   58.7289   16.5398 O.2       4 UNK        -0.5194 
     34 N          22.1693   56.5789   16.0604 N.am      5 UNK        -0.4222 
     35 CA         23.5280   56.7342   15.5180 C.3       5 UNK         0.0221 
     36 CB         24.4740   57.3848   16.5497 C.3       5 UNK        -0.2034 
     37 C          23.6068   57.4373   14.1441 C.2       5 UNK         0.4987 
     38 O          24.7076   57.5507   13.6023 O.2       5 UNK        -0.5478 
     39 N          22.4684   57.8704   13.5841 N.am      6 UNK        -0.4365 
     40 CA         22.3549   58.4000   12.2247 C.3       6 UNK         0.0273 
     41 CB         21.1571   59.3612   12.1390 C.3       6 UNK        -0.1956 
     42 C          22.2151   57.2542   11.2125 C.2       6 UNK         0.4962 
     43 O          22.8876   57.2732   10.1810 O.2       6 UNK        -0.5385 
     44 N          21.3630   56.2738   11.5470 N.am      7 UNK        -0.4054 
     45 CA         21.1571   55.0064   10.8216 C.3       7 UNK         0.0701 
     46 C          20.5322   55.1496    9.4037 C.2       7 UNK         0.5602 
     47 N          19.9373   56.2819    9.0536 N.am      7 UNK        -0.7339 
     48 O          20.5228   54.1977    8.6282 O.2       7 UNK        -0.5126 
     49 C49        22.4116   54.0883   10.8416 C.3       8 UNK        -0.0906 
     50 S50        22.9724   53.7269   12.5420 S.3       8 UNK        -0.2590 
     51 C51        22.9939   51.9052   12.5564 C.3       8 UNK         0.0201 
     52 H52        17.6062   52.9226    5.2313 H         1 UNK         0.0901 
     53 H53        17.1636   54.5233    5.8326 H         1 UNK         0.0901 
     54 H54        18.7731   53.8732    6.1532 H         1 UNK         0.0901 
     55 H55        18.9990   53.1707    8.2365 H         1 UNK         0.3005 
     56 H56        18.6951   52.3702   10.2417 H         1 UNK         0.1258 
     57 H57        16.5599   50.5727    9.0118 H         1 UNK         0.0713 
     58 H58        17.0836   50.4380   10.6682 H         1 UNK         0.0713 
     59 H59        20.0712   48.2231   10.5051 H         1 UNK         0.0869 
     60 H60        18.4409   48.3899   11.0886 H         1 UNK         0.0869 
     61 H61        21.6244   50.3828   10.7315 H         1 UNK         0.1451 
     62 H62        21.3227   52.0093   14.6841 H         1 UNK         0.1348 
     63 H63        18.1345   49.6184   13.0993 H         1 UNK         0.1248 
     64 H64        17.8028   50.7178   15.2015 H         1 UNK         0.0802 
     65 H65        19.2540   50.2012   16.0180 H         1 UNK         0.0802 
     66 H66        17.2564   52.9749   14.5710 H         1 UNK         0.0831 
     67 H67        17.2734   54.2466   15.7461 H         1 UNK         0.0831 
     68 H68        19.6346   53.9119   13.8403 H         1 UNK         0.1266 
     69 H69        18.4598   54.3379   12.0643 H         1 UNK         0.2858 
     70 H70        15.2850   55.2988   11.3204 H         1 UNK         0.0493 
     71 H71        17.6405   57.1483   10.6440 H         1 UNK         0.0858 
     72 H72        16.1786   56.9627    9.6729 H         1 UNK         0.0858 
     73 H73        16.0850   57.6494   11.2852 H         1 UNK         0.0858 
     74 H74        17.6492   54.8258    9.7240 H         1 UNK         0.2998 
     75 H75        19.1111   55.1156   16.6026 H         1 UNK         0.2942 
     76 H76        19.9320   56.7457   17.8741 H         1 UNK         0.0588 
     77 H77        19.1207   59.0333   17.4016 H         1 UNK         0.0836 
     78 H78        17.8657   57.8732   17.0060 H         1 UNK         0.0836 
     79 H79        18.8131   58.6202   15.7211 H         1 UNK         0.0836 
     80 H80        21.8089   55.6348   16.0477 H         1 UNK         0.3003 
     81 H81        23.8881   55.7190   15.3425 H         1 UNK         0.0959 
     82 H82        24.2271   58.4318   16.7267 H         1 UNK         0.0808 
     83 H83        24.4382   56.8636   17.5063 H         1 UNK         0.0808 
     84 H84        25.5081   57.3534   16.2042 H         1 UNK         0.0808 
     85 H85        21.6002   57.7202   14.0837 H         1 UNK         0.3181 
     86 H86        23.2588   58.9623   11.9799 H         1 UNK         0.0819 
     87 H87        20.2140   58.8671   12.3756 H         1 UNK         0.0823 
     88 H88        21.2748   60.1987   12.8269 H         1 UNK         0.0823 
     89 H89        21.0643   59.7783   11.1353 H         1 UNK         0.0823 
     90 H90        20.8254   56.3863   12.4014 H         1 UNK         0.3159 
     91 H91        20.3888   54.4793   11.3830 H         1 UNK         0.0870 
     92 H92        19.9643   57.0826    9.6630 H         1 UNK         0.3462 
     93 H93        19.5461   56.3670    8.1293 H         1 UNK         0.3462 
     94 H94        22.2031   53.1455   10.3327 H         1 UNK         0.0763 
     95 H95        23.2355   54.5488   10.2943 H         1 UNK         0.0763 
     96 H96        23.5066   51.5388   11.6655 H         1 UNK         0.0881 
     97 H97        23.5944   51.5728   13.4045 H         1 UNK         0.0881 
@<TRIPOS>BOND
     1    1    2 1    
     2    1   52 1    
     3    1   53 1    
     4    1   54 1    
     5    2    3 2    
     6    2    4 am   BACKBONE|DICT|INTERRES
     7    4    5 1    
     8    4   55 1    
     9    5    6 1    
    10    5   25 1    
    11    5   56 1    
    12    6    7 1    
    13    6   57 1    
    14    6   58 1    
    15    7    8 1    
    16    8    9 1    
    17    8   59 1    
    18    8   60 1    
    19    9   10 ar   
    20    9   14 ar   
    21   10   11 ar   
    22   10   61 1    
    23   11   12 ar   
    24   11   51 1    
    25   12   13 ar   
    26   12   62 1    
    27   13   14 ar   
    28   13   15 1    
    29   14   63 1    
    30   15   16 1    
    31   15   64 1    
    32   15   65 1    
    33   16   17 1    
    34   17   18 1    
    35   17   66 1    
    36   17   67 1    
    37   18   19 1    
    38   18   27 1    
    39   18   68 1    
    40   19   20 am   BACKBONE|DICT|INTERRES
    41   19   69 1    
    42   20   21 2    
    43   20   22 1    
    44   22   23 1    
    45   22   24 1    
    46   22   70 1    
    47   23   71 1    
    48   23   72 1    
    49   23   73 1    
    50   24   25 am   BACKBONE|DICT|INTERRES
    51   24   74 1    
    52   25   26 2    
    53   27   28 2    
    54   27   29 am   BACKBONE|DICT|INTERRES
    55   29   30 1    
    56   29   75 1    
    57   30   31 1    
    58   30   32 1    
    59   30   76 1    
    60   31   77 1    
    61   31   78 1    
    62   31   79 1    
    63   32   33 2    
    64   32   34 am   BACKBONE|DICT|INTERRES
    65   34   35 1    
    66   34   80 1    
    67   35   36 1    
    68   35   37 1    
    69   35   81 1    
    70   36   82 1    
    71   36   83 1    
    72   36   84 1    
    73   37   38 2    
    74   37   39 am   BACKBONE|DICT|INTERRES
    75   39   40 1    
    76   39   85 1    
    77   40   41 1    
    78   40   42 1    
    79   40   86 1    
    80   41   87 1    
    81   41   88 1    
    82   41   89 1    
    83   42   43 2    
    84   42   44 am   BACKBONE|DICT|INTERRES
    85   44   45 1    
    86   44   90 1    
    87   45   46 1    
    88   45   49 1    
    89   45   91 1    
    90   46   47 am   BACKBONE|DICT|INTERRES
    91   46   48 2    
    92   47   92 1    
    93   47   93 1    
    94   49   50 1    
    95   49   94 1    
    96   49   95 1    
    97   50   51 1    
    98   51   96 1    
    99   51   97 1    
@<TRIPOS>SUBSTRUCTURE
     1 UNK         1 GROUP             0       ****    0 ROOT    
