@<TRIPOS>MOLECULE
3R0
97   99    1
SMALL
USER_CHARGES


@<TRIPOS>ATOM
      1 CA         23.1523   52.4428   15.9764 C.3       0 UNK        -0.2006 
      2 C          21.7429   51.9459   15.6907 C.2       0 UNK         0.4864 
      3 O          21.1638   51.2395   16.5167 O.2       0 UNK        -0.5092 
      4 N          21.1931   52.2983   14.5227 N.am      1 UNK        -0.4825 
      5 CA         19.8368   51.9401   14.0946 C.3       1 UNK         0.0812 
      6 C6         19.6629   52.1276   12.5691 C.3       8 UNK        -0.0932 
      7 S7         20.6886   50.9586   11.6153 S.3       8 UNK        -0.2545 
      8 C8         19.4997   50.3586   10.3667 C.3       8 UNK         0.0228 
      9 C9         18.9381   51.4997    9.5290 C.ar      8 UNK        -0.0842 
     10 C10        19.7982   52.2927    8.7668 C.ar      8 UNK        -0.0874 
     11 C11        19.3108   53.3919    8.0566 C.ar      8 UNK        -0.0867 
     12 C12        17.9427   53.6772    8.0838 C.ar      8 UNK        -0.1042 
     13 C13        17.0668   52.8809    8.8292 C.ar      8 UNK        -0.0824 
     14 C14        17.5699   51.7878    9.5432 C.ar      8 UNK        -0.1194 
     15 C15        15.5799   53.2126    8.8706 C.3       8 UNK         0.0180 
     16 S16        14.9730   53.5394   10.5591 S.3       8 UNK        -0.2273 
     17 C17        15.9833   54.9769   11.0520 C.3       8 UNK        -0.0981 
     18 CA         15.8177   55.3176   12.5537 C.3       3 UNK         0.0747 
     19 N          16.1562   54.1832   13.4234 N.am      3 UNK        -0.4794 
     20 C          15.8804   54.1120   14.7338 C.2       2 UNK         0.5067 
     21 O          15.2666   54.9806   15.3532 O.2       2 UNK        -0.4802 
     22 CA         16.3631   52.8570   15.4852 C.3       2 UNK         0.0370 
     23 CB         15.2249   51.8295   15.5904 C.3       2 UNK        -0.1774 
     24 N          17.5348   52.2197   14.8746 N.am      2 UNK        -0.4750 
     25 C          18.7672   52.7482   14.8583 C.2       1 UNK         0.5001 
     26 O          19.0512   53.8303   15.3771 O.2       1 UNK        -0.4889 
     27 C          16.6417   56.5664   12.9249 C.2       3 UNK         0.4972 
     28 O          16.0842   57.6586   13.0341 O.2       3 UNK        -0.4802 
     29 N          17.9441   56.3582   13.1476 N.am      4 UNK        -0.4926 
     30 CA         18.9310   57.3167   13.6316 C.3       4 UNK         0.0426 
     31 CB         19.1577   58.4600   12.6223 C.3       4 UNK        -0.1835 
     32 C          20.2292   56.5368   13.8499 C.2       4 UNK         0.5138 
     33 O          20.5858   55.7201   12.9966 O.2       4 UNK        -0.5194 
     34 N          20.9352   56.8147   14.9541 N.am      5 UNK        -0.4222 
     35 CA         22.1894   56.1399   15.3140 C.3       5 UNK         0.0221 
     36 CB         22.6495   56.5969   16.7070 C.3       5 UNK        -0.2034 
     37 C          23.3070   56.3396   14.2757 C.2       5 UNK         0.4987 
     38 O          24.0573   55.4037   13.9983 O.2       5 UNK        -0.5478 
     39 N          23.3468   57.5349   13.6704 N.am      6 UNK        -0.4365 
     40 CA         24.2464   57.9017   12.5733 C.3       6 UNK         0.0273 
     41 CB         24.1390   59.4155   12.3242 C.3       6 UNK        -0.1956 
     42 C          24.0010   57.1233   11.2650 C.2       6 UNK         0.4962 
     43 O          24.8892   57.1087   10.4113 O.2       6 UNK        -0.5385 
     44 N          22.8250   56.4960   11.1221 N.am      7 UNK        -0.4054 
     45 CA         22.4868   55.6087   10.0009 C.3       7 UNK         0.0701 
     46 C          23.1061   54.1865   10.1293 C.2       7 UNK         0.5602 
     47 N          23.6613   53.7968   11.2726 N.am      7 UNK        -0.7339 
     48 O          23.1073   53.4291    9.1635 O.2       7 UNK        -0.5126 
     49 C49        20.9480   55.5631    9.7663 C.3       8 UNK        -0.0906 
     50 S50        20.4606   55.9327    8.0448 S.3       8 UNK        -0.2590 
     51 C51        20.2754   54.2833    7.2882 C.3       8 UNK         0.0201 
     52 H52        23.1398   53.1574   16.7989 H         1 UNK         0.0901 
     53 H53        23.5957   52.9294   15.1077 H         1 UNK         0.0901 
     54 H54        23.7949   51.6092   16.2583 H         1 UNK         0.0901 
     55 H55        21.7034   52.8910   13.8837 H         1 UNK         0.3005 
     56 H56        19.6790   50.8859   14.3357 H         1 UNK         0.1258 
     57 H57        19.9224   53.1441   12.2666 H         1 UNK         0.0713 
     58 H58        18.6197   51.9848   12.2826 H         1 UNK         0.0713 
     59 H59        20.0007   49.6452    9.7111 H         1 UNK         0.0869 
     60 H60        18.7009   49.8095   10.8675 H         1 UNK         0.0869 
     61 H61        20.8579   52.0753    8.7640 H         1 UNK         0.1451 
     62 H62        17.5672   54.5330    7.5391 H         1 UNK         0.1348 
     63 H63        16.8957   51.1798   10.1310 H         1 UNK         0.1248 
     64 H64        15.3547   54.0767    8.2436 H         1 UNK         0.0802 
     65 H65        15.0199   52.3756    8.4516 H         1 UNK         0.0802 
     66 H66        15.6927   55.8258   10.4300 H         1 UNK         0.0831 
     67 H67        17.0307   54.7706   10.8231 H         1 UNK         0.0831 
     68 H68        14.7681   55.5659   12.7298 H         1 UNK         0.1266 
     69 H69        16.6302   53.4078   12.9868 H         1 UNK         0.2858 
     70 H70        16.6360   53.1654   16.4967 H         1 UNK         0.0493 
     71 H71        14.9115   51.4699   14.6094 H         1 UNK         0.0858 
     72 H72        15.5206   50.9668   16.1876 H         1 UNK         0.0858 
     73 H73        14.3483   52.2668   16.0706 H         1 UNK         0.0858 
     74 H74        17.3775   51.3272   14.4276 H         1 UNK         0.2998 
     75 H75        18.3130   55.4216   13.0399 H         1 UNK         0.2942 
     76 H76        18.5860   57.7245   14.5837 H         1 UNK         0.0588 
     77 H77        19.4248   58.0809   11.6358 H         1 UNK         0.0836 
     78 H78        19.9645   59.1171   12.9491 H         1 UNK         0.0836 
     79 H79        18.2699   59.0815   12.5100 H         1 UNK         0.0836 
     80 H80        20.5758   57.4950   15.6085 H         1 UNK         0.3003 
     81 H81        21.9753   55.0708   15.3596 H         1 UNK         0.0959 
     82 H82        21.9023   56.3660   17.4666 H         1 UNK         0.0808 
     83 H83        23.5709   56.0902   16.9981 H         1 UNK         0.0808 
     84 H84        22.8430   57.6698   16.7393 H         1 UNK         0.0808 
     85 H85        22.6872   58.2386   13.9695 H         1 UNK         0.3181 
     86 H86        25.2665   57.6775   12.8926 H         1 UNK         0.0819 
     87 H87        23.1333   59.7044   12.0162 H         1 UNK         0.0823 
     88 H88        24.3957   59.9855   13.2173 H         1 UNK         0.0823 
     89 H89        24.8235   59.7310   11.5352 H         1 UNK         0.0823 
     90 H90        22.1626   56.4947   11.8888 H         1 UNK         0.3159 
     91 H91        22.9534   56.0365    9.1120 H         1 UNK         0.0870 
     92 H92        23.7064   54.4145   12.0725 H         1 UNK         0.3462 
     93 H93        24.0626   52.8748   11.3271 H         1 UNK         0.3462 
     94 H94        20.5077   54.6259   10.1088 H         1 UNK         0.0763 
     95 H95        20.4495   56.3225   10.3690 H         1 UNK         0.0763 
     96 H96        19.9158   54.4024    6.2652 H         1 UNK         0.0881 
     97 H97        21.2583   53.8165    7.2098 H         1 UNK         0.0881 
@<TRIPOS>BOND
     1    1    2 1    
     2    1   52 1    
     3    1   53 1    
     4    1   54 1    
     5    2    3 2    
     6    2    4 am   BACKBONE|DICT|INTERRES
     7    4    5 1    
     8    4   55 1    
     9    5    6 1    
    10    5   25 1    
    11    5   56 1    
    12    6    7 1    
    13    6   57 1    
    14    6   58 1    
    15    7    8 1    
    16    8    9 1    
    17    8   59 1    
    18    8   60 1    
    19    9   10 ar   
    20    9   14 ar   
    21   10   11 ar   
    22   10   61 1    
    23   11   12 ar   
    24   11   51 1    
    25   12   13 ar   
    26   12   62 1    
    27   13   14 ar   
    28   13   15 1    
    29   14   63 1    
    30   15   16 1    
    31   15   64 1    
    32   15   65 1    
    33   16   17 1    
    34   17   18 1    
    35   17   66 1    
    36   17   67 1    
    37   18   19 1    
    38   18   27 1    
    39   18   68 1    
    40   19   20 am   BACKBONE|DICT|INTERRES
    41   19   69 1    
    42   20   21 2    
    43   20   22 1    
    44   22   23 1    
    45   22   24 1    
    46   22   70 1    
    47   23   71 1    
    48   23   72 1    
    49   23   73 1    
    50   24   25 am   BACKBONE|DICT|INTERRES
    51   24   74 1    
    52   25   26 2    
    53   27   28 2    
    54   27   29 am   BACKBONE|DICT|INTERRES
    55   29   30 1    
    56   29   75 1    
    57   30   31 1    
    58   30   32 1    
    59   30   76 1    
    60   31   77 1    
    61   31   78 1    
    62   31   79 1    
    63   32   33 2    
    64   32   34 am   BACKBONE|DICT|INTERRES
    65   34   35 1    
    66   34   80 1    
    67   35   36 1    
    68   35   37 1    
    69   35   81 1    
    70   36   82 1    
    71   36   83 1    
    72   36   84 1    
    73   37   38 2    
    74   37   39 am   BACKBONE|DICT|INTERRES
    75   39   40 1    
    76   39   85 1    
    77   40   41 1    
    78   40   42 1    
    79   40   86 1    
    80   41   87 1    
    81   41   88 1    
    82   41   89 1    
    83   42   43 2    
    84   42   44 am   BACKBONE|DICT|INTERRES
    85   44   45 1    
    86   44   90 1    
    87   45   46 1    
    88   45   49 1    
    89   45   91 1    
    90   46   47 am   BACKBONE|DICT|INTERRES
    91   46   48 2    
    92   47   92 1    
    93   47   93 1    
    94   49   50 1    
    95   49   94 1    
    96   49   95 1    
    97   50   51 1    
    98   51   96 1    
    99   51   97 1    
@<TRIPOS>SUBSTRUCTURE
     1 UNK         1 GROUP             0       ****    0 ROOT    
