@<TRIPOS>MOLECULE
3R0
97   99    1
SMALL
USER_CHARGES


@<TRIPOS>ATOM
      1 CA         14.2704   48.3056   13.5221 C.3       0 UNK        -0.2006 
      2 C          15.3347   48.8098   12.5591 C.2       0 UNK         0.4864 
      3 O          15.1403   48.7516   11.3446 O.2       0 UNK        -0.5092 
      4 N          16.4565   49.3060   13.0895 N.am      1 UNK        -0.4825 
      5 CA         17.5661   49.8809   12.3325 C.3       1 UNK         0.0812 
      6 C6         18.4931   48.7813   11.7478 C.3       8 UNK        -0.0932 
      7 S7         19.7510   49.3501   10.5507 S.3       8 UNK        -0.2545 
      8 C8         18.7536   49.9627    9.1515 C.3       8 UNK         0.0228 
      9 C9         18.5048   51.4633    9.2480 C.ar      8 UNK        -0.0842 
     10 C10        19.5737   52.3577    9.1360 C.ar      8 UNK        -0.0874 
     11 C11        19.3638   53.7375    9.2275 C.ar      8 UNK        -0.0867 
     12 C12        18.0665   54.2215    9.4259 C.ar      8 UNK        -0.1042 
     13 C13        16.9861   53.3392    9.5217 C.ar      8 UNK        -0.0824 
     14 C14        17.2110   51.9635    9.4223 C.ar      8 UNK        -0.1194 
     15 C15        15.5671   53.8641    9.6889 C.3       8 UNK         0.0180 
     16 S16        15.0707   53.9621   11.4384 S.3       8 UNK        -0.2273 
     17 C17        15.8068   55.5514   11.9560 C.3       8 UNK        -0.0981 
     18 CA         16.7774   55.4013   13.1519 C.3       3 UNK         0.0747 
     19 N          17.8634   54.4544   12.8630 N.am      3 UNK        -0.4794 
     20 C          18.7190   53.9584   13.7671 C.2       2 UNK         0.5067 
     21 O          18.6951   54.2382   14.9664 O.2       2 UNK        -0.4802 
     22 CA         19.7419   52.9535   13.2132 C.3       2 UNK         0.0370 
     23 CB         20.8088   52.5307   14.2439 C.3       2 UNK        -0.1774 
     24 N          19.0701   51.7941   12.6165 N.am      2 UNK        -0.4750 
     25 C          18.2838   50.9009   13.2353 C.2       1 UNK         0.5001 
     26 O          18.0947   50.8687   14.4551 O.2       1 UNK        -0.4889 
     27 C          17.2897   56.7862   13.6067 C.2       3 UNK         0.4972 
     28 O          16.5662   57.5010   14.3011 O.2       3 UNK        -0.4802 
     29 N          18.5263   57.1249   13.2245 N.am      4 UNK        -0.4926 
     30 CA         19.3061   58.2482   13.7351 C.3       4 UNK         0.0426 
     31 CB         19.6307   59.2055   12.5770 C.3       4 UNK        -0.1835 
     32 C          20.5927   57.6815   14.3498 C.2       4 UNK         0.5138 
     33 O          21.0313   56.6008   13.9411 O.2       4 UNK        -0.5194 
     34 N          21.1784   58.4216   15.3019 N.am      5 UNK        -0.4222 
     35 CA         22.3939   58.0653   16.0445 C.3       5 UNK         0.0221 
     36 CB         22.7521   59.2076   17.0108 C.3       5 UNK        -0.2034 
     37 C          23.5721   57.7421   15.1096 C.2       5 UNK         0.4987 
     38 O          24.0849   58.6459   14.4453 O.2       5 UNK        -0.5478 
     39 N          23.9131   56.4471   15.0199 N.am      6 UNK        -0.4365 
     40 CA         24.8916   55.8445   14.1012 C.3       6 UNK         0.0273 
     41 CB         26.3259   56.2426   14.5104 C.3       6 UNK        -0.1956 
     42 C          24.6055   56.1275   12.6082 C.2       6 UNK         0.4962 
     43 O          25.5386   56.1247   11.8023 O.2       6 UNK        -0.5385 
     44 N          23.3333   56.3906   12.2745 N.am      7 UNK        -0.4054 
     45 CA         22.8530   56.8783   10.9718 C.3       7 UNK         0.0701 
     46 C          23.3942   58.2849   10.5735 C.2       7 UNK         0.5602 
     47 N          23.8727   59.1010   11.5060 N.am      7 UNK        -0.7339 
     48 O          23.3443   58.6666    9.4070 O.2       7 UNK        -0.5126 
     49 C49        22.9699   55.8144    9.8436 C.3       8 UNK        -0.0906 
     50 S50        21.9104   54.3692   10.1852 S.3       8 UNK        -0.2590 
     51 C51        20.5236   54.7103    9.0540 C.3       8 UNK         0.0201 
     52 H52        14.0661   47.2515   13.3367 H         1 UNK         0.0901 
     53 H53        13.3442   48.8625   13.3825 H         1 UNK         0.0901 
     54 H54        14.5779   48.4136   14.5622 H         1 UNK         0.0901 
     55 H55        16.5645   49.3921   14.0936 H         1 UNK         0.3005 
     56 H56        17.1211   50.4469   11.5188 H         1 UNK         0.1258 
     57 H57        19.0069   48.2575   12.5558 H         1 UNK         0.0713 
     58 H58        17.8946   48.0221   11.2419 H         1 UNK         0.0713 
     59 H59        17.8162   49.4070    9.0903 H         1 UNK         0.0869 
     60 H60        19.2892   49.7558    8.2239 H         1 UNK         0.0869 
     61 H61        20.5742   51.9777    8.9762 H         1 UNK         0.1451 
     62 H62        17.8927   55.2876    9.4770 H         1 UNK         0.1348 
     63 H63        16.3723   51.2822    9.4805 H         1 UNK         0.1248 
     64 H64        15.4566   54.8394    9.2123 H         1 UNK         0.0802 
     65 H65        14.8718   53.2018    9.1709 H         1 UNK         0.0802 
     66 H66        14.9829   56.2175   12.2199 H         1 UNK         0.0831 
     67 H67        16.3109   56.0230   11.1114 H         1 UNK         0.0831 
     68 H68        16.2130   54.9934   13.9940 H         1 UNK         0.1266 
     69 H69        17.9248   54.1293   11.9081 H         1 UNK         0.2858 
     70 H70        20.2612   53.4596   12.4002 H         1 UNK         0.0493 
     71 H71        20.3704   52.0460   15.1163 H         1 UNK         0.0858 
     72 H72        21.3611   53.4006   14.6015 H         1 UNK         0.0858 
     73 H73        21.5326   51.8443   13.8051 H         1 UNK         0.0858 
     74 H74        19.1678   51.7117   11.6116 H         1 UNK         0.2998 
     75 H75        19.0694   56.4255   12.7358 H         1 UNK         0.2942 
     76 H76        18.7554   58.7869   14.5091 H         1 UNK         0.0588 
     77 H77        20.1812   58.7081   11.7788 H         1 UNK         0.0836 
     78 H78        20.2380   60.0449   12.9182 H         1 UNK         0.0836 
     79 H79        18.7205   59.6202   12.1437 H         1 UNK         0.0836 
     80 H80        20.7572   59.3070   15.5428 H         1 UNK         0.3003 
     81 H81        22.1647   57.1801   16.6416 H         1 UNK         0.0959 
     82 H82        23.6526   58.9695   17.5787 H         1 UNK         0.0808 
     83 H83        22.9406   60.1420   16.4800 H         1 UNK         0.0808 
     84 H84        21.9538   59.3854   17.7316 H         1 UNK         0.0808 
     85 H85        23.3892   55.7862   15.5780 H         1 UNK         0.3181 
     86 H86        24.8001   54.7640   14.2218 H         1 UNK         0.0819 
     87 H87        26.5083   57.3065   14.3545 H         1 UNK         0.0823 
     88 H88        27.0680   55.6967   13.9264 H         1 UNK         0.0823 
     89 H89        26.5162   56.0198   15.5601 H         1 UNK         0.0823 
     90 H90        22.6241   56.3673   13.0039 H         1 UNK         0.3159 
     91 H91        21.7889   57.0597   11.1183 H         1 UNK         0.0870 
     92 H92        24.2063   60.0111   11.2324 H         1 UNK         0.3462 
     93 H93        23.9242   58.8216   12.4812 H         1 UNK         0.3462 
     94 H94        22.6868   56.2313    8.8756 H         1 UNK         0.0763 
     95 H95        24.0011   55.4781    9.7295 H         1 UNK         0.0763 
     96 H96        20.8783   54.6548    8.0238 H         1 UNK         0.0881 
     97 H97        20.1872   55.7364    9.2115 H         1 UNK         0.0881 
@<TRIPOS>BOND
     1    1    2 1    
     2    1   52 1    
     3    1   53 1    
     4    1   54 1    
     5    2    3 2    
     6    2    4 am   BACKBONE|DICT|INTERRES
     7    4    5 1    
     8    4   55 1    
     9    5    6 1    
    10    5   25 1    
    11    5   56 1    
    12    6    7 1    
    13    6   57 1    
    14    6   58 1    
    15    7    8 1    
    16    8    9 1    
    17    8   59 1    
    18    8   60 1    
    19    9   10 ar   
    20    9   14 ar   
    21   10   11 ar   
    22   10   61 1    
    23   11   12 ar   
    24   11   51 1    
    25   12   13 ar   
    26   12   62 1    
    27   13   14 ar   
    28   13   15 1    
    29   14   63 1    
    30   15   16 1    
    31   15   64 1    
    32   15   65 1    
    33   16   17 1    
    34   17   18 1    
    35   17   66 1    
    36   17   67 1    
    37   18   19 1    
    38   18   27 1    
    39   18   68 1    
    40   19   20 am   BACKBONE|DICT|INTERRES
    41   19   69 1    
    42   20   21 2    
    43   20   22 1    
    44   22   23 1    
    45   22   24 1    
    46   22   70 1    
    47   23   71 1    
    48   23   72 1    
    49   23   73 1    
    50   24   25 am   BACKBONE|DICT|INTERRES
    51   24   74 1    
    52   25   26 2    
    53   27   28 2    
    54   27   29 am   BACKBONE|DICT|INTERRES
    55   29   30 1    
    56   29   75 1    
    57   30   31 1    
    58   30   32 1    
    59   30   76 1    
    60   31   77 1    
    61   31   78 1    
    62   31   79 1    
    63   32   33 2    
    64   32   34 am   BACKBONE|DICT|INTERRES
    65   34   35 1    
    66   34   80 1    
    67   35   36 1    
    68   35   37 1    
    69   35   81 1    
    70   36   82 1    
    71   36   83 1    
    72   36   84 1    
    73   37   38 2    
    74   37   39 am   BACKBONE|DICT|INTERRES
    75   39   40 1    
    76   39   85 1    
    77   40   41 1    
    78   40   42 1    
    79   40   86 1    
    80   41   87 1    
    81   41   88 1    
    82   41   89 1    
    83   42   43 2    
    84   42   44 am   BACKBONE|DICT|INTERRES
    85   44   45 1    
    86   44   90 1    
    87   45   46 1    
    88   45   49 1    
    89   45   91 1    
    90   46   47 am   BACKBONE|DICT|INTERRES
    91   46   48 2    
    92   47   92 1    
    93   47   93 1    
    94   49   50 1    
    95   49   94 1    
    96   49   95 1    
    97   50   51 1    
    98   51   96 1    
    99   51   97 1    
@<TRIPOS>SUBSTRUCTURE
     1 UNK         1 GROUP             0       ****    0 ROOT    
