@<TRIPOS>MOLECULE
3R540
247   249    1
SMALL
USER_CHARGES


@<TRIPOS>ATOM
      1 CA          0.9702  -15.6332  -53.9101 C.3       0 UNK        -0.1800 
      2 C           2.4651  -15.4263  -53.7103 C.2       0 UNK         0.5000 
      3 O           2.9656  -14.3213  -53.9187 O.2       0 UNK        -0.5000 
      4 N           3.1792  -16.4859  -53.3097 N.am      1 UNK        -0.5000 
      5 CA          4.6315  -16.4963  -53.0760 C.3       1 UNK         0.1400 
      6 C6          5.2565  -17.9250  -53.1063 C.3       23 UNK        -0.0398 
      7 S7          4.4233  -19.1081  -54.2389 S.3       23 UNK        -0.2404 
      8 C8          3.7917  -20.4323  -53.1393 C.3       23 UNK        -0.0205 
      9 C9          3.2924  -19.9209  -51.7944 C.ar      23 UNK        -0.0193 
     10 C10         2.1664  -19.0950  -51.7208 C.ar      23 UNK        -0.1150 
     11 C11         1.7876  -18.5258  -50.5021 C.ar      23 UNK        -0.0193 
     12 C12         2.5122  -18.8339  -49.3485 C.ar      23 UNK        -0.1150 
     13 C13         3.6188  -19.6812  -49.3999 C.ar      23 UNK        -0.0193 
     14 C14         4.0011  -20.2271  -50.6271 C.ar      23 UNK        -0.1150 
     15 C15         4.4492  -19.9384  -48.1497 C.3       23 UNK        -0.0205 
     16 S16         3.9773  -21.4723  -47.2909 S.3       23 UNK        -0.2404 
     17 C17         2.5713  -20.9362  -46.2540 C.3       23 UNK        -0.0398 
     18 CA          1.4599  -22.0124  -46.1880 C.3       11 UNK         0.1400 
     19 N           0.7022  -21.9664  -44.9314 N.am      11 UNK        -0.5000 
     20 C          -0.1077  -22.9483  -44.5094 C.2       10 UNK         0.5000 
     21 O          -0.2166  -24.0221  -45.1028 O.2       10 UNK        -0.5000 
     22 CA         -1.0098  -22.6605  -43.2918 C.3       10 UNK         0.1400 
     23 CB         -1.1772  -23.8876  -42.3725 C.3       10 UNK        -0.1800 
     24 N          -0.6432  -21.4566  -42.5374 N.am      10 UNK        -0.5000 
     25 C           0.4143  -21.2639  -41.7361 C.2       9 UNK         0.5000 
     26 O           1.2789  -22.1135  -41.5219 O.2       9 UNK        -0.5000 
     27 CA          0.5431  -19.8761  -41.0723 C.3       9 UNK         0.1400 
     28 CB          1.7158  -19.0940  -41.6838 C.3       9 UNK        -0.1800 
     29 N          -0.6691  -19.0567  -41.1707 N.am      9 UNK        -0.5000 
     30 C          -1.7875  -19.2456  -40.4549 C.2       8 UNK         0.5000 
     31 O          -1.9215  -20.1380  -39.6175 O.2       8 UNK        -0.5000 
     32 CA         -2.9592  -18.2920  -40.7446 C.3       8 UNK         0.1400 
     33 CB         -2.7850  -16.9669  -39.9857 C.3       8 UNK        -0.1800 
     34 N          -3.0780  -18.0206  -42.1778 N.am      8 UNK        -0.5000 
     35 C          -3.7865  -18.7684  -43.0352 C.2       7 UNK         0.5000 
     36 O          -4.4644  -19.7381  -42.6968 O.2       7 UNK        -0.5000 
     37 CA         -3.7114  -18.3922  -44.5277 C.3       7 UNK         0.1400 
     38 CB         -4.8709  -17.4690  -44.9286 C.3       7 UNK        -0.1800 
     39 N          -2.4438  -17.7625  -44.8948 N.am      7 UNK        -0.5000 
     40 C          -1.2814  -18.4234  -44.9915 C.2       6 UNK         0.5000 
     41 O          -1.1815  -19.6449  -44.8748 O.2       6 UNK        -0.5000 
     42 CA         -0.0084  -17.6000  -45.2579 C.3       6 UNK         0.1400 
     43 CB          0.2773  -17.5934  -46.7594 C.3       6 UNK        -0.1800 
     44 N          -0.0684  -16.2139  -44.7979 N.am      6 UNK        -0.5000 
     45 C          -0.3668  -15.7982  -43.5585 C.2       5 UNK         0.5000 
     46 O          -0.5132  -16.5639  -42.6058 O.2       5 UNK        -0.5000 
     47 CA         -0.6237  -14.2884  -43.3636 C.3       5 UNK         0.1400 
     48 CB          0.5979  -13.6197  -42.7174 C.3       5 UNK        -0.1800 
     49 N          -0.9582  -13.5747  -44.6014 N.am      5 UNK        -0.5000 
     50 C          -1.9665  -13.8681  -45.4372 C.2       4 UNK         0.5000 
     51 O          -2.8180  -14.7281  -45.2048 O.2       4 UNK        -0.5000 
     52 CA         -1.9902  -13.1336  -46.7929 C.3       4 UNK         0.1400 
     53 CB         -3.0379  -12.0112  -46.7692 C.3       4 UNK        -0.1800 
     54 N          -0.7041  -12.5780  -47.2378 N.am      4 UNK        -0.5000 
     55 C           0.4413  -13.2556  -47.4081 C.2       3 UNK         0.5000 
     56 O           0.5780  -14.4472  -47.1237 O.2       3 UNK        -0.5000 
     57 CA          1.6393  -12.4290  -47.9204 C.3       3 UNK         0.1400 
     58 CB          2.1241  -11.4581  -46.8298 C.3       3 UNK        -0.1800 
     59 N           2.7802  -13.2443  -48.3432 N.am      3 UNK        -0.5000 
     60 C           2.8020  -14.0767  -49.3910 C.2       2 UNK         0.5000 
     61 O           1.8471  -14.2534  -50.1540 O.2       2 UNK        -0.5000 
     62 CA          4.1263  -14.8253  -49.6248 C.3       2 UNK         0.1400 
     63 CB          4.4346  -15.8043  -48.4776 C.3       2 UNK        -0.1800 
     64 N           4.0340  -15.5596  -50.8801 N.am      2 UNK        -0.5000 
     65 C           5.0153  -15.7638  -51.7672 C.2       1 UNK         0.5000 
     66 O           6.1806  -15.4057  -51.5911 O.2       1 UNK        -0.5000 
     67 C           0.5212  -21.9601  -47.4134 C.2       11 UNK         0.5000 
     68 O           0.8337  -22.5551  -48.4418 O.2       11 UNK        -0.5000 
     69 N          -0.6543  -21.3305  -47.2592 N.am      12 UNK        -0.5000 
     70 CA         -1.7204  -21.3205  -48.2608 C.3       12 UNK         0.1400 
     71 CB         -2.8192  -20.3450  -47.8218 C.3       12 UNK        -0.1800 
     72 C          -2.3194  -22.7140  -48.5290 C.2       12 UNK         0.5000 
     73 O          -2.7766  -22.9681  -49.6424 O.2       12 UNK        -0.5000 
     74 N          -2.3051  -23.6026  -47.5250 N.am      13 UNK        -0.5000 
     75 CA         -2.7161  -24.9989  -47.6800 C.3       13 UNK         0.1400 
     76 CB         -3.0024  -25.6225  -46.3060 C.3       13 UNK        -0.1800 
     77 C          -1.6645  -25.8099  -48.4574 C.2       13 UNK         0.5000 
     78 O          -2.0332  -26.5950  -49.3303 O.2       13 UNK        -0.5000 
     79 N          -0.3772  -25.5626  -48.1718 N.am      14 UNK        -0.5000 
     80 CA          0.7620  -26.1506  -48.8838 C.3       14 UNK         0.1400 
     81 CB          2.0594  -25.8441  -48.1196 C.3       14 UNK        -0.1800 
     82 C           0.8571  -25.6749  -50.3476 C.2       14 UNK         0.5000 
     83 O           1.1729  -26.4734  -51.2299 O.2       14 UNK        -0.5000 
     84 N           0.5355  -24.3954  -50.5811 N.am      15 UNK        -0.5000 
     85 CA          0.4386  -23.7631  -51.8990 C.3       15 UNK         0.1400 
     86 CB          0.4497  -22.2383  -51.7099 C.3       15 UNK        -0.1800 
     87 C          -0.8079  -24.1886  -52.7046 C.2       15 UNK         0.5000 
     88 O          -0.8988  -23.8502  -53.8851 O.2       15 UNK        -0.5000 
     89 N          -1.7441  -24.9001  -52.0578 N.am      16 UNK        -0.5000 
     90 CA         -3.0250  -25.3884  -52.5797 C.3       16 UNK         0.1400 
     91 CB         -2.8173  -26.3711  -53.7512 C.3       16 UNK        -0.1800 
     92 C          -4.0350  -24.2658  -52.9022 C.2       16 UNK         0.5000 
     93 O          -4.9525  -24.4752  -53.6977 O.2       16 UNK        -0.5000 
     94 N          -3.8787  -23.1075  -52.2477 N.am      17 UNK        -0.5000 
     95 CA         -4.8530  -22.0164  -52.2399 C.3       17 UNK         0.1400 
     96 CB         -4.1401  -20.7005  -51.8951 C.3       17 UNK        -0.1800 
     97 C          -5.9994  -22.2914  -51.2471 C.2       17 UNK         0.5000 
     98 O          -7.1150  -21.8252  -51.4779 O.2       17 UNK        -0.5000 
     99 N          -5.7009  -23.0673  -50.1900 N.am      18 UNK        -0.5000 
    100 CA        -6.6022  -23.5258  -49.1275 C.3       18 UNK         0.1400 
    101 CB        -7.6773  -24.4767  -49.6934 C.3       18 UNK        -0.1800 
    102 C         -7.1891  -22.3444  -48.3322 C.2       18 UNK         0.5000 
    103 O         -8.3944  -22.0919  -48.3827 O.2       18 UNK        -0.5000 
    104 N         -6.2935  -21.6315  -47.6337 N.am      19 UNK        -0.5000 
    105 CA        -6.5281  -20.3654  -46.9341 C.3       19 UNK         0.1400 
    106 CB        -7.5406  -20.5253  -45.7770 C.3       19 UNK        -0.1800 
    107 C         -6.8601  -19.2518  -47.9461 C.2       19 UNK         0.5000 
    108 O         -6.0664  -19.0451  -48.8654 O.2       19 UNK        -0.5000 
    109 N         -7.9870  -18.5468  -47.7588 N.am      20 UNK        -0.5000 
    110 CA        -8.5490  -17.5290  -48.6603 C.3       20 UNK         0.1400 
    111 CB        -9.1158  -18.2081  -49.9246 C.3       20 UNK        -0.1800 
    112 C         -7.5640  -16.3865  -48.9943 C.2       20 UNK         0.5000 
    113 O         -7.4779  -15.9567  -50.1468 O.2       20 UNK        -0.5000 
    114 N         -6.7899  -15.9623  -47.9819 N.am      21 UNK        -0.5000 
    115 CA        -5.7053  -14.9714  -48.0535 C.3       21 UNK         0.1400 
    116 CB        -6.2830  -13.5647  -48.3174 C.3       21 UNK        -0.1800 
    117 C         -4.5824  -15.3463  -49.0506 C.2       21 UNK         0.5000 
    118 O         -3.8884  -14.4610  -49.5514 O.2       21 UNK        -0.5000 
    119 N         -4.4310  -16.6491  -49.3289 N.am      22 UNK        -0.5000 
    120 CA        -3.5488  -17.2190  -50.3570 C.3       22 UNK         0.1400 
    121 C         -4.0086  -16.9429  -51.8237 C.2       22 UNK         0.5000 
    122 N         -5.2482  -16.5290  -52.0658 N.am      22 UNK        -0.7600 
    123 O         -3.2442  -17.1271  -52.7663 O.2       22 UNK        -0.5000 
    124 C124       -2.0462  -16.9047  -50.1027 C.3       23 UNK        -0.0398 
    125 S125       -0.9708  -18.3484  -50.3902 S.3       23 UNK        -0.2404 
    126 C126        0.6441  -17.5262  -50.4396 C.3       23 UNK        -0.0205 
    127 H127        0.4108  -15.0590  -53.1712 H         1 UNK         0.0600 
    128 H128        0.6731  -15.2946  -54.9026 H         1 UNK         0.0600 
    129 H129        0.6880  -16.6819  -53.8132 H         1 UNK         0.0600 
    130 H130        2.7275  -17.3797  -53.1830 H         1 UNK         0.3000 
    131 H131        5.0854  -15.9325  -53.8939 H         1 UNK         0.0600 
    132 H132        6.2965  -17.8471  -53.4266 H         1 UNK         0.0800 
    133 H133        5.3162  -18.3523  -52.1064 H         1 UNK         0.0800 
    134 H134        4.5851  -21.1672  -52.9949 H         1 UNK         0.0800 
    135 H135        2.9817  -20.9584  -53.6462 H         1 UNK         0.0800 
    136 H136        1.6089  -18.8653  -52.6175 H         1 UNK         0.1150 
    137 H137        2.2423  -18.3858  -48.4095 H         1 UNK         0.1150 
    138 H138        4.8764  -20.8594  -50.6775 H         1 UNK         0.1150 
    139 H139        5.5014  -20.0106  -48.4287 H         1 UNK         0.0800 
    140 H140        4.3830  -19.0934  -47.4624 H         1 UNK         0.0800 
    141 H141        2.1819  -19.9776  -46.5957 H         1 UNK         0.0800 
    142 H142        2.9746  -20.7547  -45.2567 H         1 UNK         0.0800 
    143 H143        1.9449  -22.9912  -46.2092 H         1 UNK         0.0600 
    144 H144        0.6754  -21.0882  -44.4343 H         1 UNK         0.3000 
    145 H145       -1.9929  -22.4420  -43.7114 H         1 UNK         0.0600 
    146 H146       -1.8250  -23.6608  -41.5257 H         1 UNK         0.0600 
    147 H147       -1.6302  -24.7202  -42.9120 H         1 UNK         0.0600 
    148 H148       -0.2216  -24.2379  -41.9821 H         1 UNK         0.0600 
    149 H149       -1.2517  -20.6631  -42.6855 H         1 UNK         0.3000 
    150 H150        0.7598  -20.0409  -40.0148 H         1 UNK         0.0600 
    151 H151        2.6545  -19.6362  -41.5624 H         1 UNK         0.0600 
    152 H152        1.8373  -18.1232  -41.2027 H         1 UNK         0.0600 
    153 H153        1.5723  -18.9234  -42.7496 H         1 UNK         0.0600 
    154 H154       -0.6224  -18.2496  -41.7873 H         1 UNK         0.3000 
    155 H155       -3.8758  -18.7645  -40.3847 H         1 UNK         0.0600 
    156 H156       -1.8766  -16.4422  -40.2831 H         1 UNK         0.0600 
    157 H157       -2.7254  -17.1400  -38.9105 H         1 UNK         0.0600 
    158 H158       -3.6290  -16.2998  -40.1610 H         1 UNK         0.0600 
    159 H159       -2.4971  -17.2761  -42.5419 H         1 UNK         0.3000 
    160 H160       -3.8098  -19.3193  -45.0919 H         1 UNK         0.0600 
    161 H161       -4.8634  -17.2797  -46.0017 H         1 UNK         0.0600 
    162 H162       -4.8145  -16.5077  -44.4166 H         1 UNK         0.0600 
    163 H163       -5.8336  -17.9167  -44.6804 H         1 UNK         0.0600 
    164 H164       -2.4547  -16.7552  -45.0197 H         1 UNK         0.3000 
    165 H165        0.8212  -18.0896  -44.7484 H         1 UNK         0.0600 
    166 H166        0.3152  -18.6034  -47.1671 H         1 UNK         0.0600 
    167 H167        1.2285  -17.1037  -46.9644 H         1 UNK         0.0600 
    168 H168       -0.4952  -17.0529  -47.3049 H         1 UNK         0.0600 
    169 H169        0.0624  -15.5106  -45.5195 H         1 UNK         0.3000 
    170 H170       -1.4732  -14.1901  -42.6850 H         1 UNK         0.0600 
    171 H171        0.8620  -14.1103  -41.7794 H         1 UNK         0.0600 
    172 H172        1.4716  -13.6642  -43.3691 H         1 UNK         0.0600 
    173 H173        0.4006  -12.5720  -42.4896 H         1 UNK         0.0600 
    174 H174       -0.3082  -12.8597  -44.8916 H         1 UNK         0.3000 
    175 H175       -2.2909  -13.8713  -47.5375 H         1 UNK         0.0600 
    176 H176       -3.1932  -11.5963  -47.7653 H         1 UNK         0.0600 
    177 H177       -4.0023  -12.3808  -46.4183 H         1 UNK         0.0600 
    178 H178       -2.7402  -11.1979  -46.1063 H         1 UNK         0.0600 
    179 H179       -0.7152  -11.5964  -47.4749 H         1 UNK         0.3000 
    180 H180        1.3029  -11.8504  -48.7833 H         1 UNK         0.0600 
    181 H181        2.4643  -11.9908  -45.9406 H         1 UNK         0.0600 
    182 H182        1.3313  -10.7762  -46.5200 H         1 UNK         0.0600 
    183 H183        2.9501  -10.8432  -47.1881 H         1 UNK         0.0600 
    184 H184        3.5998  -13.1883  -47.7573 H         1 UNK         0.3000 
    185 H185        4.9239  -14.0830  -49.6959 H         1 UNK         0.0600 
    186 H186        3.5910  -16.4632  -48.2776 H         1 UNK         0.0600 
    187 H187        5.3005  -16.4263  -48.7054 H         1 UNK         0.0600 
    188 H188        4.6545  -15.2700  -47.5531 H         1 UNK         0.0600 
    189 H189        3.0899  -15.8095  -51.1430 H         1 UNK         0.3000 
    190 H190       -0.8491  -20.8620  -46.3797 H         1 UNK         0.3000 
    191 H191       -1.2958  -20.9644  -49.1994 H         1 UNK         0.0600 
    192 H192       -2.4302  -19.3329  -47.7105 H         1 UNK         0.0600 
    193 H193       -3.2538  -20.6486  -46.8707 H         1 UNK         0.0600 
    194 H194       -3.6232  -20.3004  -48.5565 H         1 UNK         0.0600 
    195 H195       -1.8781  -23.3482  -46.6459 H         1 UNK         0.3000 
    196 H196       -3.6451  -25.0245  -48.2533 H         1 UNK         0.0600 
    197 H197       -3.4013  -26.6315  -46.4163 H         1 UNK         0.0600 
    198 H198       -3.7398  -25.0404  -45.7532 H         1 UNK         0.0600 
    199 H199       -2.1041  -25.6959  -45.6937 H         1 UNK         0.0600 
    200 H200       -0.1629  -24.8995  -47.4397 H         1 UNK         0.3000 
    201 H201        0.6247  -27.2339  -48.8958 H         1 UNK         0.0600 
    202 H202        2.0093  -26.2090  -47.0935 H         1 UNK         0.0600 
    203 H203        2.2686  -24.7749  -48.0852 H         1 UNK         0.0600 
    204 H204        2.9133  -26.3275  -48.5957 H         1 UNK         0.0600 
    205 H205        0.3958  -23.7830  -49.7808 H         1 UNK         0.3000 
    206 H206        1.3198  -24.0442  -52.4789 H         1 UNK         0.0600 
    207 H207       -0.4476  -21.8907  -51.1981 H         1 UNK         0.0600 
    208 H208        1.3116  -21.9193  -51.1240 H         1 UNK         0.0600 
    209 H209        0.4990  -21.7221  -52.6693 H         1 UNK         0.0600 
    210 H210       -1.5672  -25.1216  -51.0869 H         1 UNK         0.3000 
    211 H211       -3.4731  -25.9550  -51.7623 H         1 UNK         0.0600 
    212 H212       -2.4546  -25.8665  -54.6469 H         1 UNK         0.0600 
    213 H213       -3.7516  -26.8679  -54.0147 H         1 UNK         0.0600 
    214 H214       -2.1006  -27.1498  -53.4898 H         1 UNK         0.0600 
    215 H215       -3.1340  -23.0433  -51.5611 H         1 UNK         0.3000 
    216 H216       -5.2874  -21.9159  -53.2367 H         1 UNK         0.0600 
    217 H217       -4.8494  -19.8723  -51.8751 H         1 UNK         0.0600 
    218 H218       -3.3756  -20.4579  -52.6334 H         1 UNK         0.0600 
    219 H219       -3.6586  -20.7429  -50.9188 H         1 UNK         0.0600 
    220 H220       -4.7274  -23.3302  -50.0856 H         1 UNK         0.3000 
    221 H221       -5.9949  -24.1040  -48.4296 H         1 UNK         0.0600 
    222 H222       -8.3431  -23.9727  -50.3945 H         1 UNK         0.0600 
    223 H223       -7.2220  -25.3199  -50.2127 H         1 UNK         0.0600 
    224 H224       -8.2959  -24.8832  -48.8924 H         1 UNK         0.0600 
    225 H225       -5.3270  -21.9109  -47.7008 H         1 UNK         0.3000 
    226 H226       -5.5756  -20.0845  -46.4874 H         1 UNK         0.0600 
    227 H227       -7.2284  -21.3187  -45.0977 H         1 UNK         0.0600 
    228 H228       -7.6105  -19.6122  -45.1851 H         1 UNK         0.0600 
    229 H229       -8.5434  -20.7696  -46.1280 H         1 UNK         0.0600 
    230 H230       -8.5632  -18.7866  -46.9642 H         1 UNK         0.3000 
    231 H231       -9.3825  -17.0667  -48.1298 H         1 UNK         0.0600 
    232 H232       -9.8274  -18.9920  -49.6651 H         1 UNK         0.0600 
    233 H233       -8.3269  -18.6615  -50.5266 H         1 UNK         0.0600 
    234 H234       -9.6406  -17.4906  -50.5563 H         1 UNK         0.0600 
    235 H235       -6.9327  -16.3899  -47.0783 H         1 UNK         0.3000 
    236 H236       -5.2353  -14.9546  -47.0690 H         1 UNK         0.0600 
    237 H237       -5.5071  -12.8009  -48.2706 H         1 UNK         0.0600 
    238 H238       -6.7437  -13.4947  -49.3031 H         1 UNK         0.0600 
    239 H239       -7.0374  -13.3036  -47.5754 H         1 UNK         0.0600 
    240 H240       -5.0810  -17.3150  -48.9242 H         1 UNK         0.3000 
    241 H241       -3.6881  -18.2925  -50.2324 H         1 UNK         0.0600 
    242 H242       -5.5313  -16.3627  -53.0179 H         1 UNK         0.3800 
    243 H243       -5.9106  -16.3675  -51.3140 H         1 UNK         0.3800 
    244 H244       -1.7102  -16.0601  -50.7073 H         1 UNK         0.0800 
    245 H245       -1.8926  -16.6003  -49.0677 H         1 UNK         0.0800 
    246 H246        0.7518  -16.8838  -49.5641 H         1 UNK         0.0800 
    247 H247        0.6830  -16.8640  -51.3038 H         1 UNK         0.0800 
@<TRIPOS>BOND
     1    1    2 1    
     2    1  127 1    
     3    1  128 1    
     4    1  129 1    
     5    2    3 2    
     6    2    4 am   BACKBONE|DICT|INTERRES
     7    4    5 1    
     8    4  130 1    
     9    5    6 1    
    10    5   65 1    
    11    5  131 1    
    12    6    7 1    
    13    6  132 1    
    14    6  133 1    
    15    7    8 1    
    16    8    9 1    
    17    8  134 1    
    18    8  135 1    
    19    9   10 ar   
    20    9   14 ar   
    21   10   11 ar   
    22   10  136 1    
    23   11   12 ar   
    24   11  126 1    
    25   12   13 ar   
    26   12  137 1    
    27   13   14 ar   
    28   13   15 1    
    29   14  138 1    
    30   15   16 1    
    31   15  139 1    
    32   15  140 1    
    33   16   17 1    
    34   17   18 1    
    35   17  141 1    
    36   17  142 1    
    37   18   19 1    
    38   18   67 1    
    39   18  143 1    
    40   19   20 am   BACKBONE|DICT|INTERRES
    41   19  144 1    
    42   20   21 2    
    43   20   22 1    
    44   22   23 1    
    45   22   24 1    
    46   22  145 1    
    47   23  146 1    
    48   23  147 1    
    49   23  148 1    
    50   24   25 am   BACKBONE|DICT|INTERRES
    51   24  149 1    
    52   25   26 2    
    53   25   27 1    
    54   27   28 1    
    55   27   29 1    
    56   27  150 1    
    57   28  151 1    
    58   28  152 1    
    59   28  153 1    
    60   29   30 am   BACKBONE|DICT|INTERRES
    61   29  154 1    
    62   30   31 2    
    63   30   32 1    
    64   32   33 1    
    65   32   34 1    
    66   32  155 1    
    67   33  156 1    
    68   33  157 1    
    69   33  158 1    
    70   34   35 am   BACKBONE|DICT|INTERRES
    71   34  159 1    
    72   35   36 2    
    73   35   37 1    
    74   37   38 1    
    75   37   39 1    
    76   37  160 1    
    77   38  161 1    
    78   38  162 1    
    79   38  163 1    
    80   39   40 am   BACKBONE|DICT|INTERRES
    81   39  164 1    
    82   40   41 2    
    83   40   42 1    
    84   42   43 1    
    85   42   44 1    
    86   42  165 1    
    87   43  166 1    
    88   43  167 1    
    89   43  168 1    
    90   44   45 am   BACKBONE|DICT|INTERRES
    91   44  169 1    
    92   45   46 2    
    93   45   47 1    
    94   47   48 1    
    95   47   49 1    
    96   47  170 1    
    97   48  171 1    
    98   48  172 1    
    99   48  173 1    
   100   49   50 am   BACKBONE|DICT|INTERRES
   101   49  174 1    
   102   50   51 2    
   103   50   52 1    
   104   52   53 1    
   105   52   54 1    
   106   52  175 1    
   107   53  176 1    
   108   53  177 1    
   109   53  178 1    
   110   54   55 am   BACKBONE|DICT|INTERRES
   111   54  179 1    
   112   55   56 2    
   113   55   57 1    
   114   57   58 1    
   115   57   59 1    
   116   57  180 1    
   117   58  181 1    
   118   58  182 1    
   119   58  183 1    
   120   59   60 am   BACKBONE|DICT|INTERRES
   121   59  184 1    
   122   60   61 2    
   123   60   62 1    
   124   62   63 1    
   125   62   64 1    
   126   62  185 1    
   127   63  186 1    
   128   63  187 1    
   129   63  188 1    
   130   64   65 am   BACKBONE|DICT|INTERRES
   131   64  189 1    
   132   65   66 2    
   133   67   68 2    
   134   67   69 am   BACKBONE|DICT|INTERRES
   135   69   70 1    
   136   69  190 1    
   137   70   71 1    
   138   70   72 1    
   139   70  191 1    
   140   71  192 1    
   141   71  193 1    
   142   71  194 1    
   143   72   73 2    
   144   72   74 am   BACKBONE|DICT|INTERRES
   145   74   75 1    
   146   74  195 1    
   147   75   76 1    
   148   75   77 1    
   149   75  196 1    
   150   76  197 1    
   151   76  198 1    
   152   76  199 1    
   153   77   78 2    
   154   77   79 am   BACKBONE|DICT|INTERRES
   155   79   80 1    
   156   79  200 1    
   157   80   81 1    
   158   80   82 1    
   159   80  201 1    
   160   81  202 1    
   161   81  203 1    
   162   81  204 1    
   163   82   83 2    
   164   82   84 am   BACKBONE|DICT|INTERRES
   165   84   85 1    
   166   84  205 1    
   167   85   86 1    
   168   85   87 1    
   169   85  206 1    
   170   86  207 1    
   171   86  208 1    
   172   86  209 1    
   173   87   88 2    
   174   87   89 am   BACKBONE|DICT|INTERRES
   175   89   90 1    
   176   89  210 1    
   177   90   91 1    
   178   90   92 1    
   179   90  211 1    
   180   91  212 1    
   181   91  213 1    
   182   91  214 1    
   183   92   93 2    
   184   92   94 am   BACKBONE|DICT|INTERRES
   185   94   95 1    
   186   94  215 1    
   187   95   96 1    
   188   95   97 1    
   189   95  216 1    
   190   96  217 1    
   191   96  218 1    
   192   96  219 1    
   193   97   98 2    
   194   97   99 am   BACKBONE|DICT|INTERRES
   195   99  100 1    
   196   99  220 1    
   197  100  101 1    
   198  100  102 1    
   199  100  221 1    
   200  101  222 1    
   201  101  223 1    
   202  101  224 1    
   203  102  103 2    
   204  102  104 am   BACKBONE|DICT|INTERRES
   205  104  105 1    
   206  104  225 1    
   207  105  106 1    
   208  105  107 1    
   209  105  226 1    
   210  106  227 1    
   211  106  228 1    
   212  106  229 1    
   213  107  108 2    
   214  107  109 am   BACKBONE|DICT|INTERRES
   215  109  110 1    
   216  109  230 1    
   217  110  111 1    
   218  110  112 1    
   219  110  231 1    
   220  111  232 1    
   221  111  233 1    
   222  111  234 1    
   223  112  113 2    
   224  112  114 am   BACKBONE|DICT|INTERRES
   225  114  115 1    
   226  114  235 1    
   227  115  116 1    
   228  115  117 1    
   229  115  236 1    
   230  116  237 1    
   231  116  238 1    
   232  116  239 1    
   233  117  118 2    
   234  117  119 am   BACKBONE|DICT|INTERRES
   235  119  120 1    
   236  119  240 1    
   237  120  121 1    
   238  120  124 1    
   239  120  241 1    
   240  121  122 am   BACKBONE|DICT|INTERRES
   241  121  123 2    
   242  122  242 1    
   243  122  243 1    
   244  124  125 1    
   245  124  244 1    
   246  124  245 1    
   247  125  126 1    
   248  126  246 1    
   249  126  247 1    
@<TRIPOS>SUBSTRUCTURE
     1 UNK         1 GROUP             0       ****    0 ROOT    
