@<TRIPOS>MOLECULE
3R540
247   249    1
SMALL
USER_CHARGES


@<TRIPOS>ATOM
      1 CA          5.0762   -9.0502  -51.1413 C.3       0 UNK        -0.1800 
      2 C           5.5249  -10.4594  -50.7797 C.2       0 UNK         0.5000 
      3 O           6.6927  -10.7993  -50.9742 O.2       0 UNK        -0.5000 
      4 N           4.6013  -11.2796  -50.2654 N.am      1 UNK        -0.5000 
      5 CA          4.8542  -12.6428  -49.7884 C.3       1 UNK         0.1400 
      6 C6          3.5771  -13.5153  -49.8661 C.3       23 UNK        -0.0398 
      7 S7          2.1643  -12.9063  -48.8773 S.3       23 UNK        -0.2404 
      8 C8          1.6626  -14.4159  -47.9923 C.3       23 UNK        -0.0205 
      9 C9          1.2801  -15.5478  -48.9385 C.ar      23 UNK        -0.0193 
     10 C10         0.1353  -15.4498  -49.7374 C.ar      23 UNK        -0.1150 
     11 C11        -0.2165  -16.4849  -50.6166 C.ar      23 UNK        -0.0193 
     12 C12         0.6051  -17.6132  -50.6902 C.ar      23 UNK        -0.1150 
     13 C13         1.7516  -17.7245  -49.9006 C.ar      23 UNK        -0.0193 
     14 C14         2.0792  -16.6923  -49.0193 C.ar      23 UNK        -0.1150 
     15 C15         2.6500  -18.9473  -50.0249 C.3       23 UNK        -0.0205 
     16 S16         2.3691  -20.1563  -48.6949 S.3       23 UNK        -0.2404 
     17 C17         0.6405  -20.6437  -49.0108 C.3       23 UNK        -0.0398 
     18 CA          0.2162  -21.8817  -48.1885 C.3       11 UNK         0.1400 
     19 N           0.2191  -21.6327  -46.7444 N.am      11 UNK        -0.5000 
     20 C           0.0509  -22.5717  -45.8036 C.2       10 UNK         0.5000 
     21 O          -0.0932  -23.7689  -46.0496 O.2       10 UNK        -0.5000 
     22 CA         -0.0202  -22.0896  -44.3440 C.3       10 UNK         0.1400 
     23 CB          1.3795  -21.7926  -43.7850 C.3       10 UNK        -0.1800 
     24 N          -0.8793  -20.9157  -44.1890 N.am      10 UNK        -0.5000 
     25 C          -2.2048  -20.9211  -44.3910 C.2       9 UNK         0.5000 
     26 O          -2.8449  -21.9243  -44.7040 O.2       9 UNK        -0.5000 
     27 CA         -2.9368  -19.5752  -44.2511 C.3       9 UNK         0.1400 
     28 CB         -3.2650  -19.2905  -42.7783 C.3       9 UNK        -0.1800 
     29 N          -2.1799  -18.4555  -44.8096 N.am      9 UNK        -0.5000 
     30 C          -1.8715  -18.3271  -46.1080 C.2       8 UNK         0.5000 
     31 O          -2.2144  -19.1275  -46.9780 O.2       8 UNK        -0.5000 
     32 CA         -0.9865  -17.1272  -46.4893 C.3       8 UNK         0.1400 
     33 CB         -1.7979  -15.8239  -46.4519 C.3       8 UNK        -0.1800 
     34 N           0.1986  -16.9857  -45.6401 N.am      8 UNK        -0.5000 
     35 C           1.1139  -17.9422  -45.4259 C.2       7 UNK         0.5000 
     36 O           1.0702  -19.0577  -45.9357 O.2       7 UNK        -0.5000 
     37 CA          2.2333  -17.6255  -44.4238 C.3       7 UNK         0.1400 
     38 CB          3.4531  -17.0140  -45.1280 C.3       7 UNK        -0.1800 
     39 N           1.7538  -16.7505  -43.3511 N.am      7 UNK        -0.5000 
     40 C           1.0225  -17.2082  -42.3231 C.2       6 UNK         0.5000 
     41 O           0.7234  -18.3946  -42.1752 O.2       6 UNK        -0.5000 
     42 CA          0.5175  -16.1742  -41.3024 C.3       6 UNK         0.1400 
     43 CB          1.6767  -15.5853  -40.4849 C.3       6 UNK        -0.1800 
     44 N          -0.2572  -15.0885  -41.9011 N.am      6 UNK        -0.5000 
     45 C          -1.4150  -15.2227  -42.5588 C.2       5 UNK         0.5000 
     46 O          -1.9244  -16.3097  -42.8280 O.2       5 UNK        -0.5000 
     47 CA         -2.1234  -13.9295  -43.0124 C.3       5 UNK         0.1400 
     48 CB         -2.7840  -13.2009  -41.8260 C.3       5 UNK        -0.1800 
     49 N          -1.2689  -13.0336  -43.8033 N.am      5 UNK        -0.5000 
     50 C          -0.1868  -12.3526  -43.4057 C.2       4 UNK         0.5000 
     51 O           0.2216  -12.3131  -42.2418 O.2       4 UNK        -0.5000 
     52 CA          0.5952  -11.6166  -44.5086 C.3       4 UNK         0.1400 
     53 CB          0.2735  -10.1150  -44.4950 C.3       4 UNK        -0.1800 
     54 N           2.0369  -11.8042  -44.3474 N.am      4 UNK        -0.5000 
     55 C           2.6556  -12.9890  -44.4111 C.2       3 UNK         0.5000 
     56 O           2.0873  -14.0497  -44.6849 O.2       3 UNK        -0.5000 
     57 CA          4.1532  -13.0006  -44.0943 C.3       3 UNK         0.1400 
     58 CB          4.4292  -13.7841  -42.7968 C.3       3 UNK        -0.1800 
     59 N           4.8622  -13.5894  -45.2247 N.am      3 UNK        -0.5000 
     60 C           6.1808  -13.4972  -45.4306 C.2       2 UNK         0.5000 
     61 O           6.9602  -12.9467  -44.6512 O.2       2 UNK        -0.5000 
     62 CA          6.7299  -14.1015  -46.7377 C.3       2 UNK         0.1400 
     63 CB          6.9411  -15.6157  -46.5803 C.3       2 UNK        -0.1800 
     64 N           5.9219  -13.8536  -47.9379 N.am      2 UNK        -0.5000 
     65 C           5.5255  -12.6543  -48.3928 C.2       1 UNK         0.5000 
     66 O           5.6934  -11.5991  -47.7751 O.2       1 UNK        -0.5000 
     67 C          -1.1467  -22.4154  -48.6698 C.2       11 UNK         0.5000 
     68 O          -1.1749  -23.3946  -49.4158 O.2       11 UNK        -0.5000 
     69 N          -2.2454  -21.8036  -48.2010 N.am      12 UNK        -0.5000 
     70 CA         -3.6139  -22.2397  -48.4827 C.3       12 UNK         0.1400 
     71 CB         -4.6168  -21.2396  -47.8868 C.3       12 UNK        -0.1800 
     72 C          -3.8968  -23.6602  -47.9632 C.2       12 UNK         0.5000 
     73 O          -4.4741  -24.4645  -48.6937 O.2       12 UNK        -0.5000 
     74 N          -3.4575  -23.9542  -46.7304 N.am      13 UNK        -0.5000 
     75 CA         -3.5688  -25.2699  -46.1004 C.3       13 UNK         0.1400 
     76 CB         -3.1677  -25.1770  -44.6208 C.3       13 UNK        -0.1800 
     77 C          -2.7454  -26.3492  -46.8242 C.2       13 UNK         0.5000 
     78 O          -3.2637  -27.4398  -47.0637 O.2       13 UNK        -0.5000 
     79 N          -1.5004  -26.0204  -47.1988 N.am      14 UNK        -0.5000 
     80 CA         -0.5994  -26.8932  -47.9584 C.3       14 UNK         0.1400 
     81 CB          0.7891  -26.2428  -48.0501 C.3       14 UNK        -0.1800 
     82 C          -1.1329  -27.2345  -49.3629 C.2       14 UNK         0.5000 
     83 O          -0.9747  -28.3674  -49.8183 O.2       14 UNK        -0.5000 
     84 N          -1.7904  -26.2594  -50.0015 N.am      15 UNK        -0.5000 
     85 CA         -2.4772  -26.4017  -51.2850 C.3       15 UNK         0.1400 
     86 CB         -2.5224  -25.0226  -51.9565 C.3       15 UNK        -0.1800 
     87 C          -3.8965  -26.9986  -51.1632 C.2       15 UNK         0.5000 
     88 O          -4.5746  -27.1337  -52.1826 O.2       15 UNK        -0.5000 
     89 N          -4.3420  -27.3159  -49.9365 N.am      16 UNK        -0.5000 
     90 CA         -5.6532  -27.8712  -49.5746 C.3       16 UNK         0.1400 
     91 CB         -5.7669  -29.3295  -50.0640 C.3       16 UNK        -0.1800 
     92 C          -6.8425  -26.9948  -50.0286 C.2       16 UNK         0.5000 
     93 O          -7.9079  -27.5197  -50.3563 O.2       16 UNK        -0.5000 
     94 N          -6.6185  -25.6731  -50.0687 N.am      17 UNK        -0.5000 
     95 CA         -7.5065  -24.6100  -50.5498 C.3       17 UNK         0.1400 
     96 CB         -8.7546  -24.4936  -49.6517 C.3       17 UNK        -0.1800 
     97 C          -7.8692  -24.6925  -52.0512 C.2       17 UNK         0.5000 
     98 O          -8.7358  -23.9399  -52.4991 O.2       17 UNK        -0.5000 
     99 N          -7.1991  -25.5666  -52.8180 N.am      18 UNK        -0.5000 
    100 CA        -7.3761  -25.7027  -54.2677 C.3       18 UNK         0.1400 
    101 CB        -6.9116  -27.1016  -54.7009 C.3       18 UNK        -0.1800 
    102 C         -6.6212  -24.6129  -55.0541 C.2       18 UNK         0.5000 
    103 O         -6.9414  -24.3623  -56.2166 O.2       18 UNK        -0.5000 
    104 N         -5.6429  -23.9834  -54.3992 N.am      19 UNK        -0.5000 
    105 CA        -4.8412  -22.8626  -54.8641 C.3       19 UNK         0.1400 
    106 CB        -3.6821  -23.3791  -55.7372 C.3       19 UNK        -0.1800 
    107 C         -4.3330  -22.1142  -53.6214 C.2       19 UNK         0.5000 
    108 O         -4.5695  -22.5680  -52.4979 O.2       19 UNK        -0.5000 
    109 N         -3.6454  -20.9848  -53.8446 N.am      20 UNK        -0.5000 
    110 CA        -2.9602  -20.1621  -52.8361 C.3       20 UNK         0.1400 
    111 CB        -1.7324  -20.9138  -52.2814 C.3       20 UNK        -0.1800 
    112 C         -3.8801  -19.6404  -51.7105 C.2       20 UNK         0.5000 
    113 O         -3.4233  -19.4398  -50.5847 O.2       20 UNK        -0.5000 
    114 N         -5.1607  -19.4168  -52.0323 N.am      21 UNK        -0.5000 
    115 CA        -6.2263  -19.0354  -51.1044 C.3       21 UNK         0.1400 
    116 CB        -7.5780  -19.4363  -51.7226 C.3       21 UNK        -0.1800 
    117 C         -6.1701  -17.5482  -50.6876 C.2       21 UNK         0.5000 
    118 O         -7.1636  -16.8296  -50.8124 O.2       21 UNK        -0.5000 
    119 N         -5.0062  -17.1143  -50.1926 N.am      22 UNK        -0.5000 
    120 CA        -4.7753  -15.7809  -49.6145 C.3       22 UNK         0.1400 
    121 C         -5.3771  -15.5976  -48.1889 C.2       22 UNK         0.5000 
    122 N         -5.7740  -16.6528  -47.4870 N.am      22 UNK        -0.7600 
    123 O         -5.4884  -14.4720  -47.7119 O.2       22 UNK        -0.5000 
    124 C124       -3.2704  -15.4116  -49.6197 C.3       23 UNK        -0.0398 
    125 S125       -2.6168  -15.0655  -51.2856 S.3       23 UNK        -0.2404 
    126 C126       -1.4472  -16.4464  -51.5278 C.3       23 UNK        -0.0205 
    127 H127        4.0181   -8.8946  -50.9287 H         1 UNK         0.0600 
    128 H128        5.6483   -8.3172  -50.5727 H         1 UNK         0.0600 
    129 H129        5.2405   -8.8642  -52.2027 H         1 UNK         0.0600 
    130 H130        3.6668  -10.9348  -50.0972 H         1 UNK         0.3000 
    131 H131        5.5786  -13.0956  -50.4692 H         1 UNK         0.0600 
    132 H132        3.2443  -13.5721  -50.9035 H         1 UNK         0.0800 
    133 H133        3.8120  -14.5432  -49.5913 H         1 UNK         0.0800 
    134 H134        2.4776  -14.7199  -47.3374 H         1 UNK         0.0800 
    135 H135        0.8219  -14.1808  -47.3403 H         1 UNK         0.0800 
    136 H136       -0.4655  -14.5551  -49.6712 H         1 UNK         0.1150 
    137 H137        0.3541  -18.4098  -51.3758 H         1 UNK         0.1150 
    138 H138        2.9645  -16.7795  -48.4055 H         1 UNK         0.1150 
    139 H139        2.5067  -19.4332  -50.9912 H         1 UNK         0.0800 
    140 H140        3.6942  -18.6328  -49.9972 H         1 UNK         0.0800 
    141 H141        0.5470  -20.8482  -50.0782 H         1 UNK         0.0800 
    142 H142       -0.0132  -19.7968  -48.7925 H         1 UNK         0.0800 
    143 H143        0.9466  -22.6715  -48.3772 H         1 UNK         0.0600 
    144 H144        0.3861  -20.6702  -46.4549 H         1 UNK         0.3000 
    145 H145       -0.4528  -22.8971  -43.7495 H         1 UNK         0.0600 
    146 H146        1.3298  -21.4761  -42.7430 H         1 UNK         0.0600 
    147 H147        2.0093  -22.6821  -43.8263 H         1 UNK         0.0600 
    148 H148        1.8859  -21.0094  -44.3483 H         1 UNK         0.0600 
    149 H149       -0.4251  -20.0423  -43.9608 H         1 UNK         0.3000 
    150 H150       -3.8770  -19.6505  -44.8012 H         1 UNK         0.0600 
    151 H151       -3.8294  -20.1125  -42.3362 H         1 UNK         0.0600 
    152 H152       -3.8700  -18.3893  -42.6776 H         1 UNK         0.0600 
    153 H153       -2.3600  -19.1532  -42.1846 H         1 UNK         0.0600 
    154 H154       -1.8871  -17.7365  -44.1537 H         1 UNK         0.3000 
    155 H155       -0.6464  -17.2947  -47.5130 H         1 UNK         0.0600 
    156 H156       -1.3130  -15.0336  -47.0223 H         1 UNK         0.0600 
    157 H157       -1.9358  -15.4684  -45.4350 H         1 UNK         0.0600 
    158 H158       -2.7939  -15.9654  -46.8673 H         1 UNK         0.0600 
    159 H159        0.3217  -16.1029  -45.1668 H         1 UNK         0.3000 
    160 H160        2.5591  -18.5704  -43.9833 H         1 UNK         0.0600 
    161 H161        4.2455  -16.7772  -44.4183 H         1 UNK         0.0600 
    162 H162        3.8664  -17.7142  -45.8552 H         1 UNK         0.0600 
    163 H163        3.1998  -16.1057  -45.6680 H         1 UNK         0.0600 
    164 H164        1.9172  -15.7561  -43.4608 H         1 UNK         0.3000 
    165 H165       -0.1435  -16.6999  -40.6102 H         1 UNK         0.0600 
    166 H166        2.3336  -14.9739  -41.1019 H         1 UNK         0.0600 
    167 H167        1.3063  -14.9600  -39.6724 H         1 UNK         0.0600 
    168 H168        2.2829  -16.3742  -40.0377 H         1 UNK         0.0600 
    169 H169        0.0931  -14.1428  -41.7735 H         1 UNK         0.3000 
    170 H170       -2.9305  -14.2326  -43.6810 H         1 UNK         0.0600 
    171 H171       -3.5040  -13.8507  -41.3271 H         1 UNK         0.0600 
    172 H172       -2.0584  -12.8883  -41.0750 H         1 UNK         0.0600 
    173 H173       -3.3236  -12.3146  -42.1597 H         1 UNK         0.0600 
    174 H174       -1.5050  -12.9935  -44.7847 H         1 UNK         0.3000 
    175 H175        0.3123  -12.0245  -45.4816 H         1 UNK         0.0600 
    176 H176        0.7947   -9.5922  -45.2973 H         1 UNK         0.0600 
    177 H177       -0.7944   -9.9434  -44.6363 H         1 UNK         0.0600 
    178 H178        0.5583   -9.6508  -43.5498 H         1 UNK         0.0600 
    179 H179        2.5671  -10.9858  -44.0870 H         1 UNK         0.3000 
    180 H180        4.4962  -11.9717  -43.9657 H         1 UNK         0.0600 
    181 H181        4.1351  -14.8299  -42.8863 H         1 UNK         0.0600 
    182 H182        3.8761  -13.3532  -41.9616 H         1 UNK         0.0600 
    183 H183        5.4845  -13.7578  -42.5268 H         1 UNK         0.0600 
    184 H184        4.2790  -14.0352  -45.9181 H         1 UNK         0.3000 
    185 H185        7.7055  -13.6442  -46.9144 H         1 UNK         0.0600 
    186 H186        7.4642  -16.0336  -47.4405 H         1 UNK         0.0600 
    187 H187        7.5427  -15.8382  -45.6978 H         1 UNK         0.0600 
    188 H188        5.9941  -16.1455  -46.4733 H         1 UNK         0.0600 
    189 H189        5.7521  -14.6643  -48.5144 H         1 UNK         0.3000 
    190 H190       -2.1454  -20.9700  -47.6281 H         1 UNK         0.3000 
    191 H191       -3.7420  -22.2465  -49.5676 H         1 UNK         0.0600 
    192 H192       -4.4518  -20.2348  -48.2736 H         1 UNK         0.0600 
    193 H193       -5.6409  -21.5207  -48.1351 H         1 UNK         0.0600 
    194 H194       -4.5413  -21.1914  -46.8003 H         1 UNK         0.0600 
    195 H195       -3.0300  -23.2206  -46.1725 H         1 UNK         0.3000 
    196 H196       -4.6178  -25.5701  -46.1461 H         1 UNK         0.0600 
    197 H197       -3.2470  -26.1486  -44.1317 H         1 UNK         0.0600 
    198 H198       -3.8165  -24.4876  -44.0804 H         1 UNK         0.0600 
    199 H199       -2.1405  -24.8312  -44.5018 H         1 UNK         0.0600 
    200 H200       -1.1287  -25.1138  -46.9259 H         1 UNK         0.3000 
    201 H201       -0.5008  -27.8299  -47.4060 H         1 UNK         0.0600 
    202 H202        1.2132  -26.0786  -47.0594 H         1 UNK         0.0600 
    203 H203        0.7485  -25.2797  -48.5600 H         1 UNK         0.0600 
    204 H204        1.4840  -26.8783  -48.6003 H         1 UNK         0.0600 
    205 H205       -1.8230  -25.3374  -49.5772 H         1 UNK         0.3000 
    206 H206       -1.9014  -27.0716  -51.9264 H         1 UNK         0.0600 
    207 H207       -1.5194  -24.6327  -52.1300 H         1 UNK         0.0600 
    208 H208       -3.0271  -25.0644  -52.9218 H         1 UNK         0.0600 
    209 H209       -3.0538  -24.3035  -51.3329 H         1 UNK         0.0600 
    210 H210       -3.7247  -27.1414  -49.1530 H         1 UNK         0.3000 
    211 H211       -5.6877  -27.8835  -48.4845 H         1 UNK         0.0600 
    212 H212       -5.7955  -29.3891  -51.1525 H         1 UNK         0.0600 
    213 H213       -6.6744  -29.8014  -49.6857 H         1 UNK         0.0600 
    214 H214       -4.9239  -29.9273  -49.7172 H         1 UNK         0.0600 
    215 H215       -5.7163  -25.3453  -49.7260 H         1 UNK         0.3000 
    216 H216       -6.9370  -23.6859  -50.4382 H         1 UNK         0.0600 
    217 H217       -8.4767  -24.4068  -48.6013 H         1 UNK         0.0600 
    218 H218       -9.4110  -25.3578  -49.7560 H         1 UNK         0.0600 
    219 H219       -9.3390  -23.6082  -49.9044 H         1 UNK         0.0600 
    220 H220       -6.4839  -26.1475  -52.3946 H         1 UNK         0.3000 
    221 H221       -8.4379  -25.6100  -54.5050 H         1 UNK         0.0600 
    222 H222       -5.8417  -27.2386  -54.5419 H         1 UNK         0.0600 
    223 H223       -7.4360  -27.8814  -54.1482 H         1 UNK         0.0600 
    224 H224       -7.1075  -27.2655  -55.7613 H         1 UNK         0.0600 
    225 H225       -5.4890  -24.2072  -53.4235 H         1 UNK         0.3000 
    226 H226       -5.4696  -22.1819  -55.4418 H         1 UNK         0.0600 
    227 H227       -4.0529  -23.9370  -56.5971 H         1 UNK         0.0600 
    228 H228       -3.0799  -22.5569  -56.1247 H         1 UNK         0.0600 
    229 H229       -3.0180  -24.0366  -55.1752 H         1 UNK         0.0600 
    230 H230       -3.5271  -20.6801  -54.8010 H         1 UNK         0.3000 
    231 H231       -2.5954  -19.2763  -53.3578 H         1 UNK         0.0600 
    232 H232       -1.0759  -21.2488  -53.0842 H         1 UNK         0.0600 
    233 H233       -2.0241  -21.7887  -51.6990 H         1 UNK         0.0600 
    234 H234       -1.1441  -20.2695  -51.6294 H         1 UNK         0.0600 
    235 H235       -5.4401  -19.5755  -52.9887 H         1 UNK         0.3000 
    236 H236       -6.1043  -19.6199  -50.1902 H         1 UNK         0.0600 
    237 H237       -8.4009  -19.2269  -51.0380 H         1 UNK         0.0600 
    238 H238       -7.7733  -18.8948  -52.6490 H         1 UNK         0.0600 
    239 H239       -7.6085  -20.5037  -51.9443 H         1 UNK         0.0600 
    240 H240       -4.2413  -17.7814  -50.1401 H         1 UNK         0.3000 
    241 H241       -5.2938  -15.0536  -50.2424 H         1 UNK         0.0600 
    242 H242       -5.6858  -17.5831  -47.8605 H         1 UNK         0.3800 
    243 H243       -6.1700  -16.5149  -46.5708 H         1 UNK         0.3800 
    244 H244       -3.0849  -14.5149  -49.0254 H         1 UNK         0.0800 
    245 H245       -2.6887  -16.2105  -49.1592 H         1 UNK         0.0800 
    246 H246       -1.9961  -17.3798  -51.4162 H         1 UNK         0.0800 
    247 H247       -1.1033  -16.4152  -52.5624 H         1 UNK         0.0800 
@<TRIPOS>BOND
     1    1    2 1    
     2    1  127 1    
     3    1  128 1    
     4    1  129 1    
     5    2    3 2    
     6    2    4 am   BACKBONE|DICT|INTERRES
     7    4    5 1    
     8    4  130 1    
     9    5    6 1    
    10    5   65 1    
    11    5  131 1    
    12    6    7 1    
    13    6  132 1    
    14    6  133 1    
    15    7    8 1    
    16    8    9 1    
    17    8  134 1    
    18    8  135 1    
    19    9   10 ar   
    20    9   14 ar   
    21   10   11 ar   
    22   10  136 1    
    23   11   12 ar   
    24   11  126 1    
    25   12   13 ar   
    26   12  137 1    
    27   13   14 ar   
    28   13   15 1    
    29   14  138 1    
    30   15   16 1    
    31   15  139 1    
    32   15  140 1    
    33   16   17 1    
    34   17   18 1    
    35   17  141 1    
    36   17  142 1    
    37   18   19 1    
    38   18   67 1    
    39   18  143 1    
    40   19   20 am   BACKBONE|DICT|INTERRES
    41   19  144 1    
    42   20   21 2    
    43   20   22 1    
    44   22   23 1    
    45   22   24 1    
    46   22  145 1    
    47   23  146 1    
    48   23  147 1    
    49   23  148 1    
    50   24   25 am   BACKBONE|DICT|INTERRES
    51   24  149 1    
    52   25   26 2    
    53   25   27 1    
    54   27   28 1    
    55   27   29 1    
    56   27  150 1    
    57   28  151 1    
    58   28  152 1    
    59   28  153 1    
    60   29   30 am   BACKBONE|DICT|INTERRES
    61   29  154 1    
    62   30   31 2    
    63   30   32 1    
    64   32   33 1    
    65   32   34 1    
    66   32  155 1    
    67   33  156 1    
    68   33  157 1    
    69   33  158 1    
    70   34   35 am   BACKBONE|DICT|INTERRES
    71   34  159 1    
    72   35   36 2    
    73   35   37 1    
    74   37   38 1    
    75   37   39 1    
    76   37  160 1    
    77   38  161 1    
    78   38  162 1    
    79   38  163 1    
    80   39   40 am   BACKBONE|DICT|INTERRES
    81   39  164 1    
    82   40   41 2    
    83   40   42 1    
    84   42   43 1    
    85   42   44 1    
    86   42  165 1    
    87   43  166 1    
    88   43  167 1    
    89   43  168 1    
    90   44   45 am   BACKBONE|DICT|INTERRES
    91   44  169 1    
    92   45   46 2    
    93   45   47 1    
    94   47   48 1    
    95   47   49 1    
    96   47  170 1    
    97   48  171 1    
    98   48  172 1    
    99   48  173 1    
   100   49   50 am   BACKBONE|DICT|INTERRES
   101   49  174 1    
   102   50   51 2    
   103   50   52 1    
   104   52   53 1    
   105   52   54 1    
   106   52  175 1    
   107   53  176 1    
   108   53  177 1    
   109   53  178 1    
   110   54   55 am   BACKBONE|DICT|INTERRES
   111   54  179 1    
   112   55   56 2    
   113   55   57 1    
   114   57   58 1    
   115   57   59 1    
   116   57  180 1    
   117   58  181 1    
   118   58  182 1    
   119   58  183 1    
   120   59   60 am   BACKBONE|DICT|INTERRES
   121   59  184 1    
   122   60   61 2    
   123   60   62 1    
   124   62   63 1    
   125   62   64 1    
   126   62  185 1    
   127   63  186 1    
   128   63  187 1    
   129   63  188 1    
   130   64   65 am   BACKBONE|DICT|INTERRES
   131   64  189 1    
   132   65   66 2    
   133   67   68 2    
   134   67   69 am   BACKBONE|DICT|INTERRES
   135   69   70 1    
   136   69  190 1    
   137   70   71 1    
   138   70   72 1    
   139   70  191 1    
   140   71  192 1    
   141   71  193 1    
   142   71  194 1    
   143   72   73 2    
   144   72   74 am   BACKBONE|DICT|INTERRES
   145   74   75 1    
   146   74  195 1    
   147   75   76 1    
   148   75   77 1    
   149   75  196 1    
   150   76  197 1    
   151   76  198 1    
   152   76  199 1    
   153   77   78 2    
   154   77   79 am   BACKBONE|DICT|INTERRES
   155   79   80 1    
   156   79  200 1    
   157   80   81 1    
   158   80   82 1    
   159   80  201 1    
   160   81  202 1    
   161   81  203 1    
   162   81  204 1    
   163   82   83 2    
   164   82   84 am   BACKBONE|DICT|INTERRES
   165   84   85 1    
   166   84  205 1    
   167   85   86 1    
   168   85   87 1    
   169   85  206 1    
   170   86  207 1    
   171   86  208 1    
   172   86  209 1    
   173   87   88 2    
   174   87   89 am   BACKBONE|DICT|INTERRES
   175   89   90 1    
   176   89  210 1    
   177   90   91 1    
   178   90   92 1    
   179   90  211 1    
   180   91  212 1    
   181   91  213 1    
   182   91  214 1    
   183   92   93 2    
   184   92   94 am   BACKBONE|DICT|INTERRES
   185   94   95 1    
   186   94  215 1    
   187   95   96 1    
   188   95   97 1    
   189   95  216 1    
   190   96  217 1    
   191   96  218 1    
   192   96  219 1    
   193   97   98 2    
   194   97   99 am   BACKBONE|DICT|INTERRES
   195   99  100 1    
   196   99  220 1    
   197  100  101 1    
   198  100  102 1    
   199  100  221 1    
   200  101  222 1    
   201  101  223 1    
   202  101  224 1    
   203  102  103 2    
   204  102  104 am   BACKBONE|DICT|INTERRES
   205  104  105 1    
   206  104  225 1    
   207  105  106 1    
   208  105  107 1    
   209  105  226 1    
   210  106  227 1    
   211  106  228 1    
   212  106  229 1    
   213  107  108 2    
   214  107  109 am   BACKBONE|DICT|INTERRES
   215  109  110 1    
   216  109  230 1    
   217  110  111 1    
   218  110  112 1    
   219  110  231 1    
   220  111  232 1    
   221  111  233 1    
   222  111  234 1    
   223  112  113 2    
   224  112  114 am   BACKBONE|DICT|INTERRES
   225  114  115 1    
   226  114  235 1    
   227  115  116 1    
   228  115  117 1    
   229  115  236 1    
   230  116  237 1    
   231  116  238 1    
   232  116  239 1    
   233  117  118 2    
   234  117  119 am   BACKBONE|DICT|INTERRES
   235  119  120 1    
   236  119  240 1    
   237  120  121 1    
   238  120  124 1    
   239  120  241 1    
   240  121  122 am   BACKBONE|DICT|INTERRES
   241  121  123 2    
   242  122  242 1    
   243  122  243 1    
   244  124  125 1    
   245  124  244 1    
   246  124  245 1    
   247  125  126 1    
   248  126  246 1    
   249  126  247 1    
@<TRIPOS>SUBSTRUCTURE
     1 UNK         1 GROUP             0       ****    0 ROOT    
