@<TRIPOS>MOLECULE
3R540
247   249    1
SMALL
USER_CHARGES


@<TRIPOS>ATOM
      1 CA         -1.9790   -9.8951  -49.4800 C.3       0 UNK        -0.1800 
      2 C          -0.6048  -10.1669  -50.0759 C.2       0 UNK         0.5000 
      3 O          -0.0446   -9.2957  -50.7409 O.2       0 UNK        -0.5000 
      4 N          -0.0689  -11.3718  -49.8416 N.am      1 UNK        -0.5000 
      5 CA          1.2618  -11.8109  -50.2787 C.3       1 UNK         0.1400 
      6 C6          1.4760  -13.3342  -50.0792 C.3       23 UNK        -0.0398 
      7 S7          2.8088  -14.0003  -51.1355 S.3       23 UNK        -0.2404 
      8 C8          1.8962  -15.1254  -52.2476 C.3       23 UNK        -0.0205 
      9 C9          1.3047  -16.3519  -51.5547 C.ar      23 UNK        -0.0193 
     10 C10         0.0696  -16.8536  -51.9777 C.ar      23 UNK        -0.1150 
     11 C11        -0.4871  -17.9880  -51.3777 C.ar      23 UNK        -0.0193 
     12 C12         0.2009  -18.6207  -50.3379 C.ar      23 UNK        -0.1150 
     13 C13         1.4414  -18.1375  -49.9105 C.ar      23 UNK        -0.0193 
     14 C14         1.9892  -17.0105  -50.5269 C.ar      23 UNK        -0.1150 
     15 C15         2.2107  -18.8430  -48.8042 C.3       23 UNK        -0.0205 
     16 S16         1.9379  -18.0879  -47.1656 S.3       23 UNK        -0.2404 
     17 C17         0.1621  -18.3853  -46.8598 C.3       23 UNK        -0.0398 
     18 CA         -0.1879  -19.8822  -46.6896 C.3       11 UNK         0.1400 
     19 N           0.4069  -20.4918  -45.4968 N.am      11 UNK        -0.5000 
     20 C           0.4712  -21.8147  -45.2903 C.2       10 UNK         0.5000 
     21 O           0.0623  -22.6468  -46.0998 O.2       10 UNK        -0.5000 
     22 CA          1.0395  -22.2934  -43.9418 C.3       10 UNK         0.1400 
     23 CB          2.5745  -22.2448  -43.9402 C.3       10 UNK        -0.1800 
     24 N           0.5133  -21.5317  -42.8088 N.am      10 UNK        -0.5000 
     25 C          -0.7759  -21.5194  -42.4398 C.2       9 UNK         0.5000 
     26 O          -1.6478  -22.1976  -42.9844 O.2       9 UNK        -0.5000 
     27 CA         -1.1676  -20.5436  -41.3125 C.3       9 UNK         0.1400 
     28 CB         -0.8452  -21.1322  -39.9312 C.3       9 UNK        -0.1800 
     29 N          -0.5259  -19.2352  -41.4563 N.am      9 UNK        -0.5000 
     30 C          -0.7269  -18.4100  -42.4937 C.2       8 UNK         0.5000 
     31 O          -1.5216  -18.6352  -43.4039 O.2       8 UNK        -0.5000 
     32 CA          0.1435  -17.1466  -42.5606 C.3       8 UNK         0.1400 
     33 CB         -0.4742  -16.0212  -41.7204 C.3       8 UNK        -0.1800 
     34 N           1.5304  -17.4055  -42.1621 N.am      8 UNK        -0.5000 
     35 C           2.3611  -18.1982  -42.8571 C.2       7 UNK         0.5000 
     36 O           2.0557  -18.7255  -43.9238 O.2       7 UNK        -0.5000 
     37 CA          3.7297  -18.5159  -42.2312 C.3       7 UNK         0.1400 
     38 CB          4.7737  -17.4420  -42.5691 C.3       7 UNK        -0.1800 
     39 N           3.6341  -18.6921  -40.7832 N.am      7 UNK        -0.5000 
     40 C           3.0570  -19.7574  -40.2083 C.2       6 UNK         0.5000 
     41 O           2.6013  -20.7074  -40.8449 O.2       6 UNK        -0.5000 
     42 CA          2.9289  -19.7495  -38.6737 C.3       6 UNK         0.1400 
     43 CB          4.1471  -20.4269  -38.0292 C.3       6 UNK        -0.1800 
     44 N           2.7662  -18.4100  -38.1058 N.am      6 UNK        -0.5000 
     45 C           1.7316  -17.5925  -38.3442 C.2       5 UNK         0.5000 
     46 O           0.7906  -17.8929  -39.0816 O.2       5 UNK        -0.5000 
     47 CA          1.7492  -16.2046  -37.6631 C.3       5 UNK         0.1400 
     48 CB          2.9895  -15.9545  -36.7749 C.3       5 UNK        -0.1800 
     49 N           1.5927  -15.0970  -38.6142 N.am      5 UNK        -0.5000 
     50 C           2.3379  -14.8560  -39.7016 C.2       4 UNK         0.5000 
     51 O           3.2364  -15.6001  -40.1029 O.2       4 UNK        -0.5000 
     52 CA          2.0320  -13.5551  -40.4596 C.3       4 UNK         0.1400 
     53 CB          2.6715  -12.3472  -39.7546 C.3       4 UNK        -0.1800 
     54 N           2.5557  -13.6481  -41.8212 N.am      4 UNK        -0.5000 
     55 C           1.9553  -13.1681  -42.9151 C.2       3 UNK         0.5000 
     56 O           0.8754  -12.5701  -42.8978 O.2       3 UNK        -0.5000 
     57 CA          2.6743  -13.4077  -44.2534 C.3       3 UNK         0.1400 
     58 CB          2.6364  -14.8914  -44.6566 C.3       3 UNK        -0.1800 
     59 N           2.0230  -12.6243  -45.2990 N.am      3 UNK        -0.5000 
     60 C           2.6421  -11.9594  -46.2775 C.2       2 UNK         0.5000 
     61 O           3.8676  -11.9276  -46.4186 O.2       2 UNK        -0.5000 
     62 CA          1.7260  -11.2082  -47.2601 C.3       2 UNK         0.1400 
     63 CB          1.0399  -10.0174  -46.5683 C.3       2 UNK        -0.1800 
     64 N           2.5164  -10.6992  -48.3819 N.am      2 UNK        -0.5000 
     65 C           2.4255  -10.9634  -49.6950 C.2       1 UNK         0.5000 
     66 O           3.2617  -10.5095  -50.4758 O.2       1 UNK        -0.5000 
     67 C          -1.7084  -20.1137  -46.7778 C.2       11 UNK         0.5000 
     68 O          -2.2069  -20.3331  -47.8795 O.2       11 UNK        -0.5000 
     69 N          -2.4161  -20.1129  -45.6398 N.am      12 UNK        -0.5000 
     70 CA         -3.8365  -20.4590  -45.5568 C.3       12 UNK         0.1400 
     71 CB         -4.3762  -20.1350  -44.1560 C.3       12 UNK        -0.1800 
     72 C          -4.1028  -21.9301  -45.9236 C.2       12 UNK         0.5000 
     73 O          -5.0535  -22.2084  -46.6544 O.2       12 UNK        -0.5000 
     74 N          -3.2360  -22.8395  -45.4546 N.am      13 UNK        -0.5000 
     75 CA         -3.2572  -24.2571  -45.8184 C.3       13 UNK         0.1400 
     76 CB         -2.2795  -25.0393  -44.9289 C.3       13 UNK        -0.1800 
     77 C          -2.9563  -24.4824  -47.3122 C.2       13 UNK         0.5000 
     78 O          -3.6478  -25.2723  -47.9556 O.2       13 UNK        -0.5000 
     79 N          -1.9682  -23.7513  -47.8494 N.am      14 UNK        -0.5000 
     80 CA         -1.6303  -23.7360  -49.2737 C.3       14 UNK         0.1400 
     81 CB         -0.3481  -22.9231  -49.5062 C.3       14 UNK        -0.1800 
     82 C          -2.7825  -23.2039  -50.1434 C.2       14 UNK         0.5000 
     83 O          -3.1045  -23.8240  -51.1554 O.2       14 UNK        -0.5000 
     84 N          -3.4161  -22.1052  -49.7087 N.am      15 UNK        -0.5000 
     85 CA         -4.5896  -21.5091  -50.3464 C.3       15 UNK         0.1400 
     86 CB         -4.9544  -20.1886  -49.6519 C.3       15 UNK        -0.1800 
     87 C          -5.7987  -22.4564  -50.3687 C.2       15 UNK         0.5000 
     88 O          -6.4678  -22.5501  -51.3949 O.2       15 UNK        -0.5000 
     89 N          -6.0394  -23.1684  -49.2597 N.am      16 UNK        -0.5000 
     90 CA         -7.0873  -24.1837  -49.1500 C.3       16 UNK         0.1400 
     91 CB         -7.2173  -24.6306  -47.6860 C.3       16 UNK        -0.1800 
     92 C          -6.8500  -25.3940  -50.0744 C.2       16 UNK         0.5000 
     93 O          -7.8091  -25.9190  -50.6410 O.2       16 UNK        -0.5000 
     94 N          -5.5835  -25.8069  -50.2152 N.am      17 UNK        -0.5000 
     95 CA         -5.1655  -26.9180  -51.0664 C.3       17 UNK         0.1400 
     96 CB         -3.7673  -27.3909  -50.6370 C.3       17 UNK        -0.1800 
     97 C          -5.1909  -26.5662  -52.5653 C.2       17 UNK         0.5000 
     98 O          -5.7759  -27.3114  -53.3527 O.2       17 UNK        -0.5000 
     99 N          -4.5364  -25.4585  -52.9378 N.am      18 UNK        -0.5000 
    100 CA        -4.3329  -25.0518  -54.3300 C.3       18 UNK         0.1400 
    101 CB        -3.0492  -24.2124  -54.4235 C.3       18 UNK        -0.1800 
    102 C         -5.5237  -24.2880  -54.9349 C.2       18 UNK         0.5000 
    103 O         -5.6510  -24.2585  -56.1599 O.2       18 UNK        -0.5000 
    104 N         -6.3650  -23.6755  -54.0891 N.am      19 UNK        -0.5000 
    105 CA        -7.5111  -22.8387  -54.4544 C.3       19 UNK         0.1400 
    106 CB        -8.6382  -23.7023  -55.0664 C.3       19 UNK        -0.1800 
    107 C         -7.0719  -21.6409  -55.3240 C.2       19 UNK         0.5000 
    108 O         -6.1567  -20.9122  -54.9334 O.2       19 UNK        -0.5000 
    109 N         -7.6986  -21.4726  -56.4955 N.am      20 UNK        -0.5000 
    110 CA        -7.4290  -20.4075  -57.4642 C.3       20 UNK         0.1400 
    111 CB        -8.4946  -20.4687  -58.5699 C.3       20 UNK        -0.1800 
    112 C         -6.0129  -20.4351  -58.0775 C.2       20 UNK         0.5000 
    113 O         -5.5860  -19.4224  -58.6334 O.2       20 UNK        -0.5000 
    114 N         -5.3065  -21.5707  -57.9718 N.am      21 UNK        -0.5000 
    115 CA        -3.9244  -21.7199  -58.4297 C.3       21 UNK         0.1400 
    116 CB        -3.6226  -23.2082  -58.6656 C.3       21 UNK        -0.1800 
    117 C         -2.8911  -21.0956  -57.4689 C.2       21 UNK         0.5000 
    118 O         -1.7390  -20.9278  -57.8722 O.2       21 UNK        -0.5000 
    119 N         -3.2920  -20.7704  -56.2299 N.am      22 UNK        -0.5000 
    120 CA        -2.4411  -20.0801  -55.2488 C.3       22 UNK         0.1400 
    121 C         -2.1627  -18.6011  -55.6419 C.2       22 UNK         0.5000 
    122 N         -0.9443  -18.1159  -55.4460 N.am      22 UNK        -0.7600 
    123 O         -3.0521  -17.8797  -56.0876 O.2       22 UNK        -0.5000 
    124 C124       -3.0193  -20.1842  -53.8133 C.3       23 UNK        -0.0398 
    125 S125       -1.6920  -20.1937  -52.5579 S.3       23 UNK        -0.2404 
    126 C126       -1.8334  -18.5206  -51.8496 C.3       23 UNK        -0.0205 
    127 H127       -2.3529  -10.7488  -48.9144 H         1 UNK         0.0600 
    128 H128       -2.6942   -9.6720  -50.2717 H         1 UNK         0.0600 
    129 H129       -1.9330   -9.0376  -48.8087 H         1 UNK         0.0600 
    130 H130       -0.5993  -12.0417  -49.3040 H         1 UNK         0.3000 
    131 H131        1.2705  -11.6355  -51.3571 H         1 UNK         0.0600 
    132 H132        1.7058  -13.5778  -49.0416 H         1 UNK         0.0800 
    133 H133        0.5540  -13.8698  -50.3093 H         1 UNK         0.0800 
    134 H134        1.1142  -14.5555  -52.7521 H         1 UNK         0.0800 
    135 H135        2.5775  -15.4695  -53.0266 H         1 UNK         0.0800 
    136 H136       -0.4589  -16.3619  -52.7825 H         1 UNK         0.1150 
    137 H137       -0.2293  -19.4961  -49.8725 H         1 UNK         0.1150 
    138 H138        2.9540  -16.6486  -50.2010 H         1 UNK         0.1150 
    139 H139        1.9698  -19.9056  -48.7848 H         1 UNK         0.0800 
    140 H140        3.2781  -18.7953  -49.0248 H         1 UNK         0.0800 
    141 H141       -0.4005  -17.9387  -47.6811 H         1 UNK         0.0800 
    142 H142       -0.1259  -17.8306  -45.9656 H         1 UNK         0.0800 
    143 H143        0.2261  -20.4161  -47.5435 H         1 UNK         0.0600 
    144 H144        0.8314  -19.8598  -44.8222 H         1 UNK         0.3000 
    145 H145        0.7375  -23.3343  -43.8079 H         1 UNK         0.0600 
    146 H146        2.9802  -22.6313  -43.0051 H         1 UNK         0.0600 
    147 H147        2.9832  -22.8520  -44.7488 H         1 UNK         0.0600 
    148 H148        2.9488  -21.2302  -44.0727 H         1 UNK         0.0600 
    149 H149        1.1811  -20.9840  -42.2767 H         1 UNK         0.3000 
    150 H150       -2.2470  -20.3889  -41.3687 H         1 UNK         0.0600 
    151 H151       -1.3768  -22.0719  -39.7768 H         1 UNK         0.0600 
    152 H152       -1.1444  -20.4529  -39.1327 H         1 UNK         0.0600 
    153 H153        0.2185  -21.3369  -39.8156 H         1 UNK         0.0600 
    154 H154        0.1101  -18.9445  -40.7214 H         1 UNK         0.3000 
    155 H155        0.1507  -16.8158  -43.6010 H         1 UNK         0.0600 
    156 H156       -0.4257  -16.2283  -40.6523 H         1 UNK         0.0600 
    157 H157       -1.5248  -15.8768  -41.9759 H         1 UNK         0.0600 
    158 H158        0.0261  -15.0757  -41.9088 H         1 UNK         0.0600 
    159 H159        1.8378  -17.0425  -41.2698 H         1 UNK         0.3000 
    160 H160        4.0777  -19.4558  -42.6652 H         1 UNK         0.0600 
    161 H161        4.8787  -17.3305  -43.6491 H         1 UNK         0.0600 
    162 H162        5.7539  -17.7103  -42.1749 H         1 UNK         0.0600 
    163 H163        4.5073  -16.4676  -42.1632 H         1 UNK         0.0600 
    164 H164        3.9349  -17.9188  -40.2048 H         1 UNK         0.3000 
    165 H165        2.0405  -20.3294  -38.4158 H         1 UNK         0.0600 
    166 H166        4.0290  -20.5065  -36.9484 H         1 UNK         0.0600 
    167 H167        4.2809  -21.4384  -38.4153 H         1 UNK         0.0600 
    168 H168        5.0668  -19.8752  -38.2280 H         1 UNK         0.0600 
    169 H169        3.5047  -18.0842  -37.4994 H         1 UNK         0.3000 
    170 H170        0.8713  -16.1810  -37.0161 H         1 UNK         0.0600 
    171 H171        3.0730  -16.7031  -35.9861 H         1 UNK         0.0600 
    172 H172        3.9157  -15.9649  -37.3511 H         1 UNK         0.0600 
    173 H173        2.9230  -14.9844  -36.2821 H         1 UNK         0.0600 
    174 H174        0.8539  -14.4454  -38.3897 H         1 UNK         0.3000 
    175 H175        0.9483  -13.4233  -40.4786 H         1 UNK         0.0600 
    176 H176        2.3004  -12.2434  -38.7343 H         1 UNK         0.0600 
    177 H177        2.4417  -11.4192  -40.2785 H         1 UNK         0.0600 
    178 H178        3.7569  -12.4419  -39.7021 H         1 UNK         0.0600 
    179 H179        3.4064  -14.1893  -41.9035 H         1 UNK         0.3000 
    180 H180        3.7121  -13.0902  -44.1317 H         1 UNK         0.0600 
    181 H181        1.6143  -15.2517  -44.7757 H         1 UNK         0.0600 
    182 H182        3.1201  -15.5137  -43.9069 H         1 UNK         0.0600 
    183 H183        3.1588  -15.0588  -45.5987 H         1 UNK         0.0600 
    184 H184        1.0230  -12.5267  -45.1797 H         1 UNK         0.3000 
    185 H185        0.9659  -11.9161  -47.5830 H         1 UNK         0.0600 
    186 H186        0.4026  -10.3468  -45.7469 H         1 UNK         0.0600 
    187 H187        1.7684   -9.3168  -46.1581 H         1 UNK         0.0600 
    188 H188        0.4071   -9.4670  -47.2643 H         1 UNK         0.0600 
    189 H189        3.3324  -10.1856  -48.0815 H         1 UNK         0.3000 
    190 H190       -1.9607  -19.8418  -44.7719 H         1 UNK         0.3000 
    191 H191       -4.3735  -19.8364  -46.2752 H         1 UNK         0.0600 
    192 H192       -5.4391  -20.3683  -44.0843 H         1 UNK         0.0600 
    193 H193       -3.8621  -20.7048  -43.3823 H         1 UNK         0.0600 
    194 H194       -4.2594  -19.0762  -43.9246 H         1 UNK         0.0600 
    195 H195       -2.5045  -22.5386  -44.8189 H         1 UNK         0.3000 
    196 H196       -4.2631  -24.6349  -45.6240 H         1 UNK         0.0600 
    197 H197       -2.3109  -26.1048  -45.1597 H         1 UNK         0.0600 
    198 H198       -2.5312  -24.9264  -43.8742 H         1 UNK         0.0600 
    199 H199       -1.2511  -24.7051  -45.0629 H         1 UNK         0.0600 
    200 H200       -1.4028  -23.1702  -47.2367 H         1 UNK         0.3000 
    201 H201       -1.4346  -24.7669  -49.5758 H         1 UNK         0.0600 
    202 H202        0.4793  -23.3073  -48.9096 H         1 UNK         0.0600 
    203 H203       -0.4854  -21.8730  -49.2541 H         1 UNK         0.0600 
    204 H204       -0.0458  -22.9673  -50.5533 H         1 UNK         0.0600 
    205 H205       -3.0467  -21.6152  -48.8972 H         1 UNK         0.3000 
    206 H206       -4.3251  -21.2875  -51.3808 H         1 UNK         0.0600 
    207 H207       -5.2495  -20.3463  -48.6148 H         1 UNK         0.0600 
    208 H208       -4.1174  -19.4927  -49.6545 H         1 UNK         0.0600 
    209 H209       -5.7866  -19.6993  -50.1593 H         1 UNK         0.0600 
    210 H210       -5.4782  -22.9940  -48.4314 H         1 UNK         0.3000 
    211 H211       -8.0311  -23.7216  -49.4469 H         1 UNK         0.0600 
    212 H212       -6.2951  -25.0807  -47.3181 H         1 UNK         0.0600 
    213 H213       -8.0120  -25.3688  -47.5719 H         1 UNK         0.0600 
    214 H214       -7.4593  -23.7885  -47.0373 H         1 UNK         0.0600 
    215 H215       -4.8588  -25.3474  -49.6746 H         1 UNK         0.3000 
    216 H216       -5.8577  -27.7480  -50.9088 H         1 UNK         0.0600 
    217 H217       -3.4307  -28.2266  -51.2516 H         1 UNK         0.0600 
    218 H218       -3.7685  -27.7285  -49.6004 H         1 UNK         0.0600 
    219 H219       -3.0253  -26.5967  -50.7259 H         1 UNK         0.0600 
    220 H220       -4.0723  -24.8918  -52.2286 H         1 UNK         0.3000 
    221 H221       -4.1849  -25.9462  -54.9390 H         1 UNK         0.0600 
    222 H222       -2.8631  -23.8805  -55.4451 H         1 UNK         0.0600 
    223 H223       -2.1801  -24.7882  -54.1054 H         1 UNK         0.0600 
    224 H224       -3.1048  -23.3253  -53.7951 H         1 UNK         0.0600 
    225 H225       -6.1555  -23.6918  -53.0974 H         1 UNK         0.3000 
    226 H226       -7.8993  -22.4101  -53.5308 H         1 UNK         0.0600 
    227 H227       -9.5396  -23.1127  -55.2378 H         1 UNK         0.0600 
    228 H228       -8.3470  -24.1546  -56.0149 H         1 UNK         0.0600 
    229 H229       -8.9135  -24.5114  -54.3896 H         1 UNK         0.0600 
    230 H230       -8.4164  -22.1356  -56.7497 H         1 UNK         0.3000 
    231 H231       -7.5325  -19.4538  -56.9427 H         1 UNK         0.0600 
    232 H232       -9.4982  -20.3577  -58.1588 H         1 UNK         0.0600 
    233 H233       -8.4552  -21.4137  -59.1132 H         1 UNK         0.0600 
    234 H234       -8.3532  -19.6668  -59.2959 H         1 UNK         0.0600 
    235 H235       -5.7130  -22.3628  -57.4890 H         1 UNK         0.3000 
    236 H236       -3.8220  -21.2084  -59.3892 H         1 UNK         0.0600 
    237 H237       -4.3482  -23.6576  -59.3437 H         1 UNK         0.0600 
    238 H238       -2.6366  -23.3382  -59.1133 H         1 UNK         0.0600 
    239 H239       -3.6330  -23.7767  -57.7368 H         1 UNK         0.0600 
    240 H240       -4.2658  -20.8899  -55.9774 H         1 UNK         0.3000 
    241 H241       -1.4871  -20.6121  -55.2632 H         1 UNK         0.0600 
    242 H242       -0.7530  -17.1579  -55.6929 H         1 UNK         0.3800 
    243 H243       -0.2079  -18.6855  -55.0593 H         1 UNK         0.3800 
    244 H244       -3.5668  -21.1187  -53.6963 H         1 UNK         0.0800 
    245 H245       -3.7510  -19.4003  -53.6091 H         1 UNK         0.0800 
    246 H246       -2.5261  -18.5417  -51.0092 H         1 UNK         0.0800 
    247 H247       -2.2647  -17.8432  -52.5880 H         1 UNK         0.0800 
@<TRIPOS>BOND
     1    1    2 1    
     2    1  127 1    
     3    1  128 1    
     4    1  129 1    
     5    2    3 2    
     6    2    4 am   BACKBONE|DICT|INTERRES
     7    4    5 1    
     8    4  130 1    
     9    5    6 1    
    10    5   65 1    
    11    5  131 1    
    12    6    7 1    
    13    6  132 1    
    14    6  133 1    
    15    7    8 1    
    16    8    9 1    
    17    8  134 1    
    18    8  135 1    
    19    9   10 ar   
    20    9   14 ar   
    21   10   11 ar   
    22   10  136 1    
    23   11   12 ar   
    24   11  126 1    
    25   12   13 ar   
    26   12  137 1    
    27   13   14 ar   
    28   13   15 1    
    29   14  138 1    
    30   15   16 1    
    31   15  139 1    
    32   15  140 1    
    33   16   17 1    
    34   17   18 1    
    35   17  141 1    
    36   17  142 1    
    37   18   19 1    
    38   18   67 1    
    39   18  143 1    
    40   19   20 am   BACKBONE|DICT|INTERRES
    41   19  144 1    
    42   20   21 2    
    43   20   22 1    
    44   22   23 1    
    45   22   24 1    
    46   22  145 1    
    47   23  146 1    
    48   23  147 1    
    49   23  148 1    
    50   24   25 am   BACKBONE|DICT|INTERRES
    51   24  149 1    
    52   25   26 2    
    53   25   27 1    
    54   27   28 1    
    55   27   29 1    
    56   27  150 1    
    57   28  151 1    
    58   28  152 1    
    59   28  153 1    
    60   29   30 am   BACKBONE|DICT|INTERRES
    61   29  154 1    
    62   30   31 2    
    63   30   32 1    
    64   32   33 1    
    65   32   34 1    
    66   32  155 1    
    67   33  156 1    
    68   33  157 1    
    69   33  158 1    
    70   34   35 am   BACKBONE|DICT|INTERRES
    71   34  159 1    
    72   35   36 2    
    73   35   37 1    
    74   37   38 1    
    75   37   39 1    
    76   37  160 1    
    77   38  161 1    
    78   38  162 1    
    79   38  163 1    
    80   39   40 am   BACKBONE|DICT|INTERRES
    81   39  164 1    
    82   40   41 2    
    83   40   42 1    
    84   42   43 1    
    85   42   44 1    
    86   42  165 1    
    87   43  166 1    
    88   43  167 1    
    89   43  168 1    
    90   44   45 am   BACKBONE|DICT|INTERRES
    91   44  169 1    
    92   45   46 2    
    93   45   47 1    
    94   47   48 1    
    95   47   49 1    
    96   47  170 1    
    97   48  171 1    
    98   48  172 1    
    99   48  173 1    
   100   49   50 am   BACKBONE|DICT|INTERRES
   101   49  174 1    
   102   50   51 2    
   103   50   52 1    
   104   52   53 1    
   105   52   54 1    
   106   52  175 1    
   107   53  176 1    
   108   53  177 1    
   109   53  178 1    
   110   54   55 am   BACKBONE|DICT|INTERRES
   111   54  179 1    
   112   55   56 2    
   113   55   57 1    
   114   57   58 1    
   115   57   59 1    
   116   57  180 1    
   117   58  181 1    
   118   58  182 1    
   119   58  183 1    
   120   59   60 am   BACKBONE|DICT|INTERRES
   121   59  184 1    
   122   60   61 2    
   123   60   62 1    
   124   62   63 1    
   125   62   64 1    
   126   62  185 1    
   127   63  186 1    
   128   63  187 1    
   129   63  188 1    
   130   64   65 am   BACKBONE|DICT|INTERRES
   131   64  189 1    
   132   65   66 2    
   133   67   68 2    
   134   67   69 am   BACKBONE|DICT|INTERRES
   135   69   70 1    
   136   69  190 1    
   137   70   71 1    
   138   70   72 1    
   139   70  191 1    
   140   71  192 1    
   141   71  193 1    
   142   71  194 1    
   143   72   73 2    
   144   72   74 am   BACKBONE|DICT|INTERRES
   145   74   75 1    
   146   74  195 1    
   147   75   76 1    
   148   75   77 1    
   149   75  196 1    
   150   76  197 1    
   151   76  198 1    
   152   76  199 1    
   153   77   78 2    
   154   77   79 am   BACKBONE|DICT|INTERRES
   155   79   80 1    
   156   79  200 1    
   157   80   81 1    
   158   80   82 1    
   159   80  201 1    
   160   81  202 1    
   161   81  203 1    
   162   81  204 1    
   163   82   83 2    
   164   82   84 am   BACKBONE|DICT|INTERRES
   165   84   85 1    
   166   84  205 1    
   167   85   86 1    
   168   85   87 1    
   169   85  206 1    
   170   86  207 1    
   171   86  208 1    
   172   86  209 1    
   173   87   88 2    
   174   87   89 am   BACKBONE|DICT|INTERRES
   175   89   90 1    
   176   89  210 1    
   177   90   91 1    
   178   90   92 1    
   179   90  211 1    
   180   91  212 1    
   181   91  213 1    
   182   91  214 1    
   183   92   93 2    
   184   92   94 am   BACKBONE|DICT|INTERRES
   185   94   95 1    
   186   94  215 1    
   187   95   96 1    
   188   95   97 1    
   189   95  216 1    
   190   96  217 1    
   191   96  218 1    
   192   96  219 1    
   193   97   98 2    
   194   97   99 am   BACKBONE|DICT|INTERRES
   195   99  100 1    
   196   99  220 1    
   197  100  101 1    
   198  100  102 1    
   199  100  221 1    
   200  101  222 1    
   201  101  223 1    
   202  101  224 1    
   203  102  103 2    
   204  102  104 am   BACKBONE|DICT|INTERRES
   205  104  105 1    
   206  104  225 1    
   207  105  106 1    
   208  105  107 1    
   209  105  226 1    
   210  106  227 1    
   211  106  228 1    
   212  106  229 1    
   213  107  108 2    
   214  107  109 am   BACKBONE|DICT|INTERRES
   215  109  110 1    
   216  109  230 1    
   217  110  111 1    
   218  110  112 1    
   219  110  231 1    
   220  111  232 1    
   221  111  233 1    
   222  111  234 1    
   223  112  113 2    
   224  112  114 am   BACKBONE|DICT|INTERRES
   225  114  115 1    
   226  114  235 1    
   227  115  116 1    
   228  115  117 1    
   229  115  236 1    
   230  116  237 1    
   231  116  238 1    
   232  116  239 1    
   233  117  118 2    
   234  117  119 am   BACKBONE|DICT|INTERRES
   235  119  120 1    
   236  119  240 1    
   237  120  121 1    
   238  120  124 1    
   239  120  241 1    
   240  121  122 am   BACKBONE|DICT|INTERRES
   241  121  123 2    
   242  122  242 1    
   243  122  243 1    
   244  124  125 1    
   245  124  244 1    
   246  124  245 1    
   247  125  126 1    
   248  126  246 1    
   249  126  247 1    
@<TRIPOS>SUBSTRUCTURE
     1 UNK         1 GROUP             0       ****    0 ROOT    
