@<TRIPOS>MOLECULE
3R540
247   249    1
SMALL
USER_CHARGES


@<TRIPOS>ATOM
      1 CA         -0.4237  -11.6974  -43.8211 C.3       0 UNK        -0.1800 
      2 C           0.1578  -11.3722  -45.1882 C.2       0 UNK         0.5000 
      3 O          -0.2990  -10.4369  -45.8455 O.2       0 UNK        -0.5000 
      4 N           1.1721  -12.1346  -45.6122 N.am      1 UNK        -0.5000 
      5 CA          1.9126  -11.9283  -46.8633 C.3       1 UNK         0.1400 
      6 C6          2.6629  -13.2049  -47.3129 C.3       23 UNK        -0.0398 
      7 S7          1.5421  -14.6222  -47.5550 S.3       23 UNK        -0.2404 
      8 C8          1.5088  -14.7525  -49.3671 C.3       23 UNK        -0.0205 
      9 C9          0.6576  -15.9303  -49.8139 C.ar      23 UNK        -0.0193 
     10 C10        -0.7084  -15.7613  -50.0568 C.ar      23 UNK        -0.1150 
     11 C11        -1.4981  -16.8435  -50.4568 C.ar      23 UNK        -0.0193 
     12 C12        -0.9067  -18.0967  -50.6381 C.ar      23 UNK        -0.1150 
     13 C13         0.4591  -18.2784  -50.3977 C.ar      23 UNK        -0.0193 
     14 C14         1.2348  -17.1921  -49.9824 C.ar      23 UNK        -0.1150 
     15 C15         1.1001  -19.6453  -50.5893 C.3       23 UNK        -0.0205 
     16 S16         1.1101  -20.6127  -49.0469 S.3       23 UNK        -0.2404 
     17 C17        -0.6644  -20.9767  -48.8615 C.3       23 UNK        -0.0398 
     18 CA         -0.9350  -22.1543  -47.8987 C.3       11 UNK         0.1400 
     19 N          -0.6030  -21.8504  -46.5067 N.am      11 UNK        -0.5000 
     20 C          -0.6225  -22.7418  -45.5050 C.2       10 UNK         0.5000 
     21 O          -0.8124  -23.9481  -45.6621 O.2       10 UNK        -0.5000 
     22 CA         -0.4625  -22.1813  -44.0809 C.3       10 UNK         0.1400 
     23 CB          1.0190  -22.0018  -43.7160 C.3       10 UNK        -0.1800 
     24 N          -1.1743  -20.9138  -43.9085 N.am      10 UNK        -0.5000 
     25 C          -2.5091  -20.7862  -43.9316 C.2       9 UNK         0.5000 
     26 O          -3.2863  -21.7332  -44.0559 O.2       9 UNK        -0.5000 
     27 CA         -3.0644  -19.3539  -43.8446 C.3       9 UNK         0.1400 
     28 CB         -3.1204  -18.8772  -42.3857 C.3       9 UNK        -0.1800 
     29 N          -2.2802  -18.4078  -44.6388 N.am      9 UNK        -0.5000 
     30 C          -2.2590  -18.3877  -45.9801 C.2       8 UNK         0.5000 
     31 O          -2.9161  -19.1519  -46.6845 O.2       8 UNK        -0.5000 
     32 CA         -1.3169  -17.3723  -46.6516 C.3       8 UNK         0.1400 
     33 CB         -2.0250  -16.0164  -46.7954 C.3       8 UNK        -0.1800 
     34 N          -0.0594  -17.1823  -45.9310 N.am      8 UNK        -0.5000 
     35 C           0.8148  -18.1468  -45.6107 C.2       7 UNK         0.5000 
     36 O           0.6724  -19.3277  -45.9219 O.2       7 UNK        -0.5000 
     37 CA          2.0111  -17.7384  -44.7305 C.3       7 UNK         0.1400 
     38 CB          3.2713  -17.5190  -45.5799 C.3       7 UNK        -0.1800 
     39 N           1.7550  -16.5451  -43.9183 N.am      7 UNK        -0.5000 
     40 C           0.8351  -16.4523  -42.9480 C.2       6 UNK         0.5000 
     41 O           0.0920  -17.3853  -42.6369 O.2       6 UNK        -0.5000 
     42 CA          0.7134  -15.0888  -42.2319 C.3       6 UNK         0.1400 
     43 CB         -0.1863  -15.1504  -40.9853 C.3       6 UNK        -0.1800 
     44 N           2.0077  -14.5193  -41.8480 N.am      6 UNK        -0.5000 
     45 C           2.8818  -13.9181  -42.6614 C.2       5 UNK         0.5000 
     46 O           2.6786  -13.7640  -43.8675 O.2       5 UNK        -0.5000 
     47 CA          4.1818  -13.4002  -42.0143 C.3       5 UNK         0.1400 
     48 CB          5.2591  -13.0719  -43.0611 C.3       5 UNK        -0.1800 
     49 N           3.9347  -12.2148  -41.1920 N.am      5 UNK        -0.5000 
     50 C           3.3588  -12.2264  -39.9804 C.2       4 UNK         0.5000 
     51 O           3.0111  -13.2613  -39.4083 O.2       4 UNK        -0.5000 
     52 CA          3.1307  -10.8727  -39.2777 C.3       4 UNK         0.1400 
     53 CB          4.1768  -10.6599  -38.1725 C.3       4 UNK        -0.1800 
     54 N           3.1585   -9.7195  -40.1783 N.am      4 UNK        -0.5000 
     55 C           2.2278   -9.4300  -41.0968 C.2       3 UNK         0.5000 
     56 O           1.2210  -10.1120  -41.2880 O.2       3 UNK        -0.5000 
     57 CA          2.4640   -8.1766  -41.9643 C.3       3 UNK         0.1400 
     58 CB          3.3911   -7.1282  -41.3082 C.3       3 UNK        -0.1800 
     59 N           2.9451   -8.5213  -43.3060 N.am      3 UNK        -0.5000 
     60 C           4.0538   -9.2067  -43.6186 C.2       2 UNK         0.5000 
     61 O           4.8247   -9.6933  -42.7889 O.2       2 UNK        -0.5000 
     62 CA          4.2824   -9.4477  -45.1154 C.3       2 UNK         0.1400 
     63 CB          5.7452   -9.7836  -45.4659 C.3       2 UNK        -0.1800 
     64 N           3.4002  -10.5370  -45.5071 N.am      2 UNK        -0.5000 
     65 C           2.9012  -10.7515  -46.7294 C.2       1 UNK         0.5000 
     66 O           3.1759  -10.0653  -47.7145 O.2       1 UNK        -0.5000 
     67 C          -2.3950  -22.6228  -48.0273 C.2       11 UNK         0.5000 
     68 O          -2.6259  -23.6942  -48.5839 O.2       11 UNK        -0.5000 
     69 N          -3.3500  -21.8443  -47.4966 N.am      12 UNK        -0.5000 
     70 CA         -4.7867  -22.1305  -47.5540 C.3       12 UNK         0.1400 
     71 CB         -5.5780  -20.9780  -46.9201 C.3       12 UNK        -0.1800 
     72 C          -5.1789  -23.4764  -46.9198 C.2       12 UNK         0.5000 
     73 O          -6.0135  -24.1850  -47.4826 O.2       12 UNK        -0.5000 
     74 N          -4.5204  -23.8399  -45.8105 N.am      13 UNK        -0.5000 
     75 CA         -4.6675  -25.1306  -45.1310 C.3       13 UNK         0.1400 
     76 CB         -3.8648  -25.0998  -43.8216 C.3       13 UNK        -0.1800 
     77 C          -4.2552  -26.3478  -45.9883 C.2       13 UNK         0.5000 
     78 O          -4.7586  -27.4467  -45.7528 O.2       13 UNK        -0.5000 
     79 N          -3.3698  -26.1315  -46.9694 N.am      14 UNK        -0.5000 
     80 CA         -2.9021  -27.1294  -47.9328 C.3       14 UNK         0.1400 
     81 CB         -1.3678  -27.0351  -48.0067 C.3       14 UNK        -0.1800 
     82 C          -3.5212  -26.9258  -49.3313 C.2       14 UNK         0.5000 
     83 O          -3.1050  -27.6024  -50.2740 O.2       14 UNK        -0.5000 
     84 N          -4.4493  -25.9642  -49.4695 N.am      15 UNK        -0.5000 
     85 CA         -5.0414  -25.4770  -50.7223 C.3       15 UNK         0.1400 
     86 CB         -6.0066  -26.5272  -51.3085 C.3       15 UNK        -0.1800 
     87 C          -3.9778  -25.0068  -51.7397 C.2       15 UNK         0.5000 
     88 O          -4.0973  -25.2878  -52.9321 O.2       15 UNK        -0.5000 
     89 N          -2.9260  -24.3488  -51.2304 N.am      16 UNK        -0.5000 
     90 CA         -1.7112  -23.9122  -51.9259 C.3       16 UNK         0.1400 
     91 CB         -2.0293  -22.7701  -52.9093 C.3       16 UNK        -0.1800 
     92 C          -0.9487  -25.0845  -52.5790 C.2       16 UNK         0.5000 
     93 O          -0.4696  -24.9584  -53.7049 O.2       16 UNK        -0.5000 
     94 N          -0.8886  -26.2197  -51.8657 N.am      17 UNK        -0.5000 
     95 CA         -0.3787  -27.5209  -52.3164 C.3       17 UNK         0.1400 
     96 CB          1.1371  -27.4646  -52.6000 C.3       17 UNK        -0.1800 
     97 C          -1.2084  -28.0762  -53.4936 C.2       17 UNK         0.5000 
     98 O          -0.6530  -28.5337  -54.4937 O.2       17 UNK        -0.5000 
     99 N          -2.5379  -27.9888  -53.3420 N.am      18 UNK        -0.5000 
    100 CA        -3.5870  -28.3712  -54.2943 C.3       18 UNK         0.1400 
    101 CB        -3.5507  -29.8877  -54.5757 C.3       18 UNK        -0.1800 
    102 C         -3.6306  -27.5272  -55.5899 C.2       18 UNK         0.5000 
    103 O         -4.2844  -27.9344  -56.5518 O.2       18 UNK        -0.5000 
    104 N         -2.9778  -26.3562  -55.5970 N.am      19 UNK        -0.5000 
    105 CA        -3.0174  -25.3875  -56.6986 C.3       19 UNK         0.1400 
    106 CB        -1.7146  -24.5734  -56.6993 C.3       19 UNK        -0.1800 
    107 C         -4.2410  -24.4475  -56.6339 C.2       19 UNK         0.5000 
    108 O         -4.4786  -23.7183  -57.5976 O.2       19 UNK        -0.5000 
    109 N         -4.9759  -24.4915  -55.5127 N.am      20 UNK        -0.5000 
    110 CA        -6.0865  -23.6435  -55.0735 C.3       20 UNK         0.1400 
    111 CB        -7.1277  -23.3677  -56.1759 C.3       20 UNK        -0.1800 
    112 C         -5.5728  -22.3508  -54.4168 C.2       20 UNK         0.5000 
    113 O         -4.6514  -21.7096  -54.9266 O.2       20 UNK        -0.5000 
    114 N         -6.1804  -22.0068  -53.2750 N.am      21 UNK        -0.5000 
    115 CA        -5.8509  -20.8374  -52.4602 C.3       21 UNK         0.1400 
    116 CB        -6.4958  -21.0218  -51.0760 C.3       21 UNK        -0.1800 
    117 C         -6.2998  -19.5102  -53.1059 C.2       21 UNK         0.5000 
    118 O         -7.0593  -19.5118  -54.0781 O.2       21 UNK        -0.5000 
    119 N         -5.8329  -18.3971  -52.5267 N.am      22 UNK        -0.5000 
    120 CA        -6.1034  -17.0206  -52.9826 C.3       22 UNK         0.1400 
    121 C         -7.5893  -16.5586  -52.8806 C.2       22 UNK         0.5000 
    122 N         -8.4497  -17.2340  -52.1283 N.am      22 UNK        -0.7600 
    123 O         -7.9663  -15.5655  -53.4967 O.2       22 UNK        -0.5000 
    124 C124       -5.1859  -15.9853  -52.2794 C.3       23 UNK        -0.0398 
    125 S125       -3.4020  -16.3604  -52.4077 S.3       23 UNK        -0.2404 
    126 C126       -2.9936  -16.6647  -50.6611 C.3       23 UNK        -0.0205 
    127 H127        0.3490  -12.0587  -43.1428 H         1 UNK         0.0600 
    128 H128       -1.1985  -12.4586  -43.9094 H         1 UNK         0.0600 
    129 H129       -0.8655  -10.8074  -43.3725 H         1 UNK         0.0600 
    130 H130        1.5369  -12.8726  -45.0142 H         1 UNK         0.3000 
    131 H131        1.1985  -11.6658  -47.6470 H         1 UNK         0.0600 
    132 H132        3.4078  -13.4932  -46.5687 H         1 UNK         0.0800 
    133 H133        3.2146  -13.0208  -48.2364 H         1 UNK         0.0800 
    134 H134        2.5263  -14.8662  -49.7441 H         1 UNK         0.0800 
    135 H135        1.1208  -13.8251  -49.7912 H         1 UNK         0.0800 
    136 H136       -1.1602  -14.7893  -49.9167 H         1 UNK         0.1150 
    137 H137       -1.5137  -18.9322  -50.9564 H         1 UNK         0.1150 
    138 H138        2.2891  -17.3297  -49.7871 H         1 UNK         0.1150 
    139 H139        0.5861  -20.2025  -51.3740 H         1 UNK         0.0800 
    140 H140        2.1287  -19.5228  -50.9316 H         1 UNK         0.0800 
    141 H141       -1.0629  -21.1993  -49.8532 H         1 UNK         0.0800 
    142 H142       -1.1716  -20.0742  -48.5202 H         1 UNK         0.0800 
    143 H143       -0.3054  -22.9919  -48.2073 H         1 UNK         0.0600 
    144 H144       -0.3475  -20.8884  -46.2979 H         1 UNK         0.3000 
    145 H145       -0.8957  -22.9063  -43.3885 H         1 UNK         0.0600 
    146 H146        1.1327  -21.6394  -42.6943 H         1 UNK         0.0600 
    147 H147        1.5522  -22.9507  -43.7855 H         1 UNK         0.0600 
    148 H148        1.5205  -21.2976  -44.3796 H         1 UNK         0.0600 
    149 H149       -0.6099  -20.0785  -43.8496 H         1 UNK         0.3000 
    150 H150       -4.0838  -19.3654  -44.2359 H         1 UNK         0.0600 
    151 H151       -3.7336  -19.5465  -41.7810 H         1 UNK         0.0600 
    152 H152       -3.5570  -17.8811  -42.3124 H         1 UNK         0.0600 
    153 H153       -2.1289  -18.8424  -41.9327 H         1 UNK         0.0600 
    154 H154       -1.6693  -17.7830  -44.1292 H         1 UNK         0.3000 
    155 H155       -1.0708  -17.7470  -47.6462 H         1 UNK         0.0600 
    156 H156       -2.2910  -15.5951  -45.8252 H         1 UNK         0.0600 
    157 H157       -2.9439  -16.1171  -47.3743 H         1 UNK         0.0600 
    158 H158       -1.3970  -15.2910  -47.3109 H         1 UNK         0.0600 
    159 H159        0.1648  -16.2368  -45.6595 H         1 UNK         0.3000 
    160 H160        2.2042  -18.5683  -44.0477 H         1 UNK         0.0600 
    161 H161        4.1422  -17.3328  -44.9514 H         1 UNK         0.0600 
    162 H162        3.4902  -18.3984  -46.1871 H         1 UNK         0.0600 
    163 H163        3.1614  -16.6733  -46.2576 H         1 UNK         0.0600 
    164 H164        2.2987  -15.7162  -44.1324 H         1 UNK         0.3000 
    165 H165        0.2367  -14.4154  -42.9449 H         1 UNK         0.0600 
    166 H166       -0.2970  -14.1653  -40.5313 H         1 UNK         0.0600 
    167 H167       -1.1874  -15.5028  -41.2377 H         1 UNK         0.0600 
    168 H168        0.2205  -15.8241  -40.2302 H         1 UNK         0.0600 
    169 H169        2.2396  -14.5530  -40.8615 H         1 UNK         0.3000 
    170 H170        4.5748  -14.1948  -41.3767 H         1 UNK         0.0600 
    171 H171        4.9224  -12.3035  -43.7549 H         1 UNK         0.0600 
    172 H172        6.1765  -12.7192  -42.5898 H         1 UNK         0.0600 
    173 H173        5.5122  -13.9544  -43.6500 H         1 UNK         0.0600 
    174 H174        4.1923  -11.3213  -41.5971 H         1 UNK         0.3000 
    175 H175        2.1444  -10.9132  -38.8108 H         1 UNK         0.0600 
    176 H176        5.1858  -10.5945  -38.5817 H         1 UNK         0.0600 
    177 H177        3.9801   -9.7449  -37.6133 H         1 UNK         0.0600 
    178 H178        4.1650  -11.4841  -37.4579 H         1 UNK         0.0600 
    179 H179        3.9732   -9.1252  -40.1242 H         1 UNK         0.3000 
    180 H180        1.4865   -7.7097  -42.0950 H         1 UNK         0.0600 
    181 H181        4.4175   -7.4818  -41.2065 H         1 UNK         0.0600 
    182 H182        3.0333   -6.8553  -40.3145 H         1 UNK         0.0600 
    183 H183        3.4189   -6.2132  -41.9000 H         1 UNK         0.0600 
    184 H184        2.3456   -8.2248  -44.0637 H         1 UNK         0.3000 
    185 H185        4.0000   -8.5372  -45.6486 H         1 UNK         0.0600 
    186 H186        6.4148   -8.9890  -45.1349 H         1 UNK         0.0600 
    187 H187        6.0781  -10.7089  -44.9964 H         1 UNK         0.0600 
    188 H188        5.8777   -9.8913  -46.5424 H         1 UNK         0.0600 
    189 H189        3.0944  -11.1430  -44.7579 H         1 UNK         0.3000 
    190 H190       -3.0908  -20.9556  -47.0735 H         1 UNK         0.3000 
    191 H191       -5.0577  -22.1832  -48.6089 H         1 UNK         0.0600 
    192 H192       -5.3063  -20.8327  -45.8743 H         1 UNK         0.0600 
    193 H193       -6.6508  -21.1710  -46.9585 H         1 UNK         0.0600 
    194 H194       -5.3995  -20.0408  -47.4474 H         1 UNK         0.0600 
    195 H195       -3.8802  -23.1752  -45.3870 H         1 UNK         0.3000 
    196 H196       -5.7232  -25.2529  -44.8808 H         1 UNK         0.0600 
    197 H197       -3.9718  -26.0365  -43.2731 H         1 UNK         0.0600 
    198 H198       -4.2089  -24.2990  -43.1667 H         1 UNK         0.0600 
    199 H199       -2.8012  -24.9463  -44.0069 H         1 UNK         0.0600 
    200 H200       -3.0154  -25.1916  -47.1060 H         1 UNK         0.3000 
    201 H201       -3.1687  -28.1357  -47.6046 H         1 UNK         0.0600 
    202 H202       -0.9180  -27.1916  -47.0260 H         1 UNK         0.0600 
    203 H203       -1.0416  -26.0591  -48.3688 H         1 UNK         0.0600 
    204 H204       -0.9548  -27.7916  -48.6751 H         1 UNK         0.0600 
    205 H205       -4.7329  -25.4620  -48.6367 H         1 UNK         0.3000 
    206 H206       -5.6268  -24.5934  -50.4649 H         1 UNK         0.0600 
    207 H207       -6.7718  -26.8034  -50.5831 H         1 UNK         0.0600 
    208 H208       -6.5207  -26.1411  -52.1895 H         1 UNK         0.0600 
    209 H209       -5.4847  -27.4370  -51.6053 H         1 UNK         0.0600 
    210 H210       -2.9180  -24.1884  -50.2230 H         1 UNK         0.3000 
    211 H211       -1.0468  -23.5105  -51.1596 H         1 UNK         0.0600 
    212 H212       -2.6513  -23.1149  -53.7347 H         1 UNK         0.0600 
    213 H213       -1.1167  -22.3557  -53.3390 H         1 UNK         0.0600 
    214 H214       -2.5528  -21.9543  -52.4117 H         1 UNK         0.0600 
    215 H215       -1.3712  -26.2386  -50.9779 H         1 UNK         0.3000 
    216 H216       -0.5293  -28.2123  -51.4859 H         1 UNK         0.0600 
    217 H217        1.5304  -28.4611  -52.8038 H         1 UNK         0.0600 
    218 H218        1.6834  -27.0691  -51.7439 H         1 UNK         0.0600 
    219 H219        1.3696  -26.8416  -53.4639 H         1 UNK         0.0600 
    220 H220       -2.8749  -27.5997  -52.4685 H         1 UNK         0.3000 
    221 H221       -4.5282  -28.1615  -53.7850 H         1 UNK         0.0600 
    222 H222       -2.6725  -30.1720  -55.1558 H         1 UNK         0.0600 
    223 H223       -3.5415  -30.4607  -53.6485 H         1 UNK         0.0600 
    224 H224       -4.4289  -30.2034  -55.1400 H         1 UNK         0.0600 
    225 H225       -2.4772  -26.0771  -54.7636 H         1 UNK         0.3000 
    226 H226       -3.0705  -25.9293  -57.6451 H         1 UNK         0.0600 
    227 H227       -0.8389  -25.2229  -56.6965 H         1 UNK         0.0600 
    228 H228       -1.6504  -23.9431  -57.5870 H         1 UNK         0.0600 
    229 H229       -1.6509  -23.9171  -55.8316 H         1 UNK         0.0600 
    230 H230       -4.6088  -25.0761  -54.7663 H         1 UNK         0.3000 
    231 H231       -6.5869  -24.2310  -54.3018 H         1 UNK         0.0600 
    232 H232       -7.4345  -24.2881  -56.6727 H         1 UNK         0.0600 
    233 H233       -6.7492  -22.6814  -56.9337 H         1 UNK         0.0600 
    234 H234       -8.0226  -22.9110  -55.7521 H         1 UNK         0.0600 
    235 H235       -6.9640  -22.5576  -52.9576 H         1 UNK         0.3000 
    236 H236       -4.7664  -20.8039  -52.3377 H         1 UNK         0.0600 
    237 H237       -7.5847  -20.9900  -51.1325 H         1 UNK         0.0600 
    238 H238       -6.2149  -21.9789  -50.6372 H         1 UNK         0.0600 
    239 H239       -6.1790  -20.2430  -50.3814 H         1 UNK         0.0600 
    240 H240       -5.2181  -18.4794  -51.7318 H         1 UNK         0.3000 
    241 H241       -5.8605  -16.9970  -54.0467 H         1 UNK         0.0600 
    242 H242       -9.4081  -16.9265  -52.0737 H         1 UNK         0.3800 
    243 H243       -8.1573  -18.0545  -51.6233 H         1 UNK         0.3800 
    244 H244       -5.4654  -15.8906  -51.2286 H         1 UNK         0.0800 
    245 H245       -5.3352  -14.9957  -52.7152 H         1 UNK         0.0800 
    246 H246       -3.5237  -17.5503  -50.3079 H         1 UNK         0.0800 
    247 H247       -3.3498  -15.8307  -50.0542 H         1 UNK         0.0800 
@<TRIPOS>BOND
     1    1    2 1    
     2    1  127 1    
     3    1  128 1    
     4    1  129 1    
     5    2    3 2    
     6    2    4 am   BACKBONE|DICT|INTERRES
     7    4    5 1    
     8    4  130 1    
     9    5    6 1    
    10    5   65 1    
    11    5  131 1    
    12    6    7 1    
    13    6  132 1    
    14    6  133 1    
    15    7    8 1    
    16    8    9 1    
    17    8  134 1    
    18    8  135 1    
    19    9   10 ar   
    20    9   14 ar   
    21   10   11 ar   
    22   10  136 1    
    23   11   12 ar   
    24   11  126 1    
    25   12   13 ar   
    26   12  137 1    
    27   13   14 ar   
    28   13   15 1    
    29   14  138 1    
    30   15   16 1    
    31   15  139 1    
    32   15  140 1    
    33   16   17 1    
    34   17   18 1    
    35   17  141 1    
    36   17  142 1    
    37   18   19 1    
    38   18   67 1    
    39   18  143 1    
    40   19   20 am   BACKBONE|DICT|INTERRES
    41   19  144 1    
    42   20   21 2    
    43   20   22 1    
    44   22   23 1    
    45   22   24 1    
    46   22  145 1    
    47   23  146 1    
    48   23  147 1    
    49   23  148 1    
    50   24   25 am   BACKBONE|DICT|INTERRES
    51   24  149 1    
    52   25   26 2    
    53   25   27 1    
    54   27   28 1    
    55   27   29 1    
    56   27  150 1    
    57   28  151 1    
    58   28  152 1    
    59   28  153 1    
    60   29   30 am   BACKBONE|DICT|INTERRES
    61   29  154 1    
    62   30   31 2    
    63   30   32 1    
    64   32   33 1    
    65   32   34 1    
    66   32  155 1    
    67   33  156 1    
    68   33  157 1    
    69   33  158 1    
    70   34   35 am   BACKBONE|DICT|INTERRES
    71   34  159 1    
    72   35   36 2    
    73   35   37 1    
    74   37   38 1    
    75   37   39 1    
    76   37  160 1    
    77   38  161 1    
    78   38  162 1    
    79   38  163 1    
    80   39   40 am   BACKBONE|DICT|INTERRES
    81   39  164 1    
    82   40   41 2    
    83   40   42 1    
    84   42   43 1    
    85   42   44 1    
    86   42  165 1    
    87   43  166 1    
    88   43  167 1    
    89   43  168 1    
    90   44   45 am   BACKBONE|DICT|INTERRES
    91   44  169 1    
    92   45   46 2    
    93   45   47 1    
    94   47   48 1    
    95   47   49 1    
    96   47  170 1    
    97   48  171 1    
    98   48  172 1    
    99   48  173 1    
   100   49   50 am   BACKBONE|DICT|INTERRES
   101   49  174 1    
   102   50   51 2    
   103   50   52 1    
   104   52   53 1    
   105   52   54 1    
   106   52  175 1    
   107   53  176 1    
   108   53  177 1    
   109   53  178 1    
   110   54   55 am   BACKBONE|DICT|INTERRES
   111   54  179 1    
   112   55   56 2    
   113   55   57 1    
   114   57   58 1    
   115   57   59 1    
   116   57  180 1    
   117   58  181 1    
   118   58  182 1    
   119   58  183 1    
   120   59   60 am   BACKBONE|DICT|INTERRES
   121   59  184 1    
   122   60   61 2    
   123   60   62 1    
   124   62   63 1    
   125   62   64 1    
   126   62  185 1    
   127   63  186 1    
   128   63  187 1    
   129   63  188 1    
   130   64   65 am   BACKBONE|DICT|INTERRES
   131   64  189 1    
   132   65   66 2    
   133   67   68 2    
   134   67   69 am   BACKBONE|DICT|INTERRES
   135   69   70 1    
   136   69  190 1    
   137   70   71 1    
   138   70   72 1    
   139   70  191 1    
   140   71  192 1    
   141   71  193 1    
   142   71  194 1    
   143   72   73 2    
   144   72   74 am   BACKBONE|DICT|INTERRES
   145   74   75 1    
   146   74  195 1    
   147   75   76 1    
   148   75   77 1    
   149   75  196 1    
   150   76  197 1    
   151   76  198 1    
   152   76  199 1    
   153   77   78 2    
   154   77   79 am   BACKBONE|DICT|INTERRES
   155   79   80 1    
   156   79  200 1    
   157   80   81 1    
   158   80   82 1    
   159   80  201 1    
   160   81  202 1    
   161   81  203 1    
   162   81  204 1    
   163   82   83 2    
   164   82   84 am   BACKBONE|DICT|INTERRES
   165   84   85 1    
   166   84  205 1    
   167   85   86 1    
   168   85   87 1    
   169   85  206 1    
   170   86  207 1    
   171   86  208 1    
   172   86  209 1    
   173   87   88 2    
   174   87   89 am   BACKBONE|DICT|INTERRES
   175   89   90 1    
   176   89  210 1    
   177   90   91 1    
   178   90   92 1    
   179   90  211 1    
   180   91  212 1    
   181   91  213 1    
   182   91  214 1    
   183   92   93 2    
   184   92   94 am   BACKBONE|DICT|INTERRES
   185   94   95 1    
   186   94  215 1    
   187   95   96 1    
   188   95   97 1    
   189   95  216 1    
   190   96  217 1    
   191   96  218 1    
   192   96  219 1    
   193   97   98 2    
   194   97   99 am   BACKBONE|DICT|INTERRES
   195   99  100 1    
   196   99  220 1    
   197  100  101 1    
   198  100  102 1    
   199  100  221 1    
   200  101  222 1    
   201  101  223 1    
   202  101  224 1    
   203  102  103 2    
   204  102  104 am   BACKBONE|DICT|INTERRES
   205  104  105 1    
   206  104  225 1    
   207  105  106 1    
   208  105  107 1    
   209  105  226 1    
   210  106  227 1    
   211  106  228 1    
   212  106  229 1    
   213  107  108 2    
   214  107  109 am   BACKBONE|DICT|INTERRES
   215  109  110 1    
   216  109  230 1    
   217  110  111 1    
   218  110  112 1    
   219  110  231 1    
   220  111  232 1    
   221  111  233 1    
   222  111  234 1    
   223  112  113 2    
   224  112  114 am   BACKBONE|DICT|INTERRES
   225  114  115 1    
   226  114  235 1    
   227  115  116 1    
   228  115  117 1    
   229  115  236 1    
   230  116  237 1    
   231  116  238 1    
   232  116  239 1    
   233  117  118 2    
   234  117  119 am   BACKBONE|DICT|INTERRES
   235  119  120 1    
   236  119  240 1    
   237  120  121 1    
   238  120  124 1    
   239  120  241 1    
   240  121  122 am   BACKBONE|DICT|INTERRES
   241  121  123 2    
   242  122  242 1    
   243  122  243 1    
   244  124  125 1    
   245  124  244 1    
   246  124  245 1    
   247  125  126 1    
   248  126  246 1    
   249  126  247 1    
@<TRIPOS>SUBSTRUCTURE
     1 UNK         1 GROUP             0       ****    0 ROOT    
