@<TRIPOS>MOLECULE
3R540
247   249    1
SMALL
USER_CHARGES


@<TRIPOS>ATOM
      1 CA         -3.2818  -14.3419  -46.0810 C.3       0 UNK        -0.1800 
      2 C          -2.3942  -13.1421  -46.3784 C.2       0 UNK         0.5000 
      3 O          -2.2915  -12.2328  -45.5559 O.2       0 UNK        -0.5000 
      4 N          -1.7379  -13.1464  -47.5461 N.am      1 UNK        -0.5000 
      5 CA         -0.8981  -12.0555  -48.0652 C.3       1 UNK         0.1400 
      6 C6         -0.4515  -12.3304  -49.5257 C.3       23 UNK        -0.0398 
      7 S7         -1.6636  -11.8383  -50.8022 S.3       23 UNK        -0.2404 
      8 C8         -3.1997  -12.7286  -50.3667 C.3       23 UNK        -0.0205 
      9 C9         -3.1063  -14.2546  -50.3278 C.ar      23 UNK        -0.0193 
     10 C10        -2.1592  -14.9710  -51.0670 C.ar      23 UNK        -0.1150 
     11 C11        -2.1324  -16.3676  -51.0331 C.ar      23 UNK        -0.0193 
     12 C12        -3.0701  -17.0546  -50.2572 C.ar      23 UNK        -0.1150 
     13 C13        -4.0197  -16.3572  -49.4972 C.ar      23 UNK        -0.0193 
     14 C14        -4.0271  -14.9602  -49.5486 C.ar      23 UNK        -0.1150 
     15 C15        -5.0713  -17.0407  -48.6176 C.3       23 UNK        -0.0205 
     16 S16        -4.9878  -18.8596  -48.4968 S.3       23 UNK        -0.2404 
     17 C17        -3.5378  -19.0950  -47.4192 C.3       23 UNK        -0.0398 
     18 CA         -3.2151  -20.5949  -47.2048 C.3       11 UNK         0.1400 
     19 N          -1.7833  -20.8261  -46.9824 N.am      11 UNK        -0.5000 
     20 C          -1.2042  -22.0356  -46.9748 C.2       10 UNK         0.5000 
     21 O          -1.8102  -23.0830  -47.1905 O.2       10 UNK        -0.5000 
     22 CA          0.2931  -22.0988  -46.6272 C.3       10 UNK         0.1400 
     23 CB          1.1536  -21.7860  -47.8599 C.3       10 UNK        -0.1800 
     24 N           0.6528  -21.2043  -45.5273 N.am      10 UNK        -0.5000 
     25 C           0.1830  -21.3144  -44.2761 C.2       9 UNK         0.5000 
     26 O          -0.5583  -22.2224  -43.9032 O.2       9 UNK        -0.5000 
     27 CA          0.5401  -20.1827  -43.2967 C.3       9 UNK         0.1400 
     28 CB          1.9663  -20.3455  -42.7507 C.3       9 UNK        -0.1800 
     29 N           0.3971  -18.8628  -43.9071 N.am      9 UNK        -0.5000 
     30 C          -0.7481  -18.3547  -44.3812 C.2       8 UNK         0.5000 
     31 O          -1.8371  -18.9223  -44.3066 O.2       8 UNK        -0.5000 
     32 CA         -0.6453  -17.0093  -45.1132 C.3       8 UNK         0.1400 
     33 CB         -0.6200  -15.8435  -44.1167 C.3       8 UNK        -0.1800 
     34 N           0.5421  -16.9514  -45.9633 N.am      8 UNK        -0.5000 
     35 C           0.6659  -17.6008  -47.1280 C.2       7 UNK         0.5000 
     36 O          -0.2219  -18.2953  -47.6198 O.2       7 UNK        -0.5000 
     37 CA          2.0195  -17.4770  -47.8499 C.3       7 UNK         0.1400 
     38 CB          2.0325  -16.2286  -48.7452 C.3       7 UNK        -0.1800 
     39 N           3.1673  -17.4542  -46.9345 N.am      7 UNK        -0.5000 
     40 C           3.5401  -18.5112  -46.1979 C.2       6 UNK         0.5000 
     41 O           2.9228  -19.5755  -46.1805 O.2       6 UNK        -0.5000 
     42 CA          4.8005  -18.3664  -45.3217 C.3       6 UNK         0.1400 
     43 CB          6.0542  -18.2103  -46.1975 C.3       6 UNK        -0.1800 
     44 N           4.8002  -17.3176  -44.2913 N.am      6 UNK        -0.5000 
     45 C           3.7729  -16.8349  -43.5776 C.2       5 UNK         0.5000 
     46 O           2.5893  -17.0603  -43.8350 O.2       5 UNK        -0.5000 
     47 CA          4.1397  -15.9730  -42.3490 C.3       5 UNK         0.1400 
     48 CB          5.2282  -14.9220  -42.6352 C.3       5 UNK        -0.1800 
     49 N           2.9645  -15.2977  -41.7974 N.am      5 UNK        -0.5000 
     50 C           2.1148  -15.8490  -40.9163 C.2       4 UNK         0.5000 
     51 O           2.2813  -16.9671  -40.4265 O.2       4 UNK        -0.5000 
     52 CA          0.8743  -15.0368  -40.4963 C.3       4 UNK         0.1400 
     53 CB          0.9487  -14.6330  -39.0132 C.3       4 UNK        -0.1800 
     54 N           0.6833  -13.8410  -41.3148 N.am      4 UNK        -0.5000 
     55 C          -0.4887  -13.3031  -41.6590 C.2       3 UNK         0.5000 
     56 O          -1.5797  -13.7455  -41.2984 O.2       3 UNK        -0.5000 
     57 CA         -0.4334  -12.0636  -42.5726 C.3       3 UNK         0.1400 
     58 CB          0.1388  -10.8408  -41.8295 C.3       3 UNK        -0.1800 
     59 N           0.2535  -12.2808  -43.8537 N.am      3 UNK        -0.5000 
     60 C           1.5440  -12.5663  -44.0943 C.2       2 UNK         0.5000 
     61 O           2.3819  -12.7366  -43.2057 O.2       2 UNK        -0.5000 
     62 CA          1.9769  -12.7087  -45.5696 C.3       2 UNK         0.1400 
     63 CB          2.8710  -13.9381  -45.7881 C.3       2 UNK        -0.1800 
     64 N           0.8391  -12.7947  -46.4872 N.am      2 UNK        -0.5000 
     65 C           0.3308  -11.7641  -47.1751 C.2       1 UNK         0.5000 
     66 O           0.7797  -10.6187  -47.1211 O.2       1 UNK        -0.5000 
     67 C          -4.0941  -21.2188  -46.0958 C.2       11 UNK         0.5000 
     68 O          -5.1546  -21.7732  -46.3840 O.2       11 UNK        -0.5000 
     69 N          -3.6298  -21.1430  -44.8418 N.am      12 UNK        -0.5000 
     70 CA         -4.2758  -21.7746  -43.6934 C.3       12 UNK         0.1400 
     71 CB         -3.6789  -21.2086  -42.3956 C.3       12 UNK        -0.1800 
     72 C          -4.1650  -23.3109  -43.7292 C.2       12 UNK         0.5000 
     73 O          -5.1527  -23.9974  -43.4644 O.2       12 UNK        -0.5000 
     74 N          -2.9676  -23.8203  -44.0462 N.am      13 UNK        -0.5000 
     75 CA         -2.6493  -25.2470  -44.0378 C.3       13 UNK         0.1400 
     76 CB         -1.1240  -25.4215  -43.9738 C.3       13 UNK        -0.1800 
     77 C          -3.2177  -26.0265  -45.2366 C.2       13 UNK         0.5000 
     78 O          -3.6203  -27.1775  -45.0610 O.2       13 UNK        -0.5000 
     79 N          -3.2071  -25.4171  -46.4286 N.am      14 UNK        -0.5000 
     80 CA         -3.4474  -26.0923  -47.7040 C.3       14 UNK         0.1400 
     81 CB         -2.0932  -26.3892  -48.3720 C.3       14 UNK        -0.1800 
     82 C          -4.4169  -25.3051  -48.6036 C.2       14 UNK         0.5000 
     83 O          -4.2067  -25.2271  -49.8175 O.2       14 UNK        -0.5000 
     84 N          -5.4852  -24.7827  -47.9836 N.am      15 UNK        -0.5000 
     85 CA         -6.6600  -24.1401  -48.5890 C.3       15 UNK         0.1400 
     86 CB         -7.4303  -25.1624  -49.4538 C.3       15 UNK        -0.1800 
     87 C          -6.3554  -22.8427  -49.3684 C.2       15 UNK         0.5000 
     88 O          -5.2155  -22.3837  -49.4017 O.2       15 UNK        -0.5000 
     89 N          -7.3923  -22.2668  -49.9954 N.am      16 UNK        -0.5000 
     90 CA         -7.3569  -20.9913  -50.7252 C.3       16 UNK         0.1400 
     91 CB         -8.7693  -20.6780  -51.2424 C.3       16 UNK        -0.1800 
     92 C          -6.3356  -20.9236  -51.8809 C.2       16 UNK         0.5000 
     93 O          -5.8962  -19.8312  -52.2403 O.2       16 UNK        -0.5000 
     94 N          -5.9675  -22.0883  -52.4305 N.am      17 UNK        -0.5000 
     95 CA         -4.9099  -22.2400  -53.4280 C.3       17 UNK         0.1400 
     96 CB         -5.0798  -23.5985  -54.1256 C.3       17 UNK        -0.1800 
     97 C          -3.4905  -22.1280  -52.8378 C.2       17 UNK         0.5000 
     98 O          -2.5438  -21.9695  -53.6083 O.2       17 UNK        -0.5000 
     99 N          -3.3536  -22.2440  -51.5063 N.am      18 UNK        -0.5000 
    100 CA        -2.1030  -22.3076  -50.7458 C.3       18 UNK         0.1400 
    101 CB        -1.4276  -20.9248  -50.7061 C.3       18 UNK        -0.1800 
    102 C         -1.1923  -23.4291  -51.2763 C.2       18 UNK         0.5000 
    103 O         -0.0804  -23.1685  -51.7440 O.2       18 UNK        -0.5000 
    104 N         -1.7535  -24.6467  -51.2926 N.am      19 UNK        -0.5000 
    105 CA        -1.2953  -25.8540  -51.9847 C.3       19 UNK         0.1400 
    106 CB         0.0952  -26.3149  -51.5013 C.3       19 UNK        -0.1800 
    107 C         -1.3652  -25.6900  -53.5137 C.2       19 UNK         0.5000 
    108 O         -2.1824  -26.3469  -54.1597 O.2       19 UNK        -0.5000 
    109 N         -0.5338  -24.7932  -54.0511 N.am      20 UNK        -0.5000 
    110 CA        -0.5005  -24.3950  -55.4555 C.3       20 UNK         0.1400 
    111 CB         0.2599  -25.4550  -56.2774 C.3       20 UNK        -0.1800 
    112 C          0.0989  -22.9881  -55.6559 C.2       20 UNK         0.5000 
    113 O          0.2764  -22.5824  -56.8055 O.2       20 UNK        -0.5000 
    114 N          0.4230  -22.2637  -54.5718 N.am      21 UNK        -0.5000 
    115 CA         1.0926  -20.9614  -54.6339 C.3       21 UNK         0.1400 
    116 CB         1.6689  -20.6161  -53.2519 C.3       21 UNK        -0.1800 
    117 C          0.1958  -19.8204  -55.1523 C.2       21 UNK         0.5000 
    118 O          0.7119  -18.8996  -55.7874 O.2       21 UNK        -0.5000 
    119 N         -1.1130  -19.9029  -54.8852 N.am      22 UNK        -0.5000 
    120 CA        -2.1338  -18.9147  -55.2758 C.3       22 UNK         0.1400 
    121 C         -3.3509  -19.5556  -56.0059 C.2       22 UNK         0.5000 
    122 N         -3.2799  -20.8066  -56.4448 N.am      22 UNK        -0.7600 
    123 O         -4.3695  -18.9022  -56.2131 O.2       22 UNK        -0.5000 
    124 C124       -2.5533  -18.0116  -54.0813 C.3       23 UNK        -0.0398 
    125 S125       -1.2168  -16.8597  -53.6100 S.3       23 UNK        -0.2404 
    126 C126       -1.0691  -17.1245  -51.8165 C.3       23 UNK        -0.0205 
    127 H127       -3.1830  -14.6391  -45.0373 H         1 UNK         0.0600 
    128 H128       -3.0219  -15.1976  -46.7041 H         1 UNK         0.0600 
    129 H129       -4.3257  -14.0883  -46.2643 H         1 UNK         0.0600 
    130 H130       -1.8743  -13.9227  -48.1782 H         1 UNK         0.3000 
    131 H131       -1.5022  -11.1457  -48.0527 H         1 UNK         0.0600 
    132 H132        0.4540  -11.7701  -49.7684 H         1 UNK         0.0800 
    133 H133       -0.1821  -13.3788  -49.6615 H         1 UNK         0.0800 
    134 H134       -3.9586  -12.4622  -51.1032 H         1 UNK         0.0800 
    135 H135       -3.5654  -12.3458  -49.4130 H         1 UNK         0.0800 
    136 H136       -1.4420  -14.4506  -51.6852 H         1 UNK         0.1150 
    137 H137       -3.0493  -18.1330  -50.2515 H         1 UNK         0.1150 
    138 H138       -4.7678  -14.4149  -48.9799 H         1 UNK         0.1150 
    139 H139       -5.0254  -16.6235  -47.6107 H         1 UNK         0.0800 
    140 H140       -6.0560  -16.7833  -49.0099 H         1 UNK         0.0800 
    141 H141       -2.7021  -18.5989  -47.9084 H         1 UNK         0.0800 
    142 H142       -3.6848  -18.5714  -46.4727 H         1 UNK         0.0800 
    143 H143       -3.4476  -21.1214  -48.1298 H         1 UNK         0.0600 
    144 H144       -1.2063  -20.0048  -46.8428 H         1 UNK         0.3000 
    145 H145        0.5155  -23.1199  -46.3109 H         1 UNK         0.0600 
    146 H146        2.2134  -21.9199  -47.6432 H         1 UNK         0.0600 
    147 H147        0.9056  -22.4493  -48.6897 H         1 UNK         0.0600 
    148 H148        1.0109  -20.7602  -48.2008 H         1 UNK         0.0600 
    149 H149        1.3096  -20.4584  -45.7434 H         1 UNK         0.3000 
    150 H150       -0.1552  -20.2370  -42.4566 H         1 UNK         0.0600 
    151 H151        2.0885  -21.3124  -42.2611 H         1 UNK         0.0600 
    152 H152        2.1947  -19.5748  -42.0138 H         1 UNK         0.0600 
    153 H153        2.7129  -20.2804  -43.5422 H         1 UNK         0.0600 
    154 H154        1.2419  -18.3008  -43.9857 H         1 UNK         0.3000 
    155 H155       -1.5309  -16.9028  -45.7427 H         1 UNK         0.0600 
    156 H156        0.2501  -15.8873  -43.4625 H         1 UNK         0.0600 
    157 H157       -1.5066  -15.8524  -43.4816 H         1 UNK         0.0600 
    158 H158       -0.5993  -14.8861  -44.6335 H         1 UNK         0.0600 
    159 H159        1.3700  -16.5388  -45.5540 H         1 UNK         0.3000 
    160 H160        2.1273  -18.3514  -48.4955 H         1 UNK         0.0600 
    161 H161        1.8512  -15.3173  -48.1773 H         1 UNK         0.0600 
    162 H162        1.2524  -16.2917  -49.5044 H         1 UNK         0.0600 
    163 H163        2.9838  -16.1216  -49.2663 H         1 UNK         0.0600 
    164 H164        3.7169  -16.6091  -46.8944 H         1 UNK         0.3000 
    165 H165        4.9015  -19.3092  -44.7810 H         1 UNK         0.0600 
    166 H166        6.9642  -18.3140  -45.6061 H         1 UNK         0.0600 
    167 H167        6.0887  -18.9733  -46.9765 H         1 UNK         0.0600 
    168 H168        6.0845  -17.2370  -46.6885 H         1 UNK         0.0600 
    169 H169        5.7219  -17.0299  -43.9973 H         1 UNK         0.3000 
    170 H170        4.5413  -16.6590  -41.6005 H         1 UNK         0.0600 
    171 H171        6.1432  -15.3726  -43.0201 H         1 UNK         0.0600 
    172 H172        4.8985  -14.1731  -43.3515 H         1 UNK         0.0600 
    173 H173        5.5003  -14.3944  -41.7208 H         1 UNK         0.0600 
    174 H174        2.7518  -14.3988  -42.2118 H         1 UNK         0.3000 
    175 H175        0.0183  -15.7009  -40.6336 H         1 UNK         0.0600 
    176 H176        1.7824  -13.9556  -38.8255 H         1 UNK         0.0600 
    177 H177        0.0333  -14.1351  -38.6931 H         1 UNK         0.0600 
    178 H178        1.0822  -15.5063  -38.3734 H         1 UNK         0.0600 
    179 H179        1.5132  -13.4029  -41.7018 H         1 UNK         0.3000 
    180 H180       -1.4660  -11.8262  -42.8338 H         1 UNK         0.0600 
    181 H181        1.1808  -10.9826  -41.5419 H         1 UNK         0.0600 
    182 H182       -0.4256  -10.6416  -40.9178 H         1 UNK         0.0600 
    183 H183        0.0826   -9.9451  -42.4481 H         1 UNK         0.0600 
    184 H184       -0.3576  -12.1948  -44.6580 H         1 UNK         0.3000 
    185 H185        2.5757  -11.8260  -45.8028 H         1 UNK         0.0600 
    186 H186        2.3657  -14.8593  -45.5038 H         1 UNK         0.0600 
    187 H187        3.1781  -14.0183  -46.8301 H         1 UNK         0.0600 
    188 H188        3.7860  -13.8641  -45.2056 H         1 UNK         0.0600 
    189 H189        0.3911  -13.6945  -46.5760 H         1 UNK         0.3000 
    190 H190       -2.7847  -20.6095  -44.6612 H         1 UNK         0.3000 
    191 H191       -5.3366  -21.5159  -43.7146 H         1 UNK         0.0600 
    192 H192       -2.6116  -21.4158  -42.3158 H         1 UNK         0.0600 
    193 H193       -4.1644  -21.6429  -41.5209 H         1 UNK         0.0600 
    194 H194       -3.8126  -20.1280  -42.3400 H         1 UNK         0.0600 
    195 H195       -2.1901  -23.1841  -44.2019 H         1 UNK         0.3000 
    196 H196       -3.0723  -25.6842  -43.1308 H         1 UNK         0.0600 
    197 H197       -0.8500  -26.4769  -43.9461 H         1 UNK         0.0600 
    198 H198       -0.7111  -24.9551  -43.0792 H         1 UNK         0.0600 
    199 H199       -0.6330  -24.9763  -44.8402 H         1 UNK         0.0600 
    200 H200       -2.8446  -24.4683  -46.5038 H         1 UNK         0.3000 
    201 H201       -3.9405  -27.0511  -47.5327 H         1 UNK         0.0600 
    202 H202       -1.4594  -26.9948  -47.7244 H         1 UNK         0.0600 
    203 H203       -1.5515  -25.4716  -48.6024 H         1 UNK         0.0600 
    204 H204       -2.2263  -26.9454  -49.2997 H         1 UNK         0.0600 
    205 H205       -5.5030  -24.8452  -46.9756 H         1 UNK         0.3000 
    206 H206       -7.3010  -23.8510  -47.7551 H         1 UNK         0.0600 
    207 H207       -7.6062  -26.0876  -48.9049 H         1 UNK         0.0600 
    208 H208       -8.4076  -24.7823  -49.7521 H         1 UNK         0.0600 
    209 H209       -6.8851  -25.4146  -50.3641 H         1 UNK         0.0600 
    210 H210       -8.2978  -22.7079  -49.9279 H         1 UNK         0.3000 
    211 H211       -7.0822  -20.2167  -50.0086 H         1 UNK         0.0600 
    212 H212       -9.1204  -21.4407  -51.9385 H         1 UNK         0.0600 
    213 H213       -8.7910  -19.7210  -51.7656 H         1 UNK         0.0600 
    214 H214       -9.4856  -20.6133  -50.4231 H         1 UNK         0.0600 
    215 H215       -6.3786  -22.9364  -52.0700 H         1 UNK         0.3000 
    216 H216       -5.0201  -21.4526  -54.1759 H         1 UNK         0.0600 
    217 H217       -4.3258  -23.7361  -54.9020 H         1 UNK         0.0600 
    218 H218       -6.0559  -23.6785  -54.6041 H         1 UNK         0.0600 
    219 H219       -4.9784  -24.4268  -53.4227 H         1 UNK         0.0600 
    220 H220       -4.1899  -22.3556  -50.9367 H         1 UNK         0.3000 
    221 H221       -2.3703  -22.5844  -49.7269 H         1 UNK         0.0600 
    222 H222       -1.2576  -20.5337  -51.7080 H         1 UNK         0.0600 
    223 H223       -2.0469  -20.2094  -50.1673 H         1 UNK         0.0600 
    224 H224       -0.4650  -20.9649  -50.1976 H         1 UNK         0.0600 
    225 H225       -2.6832  -24.7316  -50.8865 H         1 UNK         0.3000 
    226 H226       -2.0079  -26.6364  -51.7196 H         1 UNK         0.0600 
    227 H227        0.1050  -26.4712  -50.4230 H         1 UNK         0.0600 
    228 H228        0.3700  -27.2612  -51.9683 H         1 UNK         0.0600 
    229 H229        0.8812  -25.5984  -51.7386 H         1 UNK         0.0600 
    230 H230        0.0621  -24.2783  -53.4133 H         1 UNK         0.3000 
    231 H231       -1.5276  -24.3395  -55.8221 H         1 UNK         0.0600 
    232 H232        0.2792  -25.1967  -57.3369 H         1 UNK         0.0600 
    233 H233       -0.2104  -26.4350  -56.1977 H         1 UNK         0.0600 
    234 H234        1.2933  -25.5515  -55.9426 H         1 UNK         0.0600 
    235 H235        0.1786  -22.5907  -53.6438 H         1 UNK         0.3000 
    236 H236        1.9325  -21.0511  -55.3263 H         1 UNK         0.0600 
    237 H237        2.3659  -21.3824  -52.9123 H         1 UNK         0.0600 
    238 H238        2.2119  -19.6706  -53.2802 H         1 UNK         0.0600 
    239 H239        0.8873  -20.5207  -52.5002 H         1 UNK         0.0600 
    240 H240       -1.4679  -20.7116  -54.3771 H         1 UNK         0.3000 
    241 H241       -1.7117  -18.2608  -56.0408 H         1 UNK         0.0600 
    242 H242       -4.0617  -21.2034  -56.9407 H         1 UNK         0.3800 
    243 H243       -2.4435  -21.3490  -56.3023 H         1 UNK         0.3800 
    244 H244       -3.4191  -17.3974  -54.3332 H         1 UNK         0.0800 
    245 H245       -2.8540  -18.6225  -53.2284 H         1 UNK         0.0800 
    246 H246       -0.0874  -16.7738  -51.4972 H         1 UNK         0.0800 
    247 H247       -1.0945  -18.1909  -51.5962 H         1 UNK         0.0800 
@<TRIPOS>BOND
     1    1    2 1    
     2    1  127 1    
     3    1  128 1    
     4    1  129 1    
     5    2    3 2    
     6    2    4 am   BACKBONE|DICT|INTERRES
     7    4    5 1    
     8    4  130 1    
     9    5    6 1    
    10    5   65 1    
    11    5  131 1    
    12    6    7 1    
    13    6  132 1    
    14    6  133 1    
    15    7    8 1    
    16    8    9 1    
    17    8  134 1    
    18    8  135 1    
    19    9   10 ar   
    20    9   14 ar   
    21   10   11 ar   
    22   10  136 1    
    23   11   12 ar   
    24   11  126 1    
    25   12   13 ar   
    26   12  137 1    
    27   13   14 ar   
    28   13   15 1    
    29   14  138 1    
    30   15   16 1    
    31   15  139 1    
    32   15  140 1    
    33   16   17 1    
    34   17   18 1    
    35   17  141 1    
    36   17  142 1    
    37   18   19 1    
    38   18   67 1    
    39   18  143 1    
    40   19   20 am   BACKBONE|DICT|INTERRES
    41   19  144 1    
    42   20   21 2    
    43   20   22 1    
    44   22   23 1    
    45   22   24 1    
    46   22  145 1    
    47   23  146 1    
    48   23  147 1    
    49   23  148 1    
    50   24   25 am   BACKBONE|DICT|INTERRES
    51   24  149 1    
    52   25   26 2    
    53   25   27 1    
    54   27   28 1    
    55   27   29 1    
    56   27  150 1    
    57   28  151 1    
    58   28  152 1    
    59   28  153 1    
    60   29   30 am   BACKBONE|DICT|INTERRES
    61   29  154 1    
    62   30   31 2    
    63   30   32 1    
    64   32   33 1    
    65   32   34 1    
    66   32  155 1    
    67   33  156 1    
    68   33  157 1    
    69   33  158 1    
    70   34   35 am   BACKBONE|DICT|INTERRES
    71   34  159 1    
    72   35   36 2    
    73   35   37 1    
    74   37   38 1    
    75   37   39 1    
    76   37  160 1    
    77   38  161 1    
    78   38  162 1    
    79   38  163 1    
    80   39   40 am   BACKBONE|DICT|INTERRES
    81   39  164 1    
    82   40   41 2    
    83   40   42 1    
    84   42   43 1    
    85   42   44 1    
    86   42  165 1    
    87   43  166 1    
    88   43  167 1    
    89   43  168 1    
    90   44   45 am   BACKBONE|DICT|INTERRES
    91   44  169 1    
    92   45   46 2    
    93   45   47 1    
    94   47   48 1    
    95   47   49 1    
    96   47  170 1    
    97   48  171 1    
    98   48  172 1    
    99   48  173 1    
   100   49   50 am   BACKBONE|DICT|INTERRES
   101   49  174 1    
   102   50   51 2    
   103   50   52 1    
   104   52   53 1    
   105   52   54 1    
   106   52  175 1    
   107   53  176 1    
   108   53  177 1    
   109   53  178 1    
   110   54   55 am   BACKBONE|DICT|INTERRES
   111   54  179 1    
   112   55   56 2    
   113   55   57 1    
   114   57   58 1    
   115   57   59 1    
   116   57  180 1    
   117   58  181 1    
   118   58  182 1    
   119   58  183 1    
   120   59   60 am   BACKBONE|DICT|INTERRES
   121   59  184 1    
   122   60   61 2    
   123   60   62 1    
   124   62   63 1    
   125   62   64 1    
   126   62  185 1    
   127   63  186 1    
   128   63  187 1    
   129   63  188 1    
   130   64   65 am   BACKBONE|DICT|INTERRES
   131   64  189 1    
   132   65   66 2    
   133   67   68 2    
   134   67   69 am   BACKBONE|DICT|INTERRES
   135   69   70 1    
   136   69  190 1    
   137   70   71 1    
   138   70   72 1    
   139   70  191 1    
   140   71  192 1    
   141   71  193 1    
   142   71  194 1    
   143   72   73 2    
   144   72   74 am   BACKBONE|DICT|INTERRES
   145   74   75 1    
   146   74  195 1    
   147   75   76 1    
   148   75   77 1    
   149   75  196 1    
   150   76  197 1    
   151   76  198 1    
   152   76  199 1    
   153   77   78 2    
   154   77   79 am   BACKBONE|DICT|INTERRES
   155   79   80 1    
   156   79  200 1    
   157   80   81 1    
   158   80   82 1    
   159   80  201 1    
   160   81  202 1    
   161   81  203 1    
   162   81  204 1    
   163   82   83 2    
   164   82   84 am   BACKBONE|DICT|INTERRES
   165   84   85 1    
   166   84  205 1    
   167   85   86 1    
   168   85   87 1    
   169   85  206 1    
   170   86  207 1    
   171   86  208 1    
   172   86  209 1    
   173   87   88 2    
   174   87   89 am   BACKBONE|DICT|INTERRES
   175   89   90 1    
   176   89  210 1    
   177   90   91 1    
   178   90   92 1    
   179   90  211 1    
   180   91  212 1    
   181   91  213 1    
   182   91  214 1    
   183   92   93 2    
   184   92   94 am   BACKBONE|DICT|INTERRES
   185   94   95 1    
   186   94  215 1    
   187   95   96 1    
   188   95   97 1    
   189   95  216 1    
   190   96  217 1    
   191   96  218 1    
   192   96  219 1    
   193   97   98 2    
   194   97   99 am   BACKBONE|DICT|INTERRES
   195   99  100 1    
   196   99  220 1    
   197  100  101 1    
   198  100  102 1    
   199  100  221 1    
   200  101  222 1    
   201  101  223 1    
   202  101  224 1    
   203  102  103 2    
   204  102  104 am   BACKBONE|DICT|INTERRES
   205  104  105 1    
   206  104  225 1    
   207  105  106 1    
   208  105  107 1    
   209  105  226 1    
   210  106  227 1    
   211  106  228 1    
   212  106  229 1    
   213  107  108 2    
   214  107  109 am   BACKBONE|DICT|INTERRES
   215  109  110 1    
   216  109  230 1    
   217  110  111 1    
   218  110  112 1    
   219  110  231 1    
   220  111  232 1    
   221  111  233 1    
   222  111  234 1    
   223  112  113 2    
   224  112  114 am   BACKBONE|DICT|INTERRES
   225  114  115 1    
   226  114  235 1    
   227  115  116 1    
   228  115  117 1    
   229  115  236 1    
   230  116  237 1    
   231  116  238 1    
   232  116  239 1    
   233  117  118 2    
   234  117  119 am   BACKBONE|DICT|INTERRES
   235  119  120 1    
   236  119  240 1    
   237  120  121 1    
   238  120  124 1    
   239  120  241 1    
   240  121  122 am   BACKBONE|DICT|INTERRES
   241  121  123 2    
   242  122  242 1    
   243  122  243 1    
   244  124  125 1    
   245  124  244 1    
   246  124  245 1    
   247  125  126 1    
   248  126  246 1    
   249  126  247 1    
@<TRIPOS>SUBSTRUCTURE
     1 UNK         1 GROUP             0       ****    0 ROOT    
