@<TRIPOS>MOLECULE
3R540
247   249    1
SMALL
USER_CHARGES


@<TRIPOS>ATOM
      1 CA         -2.8242  -11.7798  -52.6932 C.3       0 UNK        -0.1800 
      2 C          -2.2774  -12.9464  -51.8824 C.2       0 UNK         0.5000 
      3 O          -1.0833  -12.9758  -51.5885 O.2       0 UNK        -0.5000 
      4 N          -3.1481  -13.9056  -51.5434 N.am      1 UNK        -0.5000 
      5 CA         -2.8625  -15.1226  -50.7764 C.3       1 UNK         0.1400 
      6 C6         -4.1412  -16.0066  -50.6725 C.3       23 UNK        -0.0398 
      7 S7         -4.2369  -17.2705  -49.3514 S.3       23 UNK        -0.2404 
      8 C8         -3.6049  -18.7508  -50.1973 C.3       23 UNK        -0.0205 
      9 C9         -2.0966  -18.6847  -50.3635 C.ar      23 UNK        -0.0193 
     10 C10        -1.5321  -18.3188  -51.5865 C.ar      23 UNK        -0.1150 
     11 C11        -0.1460  -18.2085  -51.7236 C.ar      23 UNK        -0.0193 
     12 C12         0.6793  -18.4934  -50.6317 C.ar      23 UNK        -0.1150 
     13 C13         0.1250  -18.8777  -49.4067 C.ar      23 UNK        -0.0193 
     14 C14        -1.2633  -18.9694  -49.2802 C.ar      23 UNK        -0.1150 
     15 C15         1.0215  -19.1588  -48.2114 C.3       23 UNK        -0.0205 
     16 S16         1.3754  -20.9331  -48.0274 S.3       23 UNK        -0.2404 
     17 C17        -0.1877  -21.5532  -47.3156 C.3       23 UNK        -0.0398 
     18 CA          0.0528  -22.7711  -46.3964 C.3       11 UNK         0.1400 
     19 N           0.7619  -22.4152  -45.1650 N.am      11 UNK        -0.5000 
     20 C           1.3550  -23.2977  -44.3510 C.2       10 UNK         0.5000 
     21 O           1.3543  -24.5127  -44.5481 O.2       10 UNK        -0.5000 
     22 CA          2.0379  -22.7329  -43.0924 C.3       10 UNK         0.1400 
     23 CB          3.3865  -22.0835  -43.4390 C.3       10 UNK        -0.1800 
     24 N           1.1929  -21.7710  -42.3849 N.am      10 UNK        -0.5000 
     25 C           0.0590  -22.0925  -41.7459 C.2       9 UNK         0.5000 
     26 O          -0.3679  -23.2438  -41.6487 O.2       9 UNK        -0.5000 
     27 CA         -0.7503  -20.9319  -41.1356 C.3       9 UNK         0.1400 
     28 CB         -0.1900  -20.5426  -39.7595 C.3       9 UNK        -0.1800 
     29 N          -0.7957  -19.7472  -41.9933 N.am      9 UNK        -0.5000 
     30 C          -1.3416  -19.7126  -43.2170 C.2       8 UNK         0.5000 
     31 O          -1.8932  -20.6727  -43.7506 O.2       8 UNK        -0.5000 
     32 CA         -1.1865  -18.4038  -44.0077 C.3       8 UNK         0.1400 
     33 CB         -2.1956  -17.3486  -43.5294 C.3       8 UNK        -0.1800 
     34 N           0.1738  -17.8685  -43.9392 N.am      8 UNK        -0.5000 
     35 C           1.2655  -18.5197  -44.3670 C.2       7 UNK         0.5000 
     36 O           1.2386  -19.6391  -44.8729 O.2       7 UNK        -0.5000 
     37 CA          2.6191  -17.8308  -44.1443 C.3       7 UNK         0.1400 
     38 CB          2.8787  -16.7661  -45.2207 C.3       7 UNK        -0.1800 
     39 N           2.7003  -17.2349  -42.8122 N.am      7 UNK        -0.5000 
     40 C           2.7419  -17.9440  -41.6742 C.2       6 UNK         0.5000 
     41 O           2.7858  -19.1740  -41.6326 O.2       6 UNK        -0.5000 
     42 CA          2.6722  -17.1394  -40.3640 C.3       6 UNK         0.1400 
     43 CB          4.0621  -16.6160  -39.9725 C.3       6 UNK        -0.1800 
     44 N           1.7360  -16.0169  -40.4510 N.am      6 UNK        -0.5000 
     45 C           0.4083  -16.1479  -40.5852 C.2       5 UNK         0.5000 
     46 O          -0.1715  -17.2335  -40.6046 O.2       5 UNK        -0.5000 
     47 CA         -0.3995  -14.8496  -40.7716 C.3       5 UNK         0.1400 
     48 CB         -0.8024  -14.2650  -39.4099 C.3       5 UNK        -0.1800 
     49 N           0.3178  -13.8316  -41.5459 N.am      5 UNK        -0.5000 
     50 C           0.6423  -13.9553  -42.8393 C.2       4 UNK         0.5000 
     51 O           0.3846  -14.9549  -43.5144 O.2       4 UNK        -0.5000 
     52 CA          1.4469  -12.8007  -43.4571 C.3       4 UNK         0.1400 
     53 CB          2.9495  -13.1179  -43.4085 C.3       4 UNK        -0.1800 
     54 N           1.0562  -12.5844  -44.8472 N.am      4 UNK        -0.5000 
     55 C           0.0517  -11.8008  -45.2537 C.2       3 UNK         0.5000 
     56 O          -0.6283  -11.1158  -44.4882 O.2       3 UNK        -0.5000 
     57 CA         -0.2600  -11.7793  -46.7650 C.3       3 UNK         0.1400 
     58 CB          0.8029  -10.9917  -47.5548 C.3       3 UNK        -0.1800 
     59 N          -0.4901  -13.1095  -47.3394 N.am      3 UNK        -0.5000 
     60 C           0.3606  -14.1318  -47.4857 C.2       2 UNK         0.5000 
     61 O           1.5626  -14.0689  -47.2247 O.2       2 UNK        -0.5000 
     62 CA         -0.2351  -15.4728  -47.9502 C.3       2 UNK         0.1400 
     63 CB         -1.0186  -16.1303  -46.8028 C.3       2 UNK        -0.1800 
     64 N          -1.0412  -15.4335  -49.1749 N.am      2 UNK        -0.5000 
     65 C          -2.2055  -14.8119  -49.4126 C.2       1 UNK         0.5000 
     66 O          -2.7721  -14.0532  -48.6211 O.2       1 UNK        -0.5000 
     67 C          -1.2579  -23.5332  -46.1208 C.2       11 UNK         0.5000 
     68 O          -1.6044  -24.4147  -46.9050 O.2       11 UNK        -0.5000 
     69 N          -1.9497  -23.2405  -45.0088 N.am      12 UNK        -0.5000 
     70 CA         -3.1614  -23.9452  -44.5711 C.3       12 UNK         0.1400 
     71 CB         -3.7223  -23.2887  -43.3016 C.3       12 UNK        -0.1800 
     72 C          -2.9484  -25.4549  -44.3470 C.2       12 UNK         0.5000 
     73 O          -3.8355  -26.2455  -44.6698 O.2       12 UNK        -0.5000 
     74 N          -1.7551  -25.8332  -43.8667 N.am      13 UNK        -0.5000 
     75 CA         -1.3234  -27.2251  -43.7090 C.3       13 UNK         0.1400 
     76 CB         -0.0714  -27.2652  -42.8198 C.3       13 UNK        -0.1800 
     77 C          -1.0661  -27.9458  -45.0508 C.2       13 UNK         0.5000 
     78 O          -1.0499  -29.1765  -45.0791 O.2       13 UNK        -0.5000 
     79 N          -0.8993  -27.1780  -46.1357 N.am      14 UNK        -0.5000 
     80 CA         -0.7445  -27.6452  -47.5129 C.3       14 UNK         0.1400 
     81 CB          0.4551  -26.9167  -48.1461 C.3       14 UNK        -0.1800 
     82 C          -2.0436  -27.4319  -48.3200 C.2       14 UNK         0.5000 
     83 O          -1.9840  -27.2482  -49.5368 O.2       14 UNK        -0.5000 
     84 N          -3.1966  -27.4387  -47.6307 N.am      15 UNK        -0.5000 
     85 CA         -4.5540  -27.2670  -48.1651 C.3       15 UNK         0.1400 
     86 CB         -4.9473  -28.4677  -49.0510 C.3       15 UNK        -0.1800 
     87 C          -4.7568  -25.9049  -48.8631 C.2       15 UNK         0.5000 
     88 O          -5.3725  -25.8353  -49.9272 O.2       15 UNK        -0.5000 
     89 N          -4.1991  -24.8557  -48.2438 N.am      16 UNK        -0.5000 
     90 CA         -4.1402  -23.4518  -48.6701 C.3       16 UNK         0.1400 
     91 CB         -5.5236  -22.8889  -49.0549 C.3       16 UNK        -0.1800 
     92 C          -3.0734  -23.1652  -49.7445 C.2       16 UNK         0.5000 
     93 O          -2.8710  -21.9982  -50.0709 O.2       16 UNK        -0.5000 
     94 N          -2.3824  -24.2015  -50.2411 N.am      17 UNK        -0.5000 
     95 CA         -1.2495  -24.1998  -51.1760 C.3       17 UNK         0.1400 
     96 CB         -0.0461  -23.4416  -50.5831 C.3       17 UNK        -0.1800 
     97 C          -1.5512  -23.7047  -52.6066 C.2       17 UNK         0.5000 
     98 O          -1.0507  -24.3041  -53.5596 O.2       17 UNK        -0.5000 
     99 N          -2.3365  -22.6336  -52.7486 N.am      18 UNK        -0.5000 
    100 CA        -2.6477  -21.9608  -54.0057 C.3       18 UNK         0.1400 
    101 CB        -1.4814  -21.0249  -54.3814 C.3       18 UNK        -0.1800 
    102 C         -3.9852  -21.2058  -53.8997 C.2       18 UNK         0.5000 
    103 O         -4.6643  -21.2751  -52.8720 O.2       18 UNK        -0.5000 
    104 N         -4.3463  -20.5152  -54.9886 N.am      19 UNK        -0.5000 
    105 CA        -5.5384  -19.6760  -55.1208 C.3       19 UNK         0.1400 
    106 CB        -5.7349  -19.3621  -56.6148 C.3       19 UNK        -0.1800 
    107 C         -5.4610  -18.3759  -54.2913 C.2       19 UNK         0.5000 
    108 O         -4.4270  -18.0738  -53.6943 O.2       19 UNK        -0.5000 
    109 N         -6.5628  -17.6104  -54.2994 N.am      20 UNK        -0.5000 
    110 CA        -6.7573  -16.3528  -53.5641 C.3       20 UNK         0.1400 
    111 CB        -8.1988  -15.8701  -53.7856 C.3       20 UNK        -0.1800 
    112 C         -5.7589  -15.2226  -53.8988 C.2       20 UNK         0.5000 
    113 O         -5.5976  -14.3064  -53.0905 O.2       20 UNK        -0.5000 
    114 N         -5.0925  -15.3154  -55.0528 N.am      21 UNK        -0.5000 
    115 CA        -3.9391  -14.5102  -55.4299 C.3       21 UNK         0.1400 
    116 CB        -4.3495  -13.4874  -56.4999 C.3       21 UNK        -0.1800 
    117 C         -2.8606  -15.4669  -55.9546 C.2       21 UNK         0.5000 
    118 O         -3.1945  -16.4570  -56.6111 O.2       21 UNK        -0.5000 
    119 N         -1.5945  -15.1563  -55.6582 N.am      22 UNK        -0.5000 
    120 CA        -0.4311  -15.9954  -55.9977 C.3       22 UNK         0.1400 
    121 C          0.0500  -15.8786  -57.4746 C.2       22 UNK         0.5000 
    122 N         -0.4843  -14.9711  -58.2828 N.am      22 UNK        -0.7600 
    123 O          0.9217  -16.6324  -57.8985 O.2       22 UNK        -0.5000 
    124 C124        0.7490  -15.7782  -55.0126 C.3       23 UNK        -0.0398 
    125 S125        0.2698  -15.9670  -53.2614 S.3       23 UNK        -0.2404 
    126 C126        0.4476  -17.7632  -53.0491 C.3       23 UNK        -0.0205 
    127 H127       -2.2976  -11.7032  -53.6445 H         1 UNK         0.0600 
    128 H128       -2.6837  -10.8463  -52.1483 H         1 UNK         0.0600 
    129 H129       -3.8884  -11.8944  -52.9025 H         1 UNK         0.0600 
    130 H130       -4.1063  -13.8234  -51.8697 H         1 UNK         0.3000 
    131 H131       -2.1344  -15.6761  -51.3694 H         1 UNK         0.0600 
    132 H132       -5.0080  -15.3631  -50.5136 H         1 UNK         0.0800 
    133 H133       -4.3139  -16.4940  -51.6300 H         1 UNK         0.0800 
    134 H134       -4.1013  -18.8825  -51.1595 H         1 UNK         0.0800 
    135 H135       -3.8653  -19.6260  -49.6017 H         1 UNK         0.0800 
    136 H136       -2.1720  -18.0928  -52.4277 H         1 UNK         0.1150 
    137 H137        1.7522  -18.4088  -50.7324 H         1 UNK         0.1150 
    138 H138       -1.7031  -19.2488  -48.3341 H         1 UNK         0.1150 
    139 H139        1.9669  -18.6259  -48.3212 H         1 UNK         0.0800 
    140 H140        0.5630  -18.7724  -47.3015 H         1 UNK         0.0800 
    141 H141       -0.8438  -21.8103  -48.1482 H         1 UNK         0.0800 
    142 H142       -0.6876  -20.7588  -46.7593 H         1 UNK         0.0800 
    143 H143        0.6905  -23.4697  -46.9432 H         1 UNK         0.0600 
    144 H144        0.8493  -21.4203  -44.9641 H         1 UNK         0.3000 
    145 H145        2.2329  -23.5691  -42.4176 H         1 UNK         0.0600 
    146 H146        3.9000  -21.7398  -42.5409 H         1 UNK         0.0600 
    147 H147        4.0445  -22.7953  -43.9388 H         1 UNK         0.0600 
    148 H148        3.2667  -21.2269  -44.1023 H         1 UNK         0.0600 
    149 H149        1.4898  -20.8027  -42.4013 H         1 UNK         0.3000 
    150 H150       -1.7760  -21.2809  -40.9996 H         1 UNK         0.0600 
    151 H151       -0.1605  -21.4037  -39.0907 H         1 UNK         0.0600 
    152 H152       -0.8086  -19.7814  -39.2837 H         1 UNK         0.0600 
    153 H153        0.8240  -20.1485  -39.8350 H         1 UNK         0.0600 
    154 H154       -0.3939  -18.8940  -41.6148 H         1 UNK         0.3000 
    155 H155       -1.3979  -18.6249  -45.0557 H         1 UNK         0.0600 
    156 H156       -3.2182  -17.6979  -43.6763 H         1 UNK         0.0600 
    157 H157       -2.0894  -16.4137  -44.0788 H         1 UNK         0.0600 
    158 H158       -2.0776  -17.1262  -42.4697 H         1 UNK         0.0600 
    159 H159        0.2776  -16.9268  -43.5737 H         1 UNK         0.3000 
    160 H160        3.3992  -18.5908  -44.2259 H         1 UNK         0.0600 
    161 H161        2.1311  -15.9739  -45.2008 H         1 UNK         0.0600 
    162 H162        2.8550  -17.2080  -46.2175 H         1 UNK         0.0600 
    163 H163        3.8586  -16.3063  -45.0934 H         1 UNK         0.0600 
    164 H164        2.6199  -16.2314  -42.7560 H         1 UNK         0.3000 
    165 H165        2.3250  -17.8127  -39.5773 H         1 UNK         0.0600 
    166 H166        4.0346  -16.1081  -39.0083 H         1 UNK         0.0600 
    167 H167        4.7769  -17.4355  -39.8867 H         1 UNK         0.0600 
    168 H168        4.4534  -15.9148  -40.7107 H         1 UNK         0.0600 
    169 H169        2.1301  -15.0881  -40.4355 H         1 UNK         0.3000 
    170 H170       -1.3118  -15.1031  -41.3152 H         1 UNK         0.0600 
    171 H171       -1.3573  -14.9962  -38.8204 H         1 UNK         0.0600 
    172 H172        0.0681  -13.9646  -38.8254 H         1 UNK         0.0600 
    173 H173       -1.4446  -13.3922  -39.5298 H         1 UNK         0.0600 
    174 H174        0.5704  -12.9867  -41.0536 H         1 UNK         0.3000 
    175 H175        1.2670  -11.8902  -42.8817 H         1 UNK         0.0600 
    176 H176        3.1937  -14.0099  -43.9860 H         1 UNK         0.0600 
    177 H177        3.5372  -12.2919  -43.8095 H         1 UNK         0.0600 
    178 H178        3.2840  -13.2859  -42.3840 H         1 UNK         0.0600 
    179 H179        1.5052  -13.1673  -45.5481 H         1 UNK         0.3000 
    180 H180       -1.2061  -11.2483  -46.8814 H         1 UNK         0.0600 
    181 H181        1.7930  -11.4407  -47.4749 H         1 UNK         0.0600 
    182 H182        0.8807   -9.9689  -47.1843 H         1 UNK         0.0600 
    183 H183        0.5448  -10.9361  -48.6125 H         1 UNK         0.0600 
    184 H184       -1.4518  -13.2997  -47.6162 H         1 UNK         0.3000 
    185 H185        0.6116  -16.1215  -48.1789 H         1 UNK         0.0600 
    186 H186       -0.3980  -16.1888  -45.9108 H         1 UNK         0.0600 
    187 H187       -1.9117  -15.5649  -46.5363 H         1 UNK         0.0600 
    188 H188       -1.3298  -17.1416  -47.0581 H         1 UNK         0.0600 
    189 H189       -0.6717  -16.0050  -49.9227 H         1 UNK         0.3000 
    190 H190       -1.6583  -22.4508  -44.4386 H         1 UNK         0.3000 
    191 H191       -3.9074  -23.8369  -45.3605 H         1 UNK         0.0600 
    192 H192       -2.9893  -23.2804  -42.4947 H         1 UNK         0.0600 
    193 H193       -4.6034  -23.8207  -42.9405 H         1 UNK         0.0600 
    194 H194       -4.0254  -22.2593  -43.4917 H         1 UNK         0.0600 
    195 H195       -1.0740  -25.1192  -43.6437 H         1 UNK         0.3000 
    196 H196       -2.1195  -27.7683  -43.1957 H         1 UNK         0.0600 
    197 H197        0.2261  -28.2938  -42.6121 H         1 UNK         0.0600 
    198 H198       -0.2509  -26.7788  -41.8607 H         1 UNK         0.0600 
    199 H199        0.7761  -26.7704  -43.2939 H         1 UNK         0.0600 
    200 H200       -0.9750  -26.1726  -46.0335 H         1 UNK         0.3000 
    201 H201       -0.5337  -28.7160  -47.5278 H         1 UNK         0.0600 
    202 H202        1.3609  -27.0657  -47.5583 H         1 UNK         0.0600 
    203 H203        0.2793  -25.8437  -48.2216 H         1 UNK         0.0600 
    204 H204        0.6572  -27.2883  -49.1513 H         1 UNK         0.0600 
    205 H205       -3.1394  -27.5504  -46.6273 H         1 UNK         0.3000 
    206 H206       -5.2216  -27.2645  -47.3022 H         1 UNK         0.0600 
    207 H207       -4.8124  -29.4099  -48.5199 H         1 UNK         0.0600 
    208 H208       -5.9960  -28.4095  -49.3446 H         1 UNK         0.0600 
    209 H209       -4.3544  -28.5099  -49.9651 H         1 UNK         0.0600 
    210 H210       -3.6208  -25.0602  -47.4380 H         1 UNK         0.3000 
    211 H211       -3.8145  -22.9008  -47.7872 H         1 UNK         0.0600 
    212 H212       -6.2685  -23.1068  -48.2897 H         1 UNK         0.0600 
    213 H213       -5.8801  -23.2926  -50.0026 H         1 UNK         0.0600 
    214 H214       -5.4810  -21.8049  -49.1677 H         1 UNK         0.0600 
    215 H215       -2.6357  -25.1227  -49.9063 H         1 UNK         0.3000 
    216 H216       -0.9569  -25.2470  -51.2670 H         1 UNK         0.0600 
    217 H217        0.8386  -23.5675  -51.2080 H         1 UNK         0.0600 
    218 H218        0.2034  -23.8088  -49.5881 H         1 UNK         0.0600 
    219 H219       -0.2373  -22.3703  -50.5078 H         1 UNK         0.0600 
    220 H220       -2.7331  -22.2080  -51.9118 H         1 UNK         0.3000 
    221 H221       -2.7697  -22.7121  -54.7885 H         1 UNK         0.0600 
    222 H222       -1.3335  -20.2641  -53.6170 H         1 UNK         0.0600 
    223 H223       -0.5467  -21.5761  -54.4851 H         1 UNK         0.0600 
    224 H224       -1.6553  -20.5141  -55.3286 H         1 UNK         0.0600 
    225 H225       -3.7124  -20.4957  -55.7732 H         1 UNK         0.3000 
    226 H226       -6.3982  -20.2477  -54.7657 H         1 UNK         0.0600 
    227 H227       -5.7968  -20.2767  -57.2050 H         1 UNK         0.0600 
    228 H228       -6.6571  -18.8078  -56.7914 H         1 UNK         0.0600 
    229 H229       -4.9123  -18.7641  -57.0099 H         1 UNK         0.0600 
    230 H230       -7.3598  -17.9291  -54.8311 H         1 UNK         0.3000 
    231 H231       -6.6370  -16.5788  -52.5030 H         1 UNK         0.0600 
    232 H232       -8.9216  -16.6139  -53.4498 H         1 UNK         0.0600 
    233 H233       -8.3944  -15.6604  -54.8380 H         1 UNK         0.0600 
    234 H234       -8.3961  -14.9542  -53.2265 H         1 UNK         0.0600 
    235 H235       -5.2315  -16.1377  -55.6251 H         1 UNK         0.3000 
    236 H236       -3.5418  -13.9828  -54.5614 H         1 UNK         0.0600 
    237 H237       -3.5004  -12.8712  -56.7978 H         1 UNK         0.0600 
    238 H238       -4.7354  -13.9749  -57.3961 H         1 UNK         0.0600 
    239 H239       -5.1225  -12.8167  -56.1243 H         1 UNK         0.0600 
    240 H240       -1.3943  -14.3259  -55.1210 H         1 UNK         0.3000 
    241 H241       -0.7435  -17.0356  -55.8860 H         1 UNK         0.0600 
    242 H242       -1.2055  -14.3510  -57.9520 H         1 UNK         0.3800 
    243 H243       -0.1677  -14.9086  -59.2379 H         1 UNK         0.3800 
    244 H244        1.5657  -16.4701  -55.2267 H         1 UNK         0.0800 
    245 H245        1.1625  -14.7762  -55.1382 H         1 UNK         0.0800 
    246 H246        1.5022  -18.0358  -53.1123 H         1 UNK         0.0800 
    247 H247       -0.0574  -18.2790  -53.8661 H         1 UNK         0.0800 
@<TRIPOS>BOND
     1    1    2 1    
     2    1  127 1    
     3    1  128 1    
     4    1  129 1    
     5    2    3 2    
     6    2    4 am   BACKBONE|DICT|INTERRES
     7    4    5 1    
     8    4  130 1    
     9    5    6 1    
    10    5   65 1    
    11    5  131 1    
    12    6    7 1    
    13    6  132 1    
    14    6  133 1    
    15    7    8 1    
    16    8    9 1    
    17    8  134 1    
    18    8  135 1    
    19    9   10 ar   
    20    9   14 ar   
    21   10   11 ar   
    22   10  136 1    
    23   11   12 ar   
    24   11  126 1    
    25   12   13 ar   
    26   12  137 1    
    27   13   14 ar   
    28   13   15 1    
    29   14  138 1    
    30   15   16 1    
    31   15  139 1    
    32   15  140 1    
    33   16   17 1    
    34   17   18 1    
    35   17  141 1    
    36   17  142 1    
    37   18   19 1    
    38   18   67 1    
    39   18  143 1    
    40   19   20 am   BACKBONE|DICT|INTERRES
    41   19  144 1    
    42   20   21 2    
    43   20   22 1    
    44   22   23 1    
    45   22   24 1    
    46   22  145 1    
    47   23  146 1    
    48   23  147 1    
    49   23  148 1    
    50   24   25 am   BACKBONE|DICT|INTERRES
    51   24  149 1    
    52   25   26 2    
    53   25   27 1    
    54   27   28 1    
    55   27   29 1    
    56   27  150 1    
    57   28  151 1    
    58   28  152 1    
    59   28  153 1    
    60   29   30 am   BACKBONE|DICT|INTERRES
    61   29  154 1    
    62   30   31 2    
    63   30   32 1    
    64   32   33 1    
    65   32   34 1    
    66   32  155 1    
    67   33  156 1    
    68   33  157 1    
    69   33  158 1    
    70   34   35 am   BACKBONE|DICT|INTERRES
    71   34  159 1    
    72   35   36 2    
    73   35   37 1    
    74   37   38 1    
    75   37   39 1    
    76   37  160 1    
    77   38  161 1    
    78   38  162 1    
    79   38  163 1    
    80   39   40 am   BACKBONE|DICT|INTERRES
    81   39  164 1    
    82   40   41 2    
    83   40   42 1    
    84   42   43 1    
    85   42   44 1    
    86   42  165 1    
    87   43  166 1    
    88   43  167 1    
    89   43  168 1    
    90   44   45 am   BACKBONE|DICT|INTERRES
    91   44  169 1    
    92   45   46 2    
    93   45   47 1    
    94   47   48 1    
    95   47   49 1    
    96   47  170 1    
    97   48  171 1    
    98   48  172 1    
    99   48  173 1    
   100   49   50 am   BACKBONE|DICT|INTERRES
   101   49  174 1    
   102   50   51 2    
   103   50   52 1    
   104   52   53 1    
   105   52   54 1    
   106   52  175 1    
   107   53  176 1    
   108   53  177 1    
   109   53  178 1    
   110   54   55 am   BACKBONE|DICT|INTERRES
   111   54  179 1    
   112   55   56 2    
   113   55   57 1    
   114   57   58 1    
   115   57   59 1    
   116   57  180 1    
   117   58  181 1    
   118   58  182 1    
   119   58  183 1    
   120   59   60 am   BACKBONE|DICT|INTERRES
   121   59  184 1    
   122   60   61 2    
   123   60   62 1    
   124   62   63 1    
   125   62   64 1    
   126   62  185 1    
   127   63  186 1    
   128   63  187 1    
   129   63  188 1    
   130   64   65 am   BACKBONE|DICT|INTERRES
   131   64  189 1    
   132   65   66 2    
   133   67   68 2    
   134   67   69 am   BACKBONE|DICT|INTERRES
   135   69   70 1    
   136   69  190 1    
   137   70   71 1    
   138   70   72 1    
   139   70  191 1    
   140   71  192 1    
   141   71  193 1    
   142   71  194 1    
   143   72   73 2    
   144   72   74 am   BACKBONE|DICT|INTERRES
   145   74   75 1    
   146   74  195 1    
   147   75   76 1    
   148   75   77 1    
   149   75  196 1    
   150   76  197 1    
   151   76  198 1    
   152   76  199 1    
   153   77   78 2    
   154   77   79 am   BACKBONE|DICT|INTERRES
   155   79   80 1    
   156   79  200 1    
   157   80   81 1    
   158   80   82 1    
   159   80  201 1    
   160   81  202 1    
   161   81  203 1    
   162   81  204 1    
   163   82   83 2    
   164   82   84 am   BACKBONE|DICT|INTERRES
   165   84   85 1    
   166   84  205 1    
   167   85   86 1    
   168   85   87 1    
   169   85  206 1    
   170   86  207 1    
   171   86  208 1    
   172   86  209 1    
   173   87   88 2    
   174   87   89 am   BACKBONE|DICT|INTERRES
   175   89   90 1    
   176   89  210 1    
   177   90   91 1    
   178   90   92 1    
   179   90  211 1    
   180   91  212 1    
   181   91  213 1    
   182   91  214 1    
   183   92   93 2    
   184   92   94 am   BACKBONE|DICT|INTERRES
   185   94   95 1    
   186   94  215 1    
   187   95   96 1    
   188   95   97 1    
   189   95  216 1    
   190   96  217 1    
   191   96  218 1    
   192   96  219 1    
   193   97   98 2    
   194   97   99 am   BACKBONE|DICT|INTERRES
   195   99  100 1    
   196   99  220 1    
   197  100  101 1    
   198  100  102 1    
   199  100  221 1    
   200  101  222 1    
   201  101  223 1    
   202  101  224 1    
   203  102  103 2    
   204  102  104 am   BACKBONE|DICT|INTERRES
   205  104  105 1    
   206  104  225 1    
   207  105  106 1    
   208  105  107 1    
   209  105  226 1    
   210  106  227 1    
   211  106  228 1    
   212  106  229 1    
   213  107  108 2    
   214  107  109 am   BACKBONE|DICT|INTERRES
   215  109  110 1    
   216  109  230 1    
   217  110  111 1    
   218  110  112 1    
   219  110  231 1    
   220  111  232 1    
   221  111  233 1    
   222  111  234 1    
   223  112  113 2    
   224  112  114 am   BACKBONE|DICT|INTERRES
   225  114  115 1    
   226  114  235 1    
   227  115  116 1    
   228  115  117 1    
   229  115  236 1    
   230  116  237 1    
   231  116  238 1    
   232  116  239 1    
   233  117  118 2    
   234  117  119 am   BACKBONE|DICT|INTERRES
   235  119  120 1    
   236  119  240 1    
   237  120  121 1    
   238  120  124 1    
   239  120  241 1    
   240  121  122 am   BACKBONE|DICT|INTERRES
   241  121  123 2    
   242  122  242 1    
   243  122  243 1    
   244  124  125 1    
   245  124  244 1    
   246  124  245 1    
   247  125  126 1    
   248  126  246 1    
   249  126  247 1    
@<TRIPOS>SUBSTRUCTURE
     1 UNK         1 GROUP             0       ****    0 ROOT    
