@<TRIPOS>MOLECULE
3R540
247   249    1
SMALL
USER_CHARGES


@<TRIPOS>ATOM
      1 CA         -2.6796  -11.2194  -48.7495 C.3       0 UNK        -0.1800 
      2 C          -1.1649  -11.0862  -48.8193 C.2       0 UNK         0.5000 
      3 O          -0.6611  -10.1089  -49.3729 O.2       0 UNK        -0.5000 
      4 N          -0.4419  -12.0670  -48.2640 N.am      1 UNK        -0.5000 
      5 CA          1.0254  -12.1050  -48.2152 C.3       1 UNK         0.1400 
      6 C6          1.5548  -13.5166  -47.8566 C.3       23 UNK        -0.0398 
      7 S7          1.3622  -14.7013  -49.2297 S.3       23 UNK        -0.2404 
      8 C8         -0.2487  -15.4668  -48.8653 C.3       23 UNK        -0.0205 
      9 C9         -0.5747  -16.5521  -49.8799 C.ar      23 UNK        -0.0193 
     10 C10        -0.9017  -16.2081  -51.1951 C.ar      23 UNK        -0.1150 
     11 C11        -1.1733  -17.1990  -52.1427 C.ar      23 UNK        -0.0193 
     12 C12        -1.1210  -18.5419  -51.7635 C.ar      23 UNK        -0.1150 
     13 C13        -0.8241  -18.9007  -50.4454 C.ar      23 UNK        -0.0193 
     14 C14        -0.5506  -17.8990  -49.5079 C.ar      23 UNK        -0.1150 
     15 C15        -0.8579  -20.3696  -50.0496 C.3       23 UNK        -0.0205 
     16 S16         0.7164  -21.0029  -49.3960 S.3       23 UNK        -0.2404 
     17 C17         0.4449  -20.8535  -47.6008 C.3       23 UNK        -0.0398 
     18 CA         -0.0365  -22.1623  -46.9255 C.3       11 UNK         0.1400 
     19 N           0.3214  -22.1721  -45.5047 N.am      11 UNK        -0.5000 
     20 C           0.1649  -23.2039  -44.6655 C.2       10 UNK         0.5000 
     21 O          -0.2559  -24.3078  -45.0093 O.2       10 UNK        -0.5000 
     22 CA          0.4819  -22.9364  -43.1816 C.3       10 UNK         0.1400 
     23 CB          1.9905  -23.0392  -42.9138 C.3       10 UNK        -0.1800 
     24 N          -0.0162  -21.6352  -42.7267 N.am      10 UNK        -0.5000 
     25 C          -1.3151  -21.3053  -42.6741 C.2       9 UNK         0.5000 
     26 O          -2.2249  -22.0833  -42.9547 O.2       9 UNK        -0.5000 
     27 CA         -1.6637  -19.8564  -42.2927 C.3       9 UNK         0.1400 
     28 CB         -1.6162  -19.6680  -40.7695 C.3       9 UNK        -0.1800 
     29 N          -0.7999  -18.8734  -42.9468 N.am      9 UNK        -0.5000 
     30 C          -0.7304  -18.6805  -44.2721 C.2       8 UNK         0.5000 
     31 O          -1.4243  -19.2866  -45.0881 O.2       8 UNK        -0.5000 
     32 CA          0.3382  -17.6925  -44.7776 C.3       8 UNK         0.1400 
     33 CB         -0.1378  -16.2390  -44.6417 C.3       8 UNK        -0.1800 
     34 N           1.6202  -17.8581  -44.0919 N.am      8 UNK        -0.5000 
     35 C           2.3574  -18.9778  -44.1252 C.2       7 UNK         0.5000 
     36 O           2.0577  -19.9760  -44.7785 O.2       7 UNK        -0.5000 
     37 CA          3.6073  -19.0090  -43.2330 C.3       7 UNK         0.1400 
     38 CB          4.7771  -18.2715  -43.9004 C.3       7 UNK        -0.1800 
     39 N           3.3374  -18.4358  -41.9146 N.am      7 UNK        -0.5000 
     40 C           2.5685  -19.0221  -40.9857 C.2       6 UNK         0.5000 
     41 O           2.0393  -20.1239  -41.1334 O.2       6 UNK        -0.5000 
     42 CA          2.3186  -18.2267  -39.6911 C.3       6 UNK         0.1400 
     43 CB          3.4768  -18.4233  -38.7019 C.3       6 UNK        -0.1800 
     44 N           2.1253  -16.7961  -39.9351 N.am      6 UNK        -0.5000 
     45 C           1.0786  -16.2766  -40.5918 C.2       5 UNK         0.5000 
     46 O           0.1509  -16.9489  -41.0380 O.2       5 UNK        -0.5000 
     47 CA          1.0922  -14.7569  -40.8341 C.3       5 UNK         0.1400 
     48 CB          0.4790  -14.0114  -39.6400 C.3       5 UNK        -0.1800 
     49 N           2.4255  -14.2173  -41.1078 N.am      5 UNK        -0.5000 
     50 C           3.2160  -14.5795  -42.1262 C.2       4 UNK         0.5000 
     51 O           2.9188  -15.4598  -42.9366 O.2       4 UNK        -0.5000 
     52 CA          4.5452  -13.8101  -42.2541 C.3       4 UNK         0.1400 
     53 CB          5.4319  -14.3370  -43.3956 C.3       4 UNK        -0.1800 
     54 N           4.3025  -12.3859  -42.4715 N.am      4 UNK        -0.5000 
     55 C           4.0146  -11.4765  -41.5353 C.2       3 UNK         0.5000 
     56 O           3.9193  -11.7463  -40.3370 O.2       3 UNK        -0.5000 
     57 CA          3.7671  -10.0325  -42.0161 C.3       3 UNK         0.1400 
     58 CB          5.0603   -9.3881  -42.5529 C.3       3 UNK        -0.1800 
     59 N           2.6589   -9.8887  -42.9727 N.am      3 UNK        -0.5000 
     60 C           2.5438  -10.3831  -44.2143 C.2       2 UNK         0.5000 
     61 O           3.3982  -11.0930  -44.7498 O.2       2 UNK        -0.5000 
     62 CA          1.2402  -10.0113  -44.9550 C.3       2 UNK         0.1400 
     63 CB          1.2455   -8.5317  -45.3905 C.3       2 UNK        -0.1800 
     64 N           0.9214  -10.8915  -46.0873 N.am      2 UNK        -0.5000 
     65 C           1.5892  -11.0474  -47.2430 C.2       1 UNK         0.5000 
     66 O           2.5843  -10.4000  -47.5725 O.2       1 UNK        -0.5000 
     67 C          -1.5513  -22.3973  -47.1352 C.2       11 UNK         0.5000 
     68 O          -1.9405  -23.1879  -47.9975 O.2       11 UNK        -0.5000 
     69 N          -2.3801  -21.7288  -46.3205 N.am      12 UNK        -0.5000 
     70 CA         -3.8329  -21.8892  -46.3013 C.3       12 UNK         0.1400 
     71 CB         -4.4687  -20.7699  -45.4650 C.3       12 UNK        -0.1800 
     72 C          -4.2721  -23.2770  -45.8015 C.2       12 UNK         0.5000 
     73 O          -5.1586  -23.8781  -46.4067 O.2       12 UNK        -0.5000 
     74 N          -3.6212  -23.7868  -44.7457 N.am      13 UNK        -0.5000 
     75 CA         -3.8449  -25.1252  -44.1874 C.3       13 UNK         0.1400 
     76 CB         -3.0632  -25.2741  -42.8739 C.3       13 UNK        -0.1800 
     77 C          -3.4836  -26.2598  -45.1658 C.2       13 UNK         0.5000 
     78 O          -4.1447  -27.2985  -45.1636 O.2       13 UNK        -0.5000 
     79 N          -2.4767  -26.0215  -46.0171 N.am      14 UNK        -0.5000 
     80 CA         -2.0857  -26.8870  -47.1321 C.3       14 UNK         0.1400 
     81 CB         -0.6542  -26.5222  -47.5595 C.3       14 UNK        -0.1800 
     82 C          -3.0510  -26.8191  -48.3377 C.2       14 UNK         0.5000 
     83 O          -2.8596  -27.5678  -49.2961 O.2       14 UNK        -0.5000 
     84 N          -4.0495  -25.9229  -48.2818 N.am      15 UNK        -0.5000 
     85 CA         -5.0872  -25.6425  -49.2811 C.3       15 UNK         0.1400 
     86 CB         -5.9242  -26.8974  -49.6017 C.3       15 UNK        -0.1800 
     87 C          -4.5687  -24.9454  -50.5532 C.2       15 UNK         0.5000 
     88 O          -5.3365  -24.7664  -51.4991 O.2       15 UNK        -0.5000 
     89 N          -3.3045  -24.5019  -50.5544 N.am      16 UNK        -0.5000 
     90 CA         -2.6666  -23.8261  -51.6856 C.3       16 UNK         0.1400 
     91 CB         -1.1505  -23.7730  -51.4515 C.3       16 UNK        -0.1800 
     92 C          -3.2533  -22.4285  -51.9695 C.2       16 UNK         0.5000 
     93 O          -3.1653  -21.9525  -53.0999 O.2       16 UNK        -0.5000 
     94 N          -3.8642  -21.8102  -50.9481 N.am      17 UNK        -0.5000 
     95 CA         -4.6080  -20.5545  -51.0635 C.3       17 UNK         0.1400 
     96 CB         -4.8159  -19.9595  -49.6617 C.3       17 UNK        -0.1800 
     97 C          -5.9667  -20.7275  -51.7738 C.2       17 UNK         0.5000 
     98 O          -6.4608  -19.7690  -52.3668 O.2       17 UNK        -0.5000 
     99 N          -6.5530  -21.9304  -51.6895 N.am      18 UNK        -0.5000 
    100 CA        -7.8149  -22.2848  -52.3420 C.3       18 UNK         0.1400 
    101 CB        -8.5631  -23.3039  -51.4677 C.3       18 UNK        -0.1800 
    102 C         -7.5876  -22.8493  -53.7558 C.2       18 UNK         0.5000 
    103 O         -8.4436  -22.6751  -54.6245 O.2       18 UNK        -0.5000 
    104 N         -6.4467  -23.5220  -53.9549 N.am      19 UNK        -0.5000 
    105 CA        -5.9995  -24.0938  -55.2226 C.3       19 UNK         0.1400 
    106 CB        -4.7780  -24.9859  -54.9440 C.3       19 UNK        -0.1800 
    107 C         -5.6487  -23.0289  -56.2812 C.2       19 UNK         0.5000 
    108 O         -5.5067  -21.8433  -55.9685 O.2       19 UNK        -0.5000 
    109 N         -5.4463  -23.4996  -57.5206 N.am      20 UNK        -0.5000 
    110 CA        -5.0656  -22.7077  -58.6970 C.3       20 UNK         0.1400 
    111 CB        -4.9997  -23.6342  -59.9205 C.3       20 UNK        -0.1800 
    112 C         -3.7465  -21.9208  -58.5468 C.2       20 UNK         0.5000 
    113 O         -3.5592  -20.9243  -59.2462 O.2       20 UNK        -0.5000 
    114 N         -2.8915  -22.3355  -57.5998 N.am      21 UNK        -0.5000 
    115 CA        -1.6740  -21.6439  -57.1653 C.3       21 UNK         0.1400 
    116 CB        -0.9779  -22.4988  -56.0944 C.3       21 UNK        -0.1800 
    117 C         -1.9048  -20.2071  -56.6445 C.2       21 UNK         0.5000 
    118 O         -0.9653  -19.4106  -56.6590 O.2       21 UNK        -0.5000 
    119 N         -3.1389  -19.8920  -56.2314 N.am      22 UNK        -0.5000 
    120 CA        -3.6062  -18.5398  -55.8982 C.3       22 UNK         0.1400 
    121 C         -4.8709  -18.1346  -56.7137 C.2       22 UNK         0.5000 
    122 N         -5.1188  -18.7235  -57.8788 N.am      22 UNK        -0.7600 
    123 O         -5.6342  -17.2627  -56.3078 O.2       22 UNK        -0.5000 
    124 C124       -3.7503  -18.3519  -54.3633 C.3       23 UNK        -0.0398 
    125 S125       -3.3079  -16.6621  -53.8286 S.3       23 UNK        -0.2404 
    126 C126       -1.5109  -16.8153  -53.5750 C.3       23 UNK        -0.0205 
    127 H127       -3.1057  -10.3757  -48.2067 H         1 UNK         0.0600 
    128 H128       -2.9842  -12.1370  -48.2456 H         1 UNK         0.0600 
    129 H129       -3.1018  -11.2281  -49.7544 H         1 UNK         0.0600 
    130 H130       -0.9198  -12.8404  -47.8268 H         1 UNK         0.3000 
    131 H131        1.3992  -11.8469  -49.2089 H         1 UNK         0.0600 
    132 H132        1.0759  -13.9038  -46.9560 H         1 UNK         0.0800 
    133 H133        2.6228  -13.4777  -47.6326 H         1 UNK         0.0800 
    134 H134       -0.2367  -15.8753  -47.8536 H         1 UNK         0.0800 
    135 H135       -1.0341  -14.7116  -48.8915 H         1 UNK         0.0800 
    136 H136       -0.9306  -15.1664  -51.4828 H         1 UNK         0.1150 
    137 H137       -1.3259  -19.3112  -52.4941 H         1 UNK         0.1150 
    138 H138       -0.3159  -18.1596  -48.4882 H         1 UNK         0.1150 
    139 H139       -1.6651  -20.5371  -49.3385 H         1 UNK         0.0800 
    140 H140       -1.0951  -20.9687  -50.9256 H         1 UNK         0.0800 
    141 H141        1.4131  -20.5640  -47.1928 H         1 UNK         0.0800 
    142 H142       -0.2258  -20.0264  -47.3727 H         1 UNK         0.0800 
    143 H143        0.4903  -23.0023  -47.3832 H         1 UNK         0.0600 
    144 H144        0.7293  -21.3160  -45.1385 H         1 UNK         0.3000 
    145 H145       -0.0170  -23.7080  -42.5921 H         1 UNK         0.0600 
    146 H146        2.2105  -22.9208  -41.8527 H         1 UNK         0.0600 
    147 H147        2.3753  -24.0128  -43.2196 H         1 UNK         0.0600 
    148 H148        2.5516  -22.2791  -43.4573 H         1 UNK         0.0600 
    149 H149        0.6778  -20.9559  -42.4334 H         1 UNK         0.3000 
    150 H150       -2.6870  -19.6664  -42.6227 H         1 UNK         0.0600 
    151 H151       -2.2595  -20.3906  -40.2658 H         1 UNK         0.0600 
    152 H152       -1.9607  -18.6738  -40.4851 H         1 UNK         0.0600 
    153 H153       -0.6070  -19.7972  -40.3781 H         1 UNK         0.0600 
    154 H154       -0.2369  -18.2892  -42.3344 H         1 UNK         0.3000 
    155 H155        0.5029  -17.8961  -45.8377 H         1 UNK         0.0600 
    156 H156       -0.3290  -15.9733  -43.6021 H         1 UNK         0.0600 
    157 H157       -1.0624  -16.0783  -45.1974 H         1 UNK         0.0600 
    158 H158        0.6046  -15.5432  -45.0327 H         1 UNK         0.0600 
    159 H159        1.9630  -17.0662  -43.5558 H         1 UNK         0.3000 
    160 H160        3.8998  -20.0525  -43.0973 H         1 UNK         0.0600 
    161 H161        4.5237  -17.2378  -44.1343 H         1 UNK         0.0600 
    162 H162        5.0539  -18.7563  -44.8373 H         1 UNK         0.0600 
    163 H163        5.6609  -18.2677  -43.2623 H         1 UNK         0.0600 
    164 H164        3.6828  -17.5030  -41.7444 H         1 UNK         0.3000 
    165 H165        1.4084  -18.6179  -39.2316 H         1 UNK         0.0600 
    166 H166        4.4146  -18.0266  -39.0929 H         1 UNK         0.0600 
    167 H167        3.2724  -17.9285  -37.7523 H         1 UNK         0.0600 
    168 H168        3.6316  -19.4819  -38.4886 H         1 UNK         0.0600 
    169 H169        2.8451  -16.1710  -39.6036 H         1 UNK         0.3000 
    170 H170        0.4735  -14.5598  -41.7116 H         1 UNK         0.0600 
    171 H171       -0.5261  -14.3770  -39.4253 H         1 UNK         0.0600 
    172 H172        1.0757  -14.1389  -38.7359 H         1 UNK         0.0600 
    173 H173        0.3992  -12.9429  -39.8412 H         1 UNK         0.0600 
    174 H174        2.7476  -13.4636  -40.5107 H         1 UNK         0.3000 
    175 H175        5.0932  -13.9403  -41.3187 H         1 UNK         0.0600 
    176 H176        5.7039  -15.3790  -43.2280 H         1 UNK         0.0600 
    177 H177        4.9281  -14.2744  -44.3612 H         1 UNK         0.0600 
    178 H178        6.3605  -13.7703  -43.4662 H         1 UNK         0.0600 
    179 H179        4.2449  -12.0761  -43.4393 H         1 UNK         0.3000 
    180 H180        3.4687   -9.4621  -41.1349 H         1 UNK         0.0600 
    181 H181        4.9022   -8.3382  -42.7995 H         1 UNK         0.0600 
    182 H182        5.8541   -9.4301  -41.8061 H         1 UNK         0.0600 
    183 H183        5.4301   -9.8887  -43.4480 H         1 UNK         0.0600 
    184 H184        1.8836   -9.3431  -42.6222 H         1 UNK         0.3000 
    185 H185        0.4229  -10.1460  -44.2447 H         1 UNK         0.0600 
    186 H186        0.3301   -8.2741  -45.9234 H         1 UNK         0.0600 
    187 H187        1.3143   -7.8683  -44.5278 H         1 UNK         0.0600 
    188 H188        2.0888   -8.3006  -46.0417 H         1 UNK         0.0600 
    189 H189        0.1145  -11.4816  -45.9460 H         1 UNK         0.3000 
    190 H190       -1.9905  -21.0481  -45.6743 H         1 UNK         0.3000 
    191 H191       -4.1899  -21.7853  -47.3270 H         1 UNK         0.0600 
    192 H192       -5.5563  -20.8520  -45.4652 H         1 UNK         0.0600 
    193 H193       -4.2160  -19.7882  -45.8663 H         1 UNK         0.0600 
    194 H194       -4.1364  -20.8019  -44.4275 H         1 UNK         0.0600 
    195 H195       -2.9466  -23.2013  -44.2584 H         1 UNK         0.3000 
    196 H196       -4.9091  -25.2145  -43.9603 H         1 UNK         0.0600 
    197 H197       -3.2385  -26.2517  -42.4232 H         1 UNK         0.0600 
    198 H198       -3.3675  -24.5217  -42.1461 H         1 UNK         0.0600 
    199 H199       -1.9895  -25.1731  -43.0317 H         1 UNK         0.0600 
    200 H200       -1.9365  -25.1713  -45.8961 H         1 UNK         0.3000 
    201 H201       -2.0813  -27.9206  -46.7806 H         1 UNK         0.0600 
    202 H202       -0.5921  -25.4997  -47.9321 H         1 UNK         0.0600 
    203 H203       -0.2995  -27.1819  -48.3523 H         1 UNK         0.0600 
    204 H204        0.0417  -26.6160  -46.7256 H         1 UNK         0.0600 
    205 H205       -4.1113  -25.3450  -47.4515 H         1 UNK         0.3000 
    206 H206       -5.7594  -24.9236  -48.8118 H         1 UNK         0.0600 
    207 H207       -6.2886  -27.3718  -48.6905 H         1 UNK         0.0600 
    208 H208       -6.7967  -26.6403  -50.2034 H         1 UNK         0.0600 
    209 H209       -5.3526  -27.6372  -50.1623 H         1 UNK         0.0600 
    210 H210       -2.7496  -24.6139  -49.7158 H         1 UNK         0.3000 
    211 H211       -2.8395  -24.4318  -52.5762 H         1 UNK         0.0600 
    212 H212       -0.9059  -23.3095  -50.4968 H         1 UNK         0.0600 
    213 H213       -0.6473  -23.2072  -52.2368 H         1 UNK         0.0600 
    214 H214       -0.7219  -24.7753  -51.4483 H         1 UNK         0.0600 
    215 H215       -3.8650  -22.2677  -50.0482 H         1 UNK         0.3000 
    216 H216       -4.0110  -19.8505  -51.6465 H         1 UNK         0.0600 
    217 H217       -5.3222  -18.9953  -49.7225 H         1 UNK         0.0600 
    218 H218       -3.8688  -19.7909  -49.1507 H         1 UNK         0.0600 
    219 H219       -5.4283  -20.6092  -49.0357 H         1 UNK         0.0600 
    220 H220       -6.0651  -22.6816  -51.2219 H         1 UNK         0.3000 
    221 H221       -8.4436  -21.3965  -52.4338 H         1 UNK         0.0600 
    222 H222       -7.9982  -24.2289  -51.3478 H         1 UNK         0.0600 
    223 H223       -8.7610  -22.9007  -50.4745 H         1 UNK         0.0600 
    224 H224       -9.5254  -23.5637  -51.9105 H         1 UNK         0.0600 
    225 H225       -5.8371  -23.6691  -53.1603 H         1 UNK         0.3000 
    226 H226       -6.8083  -24.7137  -55.6145 H         1 UNK         0.0600 
    227 H227       -4.9853  -25.7109  -54.1565 H         1 UNK         0.0600 
    228 H228       -4.4875  -25.5507  -55.8304 H         1 UNK         0.0600 
    229 H229       -3.9157  -24.3932  -54.6381 H         1 UNK         0.0600 
    230 H230       -5.5694  -24.4889  -57.6828 H         1 UNK         0.3000 
    231 H231       -5.8571  -21.9746  -58.8647 H         1 UNK         0.0600 
    232 H232       -4.7485  -23.0746  -60.8227 H         1 UNK         0.0600 
    233 H233       -5.9585  -24.1211  -60.1002 H         1 UNK         0.0600 
    234 H234       -4.2448  -24.4115  -59.7958 H         1 UNK         0.0600 
    235 H235       -3.1455  -23.1573  -57.0732 H         1 UNK         0.3000 
    236 H236       -1.0125  -21.5704  -58.0305 H         1 UNK         0.0600 
    237 H237       -1.6141  -22.6430  -55.2207 H         1 UNK         0.0600 
    238 H238       -0.7133  -23.4821  -56.4835 H         1 UNK         0.0600 
    239 H239       -0.0556  -22.0265  -55.7536 H         1 UNK         0.0600 
    240 H240       -3.8574  -20.6099  -56.2256 H         1 UNK         0.3000 
    241 H241       -2.8516  -17.8337  -56.2485 H         1 UNK         0.0600 
    242 H242       -4.4810  -19.4075  -58.2691 H         1 UNK         0.3800 
    243 H243       -5.9348  -18.4485  -58.4021 H         1 UNK         0.3800 
    244 H244       -3.1162  -19.0594  -53.8310 H         1 UNK         0.0800 
    245 H245       -4.7662  -18.5752  -54.0361 H         1 UNK         0.0800 
    246 H246       -1.0430  -15.8605  -53.8195 H         1 UNK         0.0800 
    247 H247       -1.0917  -17.5419  -54.2733 H         1 UNK         0.0800 
@<TRIPOS>BOND
     1    1    2 1    
     2    1  127 1    
     3    1  128 1    
     4    1  129 1    
     5    2    3 2    
     6    2    4 am   BACKBONE|DICT|INTERRES
     7    4    5 1    
     8    4  130 1    
     9    5    6 1    
    10    5   65 1    
    11    5  131 1    
    12    6    7 1    
    13    6  132 1    
    14    6  133 1    
    15    7    8 1    
    16    8    9 1    
    17    8  134 1    
    18    8  135 1    
    19    9   10 ar   
    20    9   14 ar   
    21   10   11 ar   
    22   10  136 1    
    23   11   12 ar   
    24   11  126 1    
    25   12   13 ar   
    26   12  137 1    
    27   13   14 ar   
    28   13   15 1    
    29   14  138 1    
    30   15   16 1    
    31   15  139 1    
    32   15  140 1    
    33   16   17 1    
    34   17   18 1    
    35   17  141 1    
    36   17  142 1    
    37   18   19 1    
    38   18   67 1    
    39   18  143 1    
    40   19   20 am   BACKBONE|DICT|INTERRES
    41   19  144 1    
    42   20   21 2    
    43   20   22 1    
    44   22   23 1    
    45   22   24 1    
    46   22  145 1    
    47   23  146 1    
    48   23  147 1    
    49   23  148 1    
    50   24   25 am   BACKBONE|DICT|INTERRES
    51   24  149 1    
    52   25   26 2    
    53   25   27 1    
    54   27   28 1    
    55   27   29 1    
    56   27  150 1    
    57   28  151 1    
    58   28  152 1    
    59   28  153 1    
    60   29   30 am   BACKBONE|DICT|INTERRES
    61   29  154 1    
    62   30   31 2    
    63   30   32 1    
    64   32   33 1    
    65   32   34 1    
    66   32  155 1    
    67   33  156 1    
    68   33  157 1    
    69   33  158 1    
    70   34   35 am   BACKBONE|DICT|INTERRES
    71   34  159 1    
    72   35   36 2    
    73   35   37 1    
    74   37   38 1    
    75   37   39 1    
    76   37  160 1    
    77   38  161 1    
    78   38  162 1    
    79   38  163 1    
    80   39   40 am   BACKBONE|DICT|INTERRES
    81   39  164 1    
    82   40   41 2    
    83   40   42 1    
    84   42   43 1    
    85   42   44 1    
    86   42  165 1    
    87   43  166 1    
    88   43  167 1    
    89   43  168 1    
    90   44   45 am   BACKBONE|DICT|INTERRES
    91   44  169 1    
    92   45   46 2    
    93   45   47 1    
    94   47   48 1    
    95   47   49 1    
    96   47  170 1    
    97   48  171 1    
    98   48  172 1    
    99   48  173 1    
   100   49   50 am   BACKBONE|DICT|INTERRES
   101   49  174 1    
   102   50   51 2    
   103   50   52 1    
   104   52   53 1    
   105   52   54 1    
   106   52  175 1    
   107   53  176 1    
   108   53  177 1    
   109   53  178 1    
   110   54   55 am   BACKBONE|DICT|INTERRES
   111   54  179 1    
   112   55   56 2    
   113   55   57 1    
   114   57   58 1    
   115   57   59 1    
   116   57  180 1    
   117   58  181 1    
   118   58  182 1    
   119   58  183 1    
   120   59   60 am   BACKBONE|DICT|INTERRES
   121   59  184 1    
   122   60   61 2    
   123   60   62 1    
   124   62   63 1    
   125   62   64 1    
   126   62  185 1    
   127   63  186 1    
   128   63  187 1    
   129   63  188 1    
   130   64   65 am   BACKBONE|DICT|INTERRES
   131   64  189 1    
   132   65   66 2    
   133   67   68 2    
   134   67   69 am   BACKBONE|DICT|INTERRES
   135   69   70 1    
   136   69  190 1    
   137   70   71 1    
   138   70   72 1    
   139   70  191 1    
   140   71  192 1    
   141   71  193 1    
   142   71  194 1    
   143   72   73 2    
   144   72   74 am   BACKBONE|DICT|INTERRES
   145   74   75 1    
   146   74  195 1    
   147   75   76 1    
   148   75   77 1    
   149   75  196 1    
   150   76  197 1    
   151   76  198 1    
   152   76  199 1    
   153   77   78 2    
   154   77   79 am   BACKBONE|DICT|INTERRES
   155   79   80 1    
   156   79  200 1    
   157   80   81 1    
   158   80   82 1    
   159   80  201 1    
   160   81  202 1    
   161   81  203 1    
   162   81  204 1    
   163   82   83 2    
   164   82   84 am   BACKBONE|DICT|INTERRES
   165   84   85 1    
   166   84  205 1    
   167   85   86 1    
   168   85   87 1    
   169   85  206 1    
   170   86  207 1    
   171   86  208 1    
   172   86  209 1    
   173   87   88 2    
   174   87   89 am   BACKBONE|DICT|INTERRES
   175   89   90 1    
   176   89  210 1    
   177   90   91 1    
   178   90   92 1    
   179   90  211 1    
   180   91  212 1    
   181   91  213 1    
   182   91  214 1    
   183   92   93 2    
   184   92   94 am   BACKBONE|DICT|INTERRES
   185   94   95 1    
   186   94  215 1    
   187   95   96 1    
   188   95   97 1    
   189   95  216 1    
   190   96  217 1    
   191   96  218 1    
   192   96  219 1    
   193   97   98 2    
   194   97   99 am   BACKBONE|DICT|INTERRES
   195   99  100 1    
   196   99  220 1    
   197  100  101 1    
   198  100  102 1    
   199  100  221 1    
   200  101  222 1    
   201  101  223 1    
   202  101  224 1    
   203  102  103 2    
   204  102  104 am   BACKBONE|DICT|INTERRES
   205  104  105 1    
   206  104  225 1    
   207  105  106 1    
   208  105  107 1    
   209  105  226 1    
   210  106  227 1    
   211  106  228 1    
   212  106  229 1    
   213  107  108 2    
   214  107  109 am   BACKBONE|DICT|INTERRES
   215  109  110 1    
   216  109  230 1    
   217  110  111 1    
   218  110  112 1    
   219  110  231 1    
   220  111  232 1    
   221  111  233 1    
   222  111  234 1    
   223  112  113 2    
   224  112  114 am   BACKBONE|DICT|INTERRES
   225  114  115 1    
   226  114  235 1    
   227  115  116 1    
   228  115  117 1    
   229  115  236 1    
   230  116  237 1    
   231  116  238 1    
   232  116  239 1    
   233  117  118 2    
   234  117  119 am   BACKBONE|DICT|INTERRES
   235  119  120 1    
   236  119  240 1    
   237  120  121 1    
   238  120  124 1    
   239  120  241 1    
   240  121  122 am   BACKBONE|DICT|INTERRES
   241  121  123 2    
   242  122  242 1    
   243  122  243 1    
   244  124  125 1    
   245  124  244 1    
   246  124  245 1    
   247  125  126 1    
   248  126  246 1    
   249  126  247 1    
@<TRIPOS>SUBSTRUCTURE
     1 UNK         1 GROUP             0       ****    0 ROOT    
