@<TRIPOS>MOLECULE
3R540
247   249    1
SMALL
USER_CHARGES


@<TRIPOS>ATOM
      1 CA         -2.4913  -17.2545  -42.2634 C.3       0 UNK        -0.1800 
      2 C          -3.1545  -16.2421  -43.1864 C.2       0 UNK         0.5000 
      3 O          -3.5259  -15.1557  -42.7427 O.2       0 UNK        -0.5000 
      4 N          -3.2877  -16.5826  -44.4756 N.am      1 UNK        -0.5000 
      5 CA         -3.9148  -15.7648  -45.5254 C.3       1 UNK         0.1400 
      6 C6         -4.1236  -16.5669  -46.8344 C.3       23 UNK        -0.0398 
      7 S7         -2.6122  -17.3628  -47.4864 S.3       23 UNK        -0.2404 
      8 C8         -2.1067  -16.1792  -48.7765 C.3       23 UNK        -0.0205 
      9 C9         -1.0613  -16.7704  -49.7119 C.ar      23 UNK        -0.0193 
     10 C10        -1.3280  -16.8996  -51.0793 C.ar      23 UNK        -0.1150 
     11 C11        -0.3692  -17.4387  -51.9425 C.ar      23 UNK        -0.0193 
     12 C12         0.8643  -17.8472  -51.4303 C.ar      23 UNK        -0.1150 
     13 C13         1.1383  -17.7360  -50.0653 C.ar      23 UNK        -0.0193 
     14 C14         0.1774  -17.1842  -49.2134 C.ar      23 UNK        -0.1150 
     15 C15         2.4725  -18.2101  -49.5109 C.3       23 UNK        -0.0205 
     16 S16         2.7500  -19.9928  -49.7712 S.3       23 UNK        -0.2404 
     17 C17         1.2952  -20.7306  -48.9539 C.3       23 UNK        -0.0398 
     18 CA          1.5987  -22.1383  -48.3877 C.3       11 UNK         0.1400 
     19 N           2.5750  -22.0917  -47.2941 N.am      11 UNK        -0.5000 
     20 C           3.1845  -23.1602  -46.7622 C.2       10 UNK         0.5000 
     21 O           3.0441  -24.3091  -47.1841 O.2       10 UNK        -0.5000 
     22 CA          4.1022  -22.9088  -45.5537 C.3       10 UNK         0.1400 
     23 CB          5.4914  -22.4363  -46.0117 C.3       10 UNK        -0.1800 
     24 N           3.5253  -21.9208  -44.6418 N.am      10 UNK        -0.5000 
     25 C           2.7423  -22.2195  -43.5947 C.2       9 UNK         0.5000 
     26 O           2.4698  -23.3719  -43.2554 O.2       9 UNK        -0.5000 
     27 CA          2.1732  -21.0440  -42.7719 C.3       9 UNK         0.1400 
     28 CB          3.0301  -20.7986  -41.5212 C.3       9 UNK        -0.1800 
     29 N           2.0683  -19.8014  -43.5395 N.am      9 UNK        -0.5000 
     30 C           1.1473  -19.5950  -44.4914 C.2       8 UNK         0.5000 
     31 O           0.2284  -20.3768  -44.7211 O.2       8 UNK        -0.5000 
     32 CA          1.2724  -18.3282  -45.3577 C.3       8 UNK         0.1400 
     33 CB          0.2901  -17.2496  -44.8923 C.3       8 UNK        -0.1800 
     34 N           2.6184  -17.7593  -45.4241 N.am      8 UNK        -0.5000 
     35 C           3.7012  -18.3692  -45.9188 C.2       7 UNK         0.5000 
     36 O           3.6853  -19.5282  -46.3321 O.2       7 UNK        -0.5000 
     37 CA          5.0222  -17.5747  -45.9495 C.3       7 UNK         0.1400 
     38 CB          5.1213  -16.7147  -47.2232 C.3       7 UNK        -0.1800 
     39 N           5.2828  -16.7842  -44.7385 N.am      7 UNK        -0.5000 
     40 C           4.6191  -15.7215  -44.2627 C.2       6 UNK         0.5000 
     41 O           3.6662  -15.1834  -44.8298 O.2       6 UNK        -0.5000 
     42 CA          5.0546  -15.2270  -42.8712 C.3       6 UNK         0.1400 
     43 CB          5.3638  -13.7214  -42.8919 C.3       6 UNK        -0.1800 
     44 N           4.0402  -15.4875  -41.8482 N.am      6 UNK        -0.5000 
     45 C           3.4579  -16.6653  -41.5728 C.2       5 UNK         0.5000 
     46 O           3.7190  -17.7167  -42.1585 O.2       5 UNK        -0.5000 
     47 CA          2.4104  -16.6787  -40.4406 C.3       5 UNK         0.1400 
     48 CB          3.0167  -17.2704  -39.1589 C.3       5 UNK        -0.1800 
     49 N           1.8596  -15.3534  -40.1376 N.am      5 UNK        -0.5000 
     50 C           0.9956  -14.7049  -40.9266 C.2       4 UNK         0.5000 
     51 O           0.5475  -15.1711  -41.9779 O.2       4 UNK        -0.5000 
     52 CA          0.5803  -13.2945  -40.4844 C.3       4 UNK         0.1400 
     53 CB          1.7105  -12.2825  -40.7542 C.3       4 UNK        -0.1800 
     54 N          -0.6025  -12.9472  -41.2552 N.am      4 UNK        -0.5000 
     55 C          -1.4529  -11.9346  -41.0687 C.2       3 UNK         0.5000 
     56 O          -1.3531  -11.1145  -40.1546 O.2       3 UNK        -0.5000 
     57 CA         -2.6212  -11.8510  -42.0757 C.3       3 UNK         0.1400 
     58 CB         -3.1534  -10.4165  -42.2763 C.3       3 UNK        -0.1800 
     59 N          -2.3088  -12.5056  -43.3549 N.am      3 UNK        -0.5000 
     60 C          -1.4152  -12.1168  -44.2812 C.2       2 UNK         0.5000 
     61 O          -0.7947  -11.0547  -44.2261 O.2       2 UNK        -0.5000 
     62 CA         -1.1274  -13.0856  -45.4509 C.3       2 UNK         0.1400 
     63 CB          0.3598  -13.4795  -45.4788 C.3       2 UNK        -0.1800 
     64 N          -1.9280  -14.3104  -45.4017 N.am      2 UNK        -0.5000 
     65 C          -3.2049  -14.4169  -45.7932 C.2       1 UNK         0.5000 
     66 O          -3.8318  -13.4978  -46.3205 O.2       1 UNK        -0.5000 
     67 C           0.2958  -22.8425  -47.9496 C.2       11 UNK         0.5000 
     68 O          -0.1061  -22.7470  -46.7891 O.2       11 UNK        -0.5000 
     69 N          -0.3616  -23.5166  -48.8993 N.am      12 UNK        -0.5000 
     70 CA         -1.6201  -24.2329  -48.6872 C.3       12 UNK         0.1400 
     71 CB         -1.6891  -25.4226  -49.6553 C.3       12 UNK        -0.1800 
     72 C          -2.8516  -23.3232  -48.8491 C.2       12 UNK         0.5000 
     73 O          -3.9594  -23.7468  -48.5232 O.2       12 UNK        -0.5000 
     74 N          -2.6628  -22.0875  -49.3345 N.am      13 UNK        -0.5000 
     75 CA         -3.7134  -21.0760  -49.4943 C.3       13 UNK         0.1400 
     76 CB         -3.1142  -19.8284  -50.1533 C.3       13 UNK        -0.1800 
     77 C          -4.4309  -20.7156  -48.1771 C.2       13 UNK         0.5000 
     78 O          -5.6332  -20.4529  -48.1925 O.2       13 UNK        -0.5000 
     79 N          -3.7051  -20.7881  -47.0517 N.am      14 UNK        -0.5000 
     80 CA         -4.2428  -20.6289  -45.6981 C.3       14 UNK         0.1400 
     81 CB         -3.0751  -20.4522  -44.7185 C.3       14 UNK        -0.1800 
     82 C          -5.1513  -21.7969  -45.2568 C.2       14 UNK         0.5000 
     83 O          -5.9676  -21.6162  -44.3535 O.2       14 UNK        -0.5000 
     84 N          -5.0180  -22.9565  -45.9157 N.am      15 UNK        -0.5000 
     85 CA         -5.8698  -24.1372  -45.7614 C.3       15 UNK         0.1400 
     86 CB         -4.9798  -25.3928  -45.7312 C.3       15 UNK        -0.1800 
     87 C          -6.9373  -24.2161  -46.8761 C.2       15 UNK         0.5000 
     88 O          -7.5434  -25.2724  -47.0607 O.2       15 UNK        -0.5000 
     89 N          -7.1572  -23.0983  -47.5856 N.am      16 UNK        -0.5000 
     90 CA         -8.1485  -22.8820  -48.6409 C.3       16 UNK         0.1400 
     91 CB         -9.5854  -23.0822  -48.1120 C.3       16 UNK        -0.1800 
     92 C          -7.8631  -23.6523  -49.9464 C.2       16 UNK         0.5000 
     93 O          -8.8037  -24.0338  -50.6469 O.2       16 UNK        -0.5000 
     94 N          -6.5775  -23.8283  -50.2896 N.am      17 UNK        -0.5000 
     95 CA         -6.1502  -24.2444  -51.6306 C.3       17 UNK         0.1400 
     96 CB         -4.6583  -24.6059  -51.6110 C.3       17 UNK        -0.1800 
     97 C          -6.4185  -23.1466  -52.6822 C.2       17 UNK         0.5000 
     98 O          -6.6049  -21.9793  -52.3262 O.2       17 UNK        -0.5000 
     99 N          -6.4255  -23.5467  -53.9604 N.am      18 UNK        -0.5000 
    100 CA        -6.6724  -22.6807  -55.1152 C.3       18 UNK         0.1400 
    101 CB        -6.6560  -23.5357  -56.3917 C.3       18 UNK        -0.1800 
    102 C         -5.6572  -21.5284  -55.2348 C.2       18 UNK         0.5000 
    103 O         -4.4595  -21.7435  -55.0315 O.2       18 UNK        -0.5000 
    104 N         -6.1592  -20.3386  -55.5889 N.am      19 UNK        -0.5000 
    105 CA        -5.3739  -19.1233  -55.8064 C.3       19 UNK         0.1400 
    106 CB        -6.3336  -17.9479  -56.0469 C.3       19 UNK        -0.1800 
    107 C         -4.3869  -19.2628  -56.9802 C.2       19 UNK         0.5000 
    108 O         -4.6293  -20.0456  -57.9023 O.2       19 UNK        -0.5000 
    109 N         -3.2822  -18.5104  -56.9060 N.am      20 UNK        -0.5000 
    110 CA        -2.1140  -18.4980  -57.7989 C.3       20 UNK         0.1400 
    111 CB        -2.5003  -18.1700  -59.2541 C.3       20 UNK        -0.1800 
    112 C         -1.2470  -19.7713  -57.7154 C.2       20 UNK         0.5000 
    113 O         -0.0209  -19.6604  -57.7443 O.2       20 UNK        -0.5000 
    114 N         -1.8801  -20.9444  -57.5840 N.am      21 UNK        -0.5000 
    115 CA        -1.2348  -22.2181  -57.2744 C.3       21 UNK         0.1400 
    116 CB        -2.2188  -23.3717  -57.5314 C.3       21 UNK        -0.1800 
    117 C         -0.7174  -22.2219  -55.8254 C.2       21 UNK         0.5000 
    118 O          0.4860  -22.3685  -55.6098 O.2       21 UNK        -0.5000 
    119 N         -1.6371  -22.0101  -54.8732 N.am      22 UNK        -0.5000 
    120 CA        -1.3835  -21.7794  -53.4406 C.3       22 UNK         0.1400 
    121 C         -0.6889  -22.9508  -52.6816 C.2       22 UNK         0.5000 
    122 N         -0.7240  -24.1764  -53.1887 N.am      22 UNK        -0.7600 
    123 O         -0.1426  -22.7601  -51.5982 O.2       22 UNK        -0.5000 
    124 C124       -0.7095  -20.4044  -53.1799 C.3       23 UNK        -0.0398 
    125 S125       -1.7399  -19.0147  -53.7704 S.3       23 UNK        -0.2404 
    126 C126       -0.6637  -17.5885  -53.4276 C.3       23 UNK        -0.0205 
    127 H127       -2.1467  -18.1359  -42.8043 H         1 UNK         0.0600 
    128 H128       -3.1949  -17.5785  -41.4966 H         1 UNK         0.0600 
    129 H129       -1.6310  -16.8043  -41.7687 H         1 UNK         0.0600 
    130 H130       -2.9507  -17.4811  -44.7880 H         1 UNK         0.3000 
    131 H131       -4.9075  -15.5018  -45.1537 H         1 UNK         0.0600 
    132 H132       -4.8462  -17.3625  -46.6493 H         1 UNK         0.0800 
    133 H133       -4.5829  -15.9449  -47.6047 H         1 UNK         0.0800 
    134 H134       -1.7004  -15.2818  -48.3084 H         1 UNK         0.0800 
    135 H135       -2.9842  -15.8665  -49.3440 H         1 UNK         0.0800 
    136 H136       -2.2845  -16.5890  -51.4754 H         1 UNK         0.1150 
    137 H137        1.6080  -18.2717  -52.0901 H         1 UNK         0.1150 
    138 H138        0.3839  -17.0832  -48.1577 H         1 UNK         0.1150 
    139 H139        3.2764  -17.6525  -49.9927 H         1 UNK         0.0800 
    140 H140        2.5403  -17.9903  -48.4474 H         1 UNK         0.0800 
    141 H141        0.4988  -20.7715  -49.6990 H         1 UNK         0.0800 
    142 H142        0.9401  -20.0706  -48.1623 H         1 UNK         0.0800 
    143 H143        2.0375  -22.7372  -49.1893 H         1 UNK         0.0600 
    144 H144        2.7888  -21.1742  -46.9178 H         1 UNK         0.3000 
    145 H145        4.2339  -23.8583  -45.0304 H         1 UNK         0.0600 
    146 H146        6.1544  -22.2800  -45.1607 H         1 UNK         0.0600 
    147 H147        5.9604  -23.1801  -46.6570 H         1 UNK         0.0600 
    148 H148        5.4415  -21.5033  -46.5734 H         1 UNK         0.0600 
    149 H149        3.6523  -20.9490  -44.8988 H         1 UNK         0.3000 
    150 H150        1.1727  -21.3307  -42.4408 H         1 UNK         0.0600 
    151 H151        3.1151  -21.7044  -40.9198 H         1 UNK         0.0600 
    152 H152        2.5874  -20.0301  -40.8881 H         1 UNK         0.0600 
    153 H153        4.0402  -20.4802  -41.7818 H         1 UNK         0.0600 
    154 H154        2.7644  -19.0864  -43.3540 H         1 UNK         0.3000 
    155 H155        0.9925  -18.6137  -46.3719 H         1 UNK         0.0600 
    156 H156        0.5404  -16.8869  -43.8963 H         1 UNK         0.0600 
    157 H157        0.2879  -16.4027  -45.5766 H         1 UNK         0.0600 
    158 H158       -0.7246  -17.6434  -44.8595 H         1 UNK         0.0600 
    159 H159        2.7319  -16.7989  -45.1106 H         1 UNK         0.3000 
    160 H160        5.8242  -18.3132  -45.9938 H         1 UNK         0.0600 
    161 H161        4.3093  -15.9904  -47.2936 H         1 UNK         0.0600 
    162 H162        5.0774  -17.3406  -48.1151 H         1 UNK         0.0600 
    163 H163        6.0635  -16.1679  -47.2578 H         1 UNK         0.0600 
    164 H164        6.0075  -17.1675  -44.1476 H         1 UNK         0.3000 
    165 H165        5.9631  -15.7553  -42.5755 H         1 UNK         0.0600 
    166 H166        5.7497  -13.3835  -41.9300 H         1 UNK         0.0600 
    167 H167        6.1185  -13.4883  -43.6442 H         1 UNK         0.0600 
    168 H168        4.4761  -13.1309  -43.1234 H         1 UNK         0.0600 
    169 H169        3.7350  -14.6870  -41.3171 H         1 UNK         0.3000 
    170 H170        1.5941  -17.3293  -40.7628 H         1 UNK         0.0600 
    171 H171        3.4270  -18.2646  -39.3405 H         1 UNK         0.0600 
    172 H172        3.8254  -16.6491  -38.7721 H         1 UNK         0.0600 
    173 H173        2.2644  -17.3696  -38.3762 H         1 UNK         0.0600 
    174 H174        2.1795  -14.9143  -39.2859 H         1 UNK         0.3000 
    175 H175        0.3280  -13.3103  -39.4225 H         1 UNK         0.0600 
    176 H176        1.9754  -12.2518  -41.8121 H         1 UNK         0.0600 
    177 H177        1.4236  -11.2747  -40.4539 H         1 UNK         0.0600 
    178 H178        2.6115  -12.5381  -40.1957 H         1 UNK         0.0600 
    179 H179       -0.7784  -13.5987  -42.0109 H         1 UNK         0.3000 
    180 H180       -3.4306  -12.4365  -41.6373 H         1 UNK         0.0600 
    181 H181       -2.3718   -9.7326  -42.6074 H         1 UNK         0.0600 
    182 H182       -3.5564  -10.0185  -41.3444 H         1 UNK         0.0600 
    183 H183       -3.9568  -10.3928  -43.0125 H         1 UNK         0.0600 
    184 H184       -2.7518  -13.4105  -43.4751 H         1 UNK         0.3000 
    185 H185       -1.3541  -12.5518  -46.3760 H         1 UNK         0.0600 
    186 H186        1.0007  -12.5998  -45.5475 H         1 UNK         0.0600 
    187 H187        0.6514  -14.0246  -44.5799 H         1 UNK         0.0600 
    188 H188        0.5863  -14.1062  -46.3415 H         1 UNK         0.0600 
    189 H189       -1.4975  -15.1131  -44.9675 H         1 UNK         0.3000 
    190 H190       -0.0342  -23.4698  -49.8624 H         1 UNK         0.3000 
    191 H191       -1.6422  -24.6302  -47.6702 H         1 UNK         0.0600 
    192 H192       -1.7533  -25.0961  -50.6928 H         1 UNK         0.0600 
    193 H193       -2.5642  -26.0401  -49.4498 H         1 UNK         0.0600 
    194 H194       -0.8127  -26.0634  -49.5574 H         1 UNK         0.0600 
    195 H195       -1.7286  -21.8264  -49.6113 H         1 UNK         0.3000 
    196 H196       -4.4694  -21.4836  -50.1688 H         1 UNK         0.0600 
    197 H197       -3.8330  -19.0083  -50.1828 H         1 UNK         0.0600 
    198 H198       -2.8233  -20.0348  -51.1810 H         1 UNK         0.0600 
    199 H199       -2.2320  -19.4753  -49.6193 H         1 UNK         0.0600 
    200 H200       -2.7243  -21.0177  -47.1228 H         1 UNK         0.3000 
    201 H201       -4.8458  -19.7189  -45.6772 H         1 UNK         0.0600 
    202 H202       -2.4513  -19.6036  -44.9978 H         1 UNK         0.0600 
    203 H203       -2.4379  -21.3373  -44.6909 H         1 UNK         0.0600 
    204 H204       -3.4355  -20.2741  -43.7046 H         1 UNK         0.0600 
    205 H205       -4.3618  -23.0077  -46.6865 H         1 UNK         0.3000 
    206 H206       -6.4060  -24.0863  -44.8119 H         1 UNK         0.0600 
    207 H207       -4.2169  -25.3164  -44.9564 H         1 UNK         0.0600 
    208 H208       -5.5688  -26.2852  -45.5165 H         1 UNK         0.0600 
    209 H209       -4.4753  -25.5567  -46.6834 H         1 UNK         0.0600 
    210 H210       -6.5815  -22.2921  -47.3788 H         1 UNK         0.3000 
    211 H211       -8.0559  -21.8283  -48.9081 H         1 UNK         0.0600 
    212 H212       -9.7981  -24.1294  -47.8966 H         1 UNK         0.0600 
    213 H213      -10.3211  -22.7457  -48.8434 H         1 UNK         0.0600 
    214 H214       -9.7539  -22.5097  -47.1999 H         1 UNK         0.0600 
    215 H215       -5.8505  -23.5361  -49.6487 H         1 UNK         0.3000 
    216 H216       -6.7175  -25.1357  -51.9071 H         1 UNK         0.0600 
    217 H217       -4.3474  -25.0446  -52.5597 H         1 UNK         0.0600 
    218 H218       -4.4422  -25.3365  -50.8323 H         1 UNK         0.0600 
    219 H219       -4.0345  -23.7280  -51.4446 H         1 UNK         0.0600 
    220 H220       -6.2307  -24.5150  -54.1677 H         1 UNK         0.3000 
    221 H221       -7.6714  -22.2561  -54.9965 H         1 UNK         0.0600 
    222 H222       -5.6890  -24.0185  -56.5390 H         1 UNK         0.0600 
    223 H223       -7.4194  -24.3132  -56.3582 H         1 UNK         0.0600 
    224 H224       -6.8537  -22.9249  -57.2738 H         1 UNK         0.0600 
    225 H225       -7.1491  -20.2635  -55.7698 H         1 UNK         0.3000 
    226 H226       -4.8036  -18.9306  -54.8951 H         1 UNK         0.0600 
    227 H227       -7.0069  -17.8078  -55.2009 H         1 UNK         0.0600 
    228 H228       -5.7853  -17.0145  -56.1810 H         1 UNK         0.0600 
    229 H229       -6.9416  -18.1018  -56.9394 H         1 UNK         0.0600 
    230 H230       -3.1759  -17.9311  -56.0845 H         1 UNK         0.3000 
    231 H231       -1.4894  -17.6784  -57.4396 H         1 UNK         0.0600 
    232 H232       -1.6092  -18.0236  -59.8655 H         1 UNK         0.0600 
    233 H233       -3.0872  -17.2533  -59.3098 H         1 UNK         0.0600 
    234 H234       -3.0794  -18.9696  -59.7164 H         1 UNK         0.0600 
    235 H235       -2.8945  -20.9301  -57.5990 H         1 UNK         0.3000 
    236 H236       -0.3796  -22.3460  -57.9414 H         1 UNK         0.0600 
    237 H237       -2.5129  -23.4083  -58.5804 H         1 UNK         0.0600 
    238 H238       -1.7651  -24.3330  -57.2875 H         1 UNK         0.0600 
    239 H239       -3.1274  -23.2754  -56.9362 H         1 UNK         0.0600 
    240 H240       -2.6141  -21.9129  -55.1415 H         1 UNK         0.3000 
    241 H241       -2.3741  -21.7360  -52.9866 H         1 UNK         0.0600 
    242 H242       -1.1672  -24.3477  -54.0764 H         1 UNK         0.3800 
    243 H243       -0.2695  -24.9303  -52.7004 H         1 UNK         0.3800 
    244 H244       -0.5400  -20.2592  -52.1124 H         1 UNK         0.0800 
    245 H245        0.2706  -20.3574  -53.6565 H         1 UNK         0.0800 
    246 H246        0.2611  -17.6910  -53.9975 H         1 UNK         0.0800 
    247 H247       -1.1488  -16.6828  -53.7937 H         1 UNK         0.0800 
@<TRIPOS>BOND
     1    1    2 1    
     2    1  127 1    
     3    1  128 1    
     4    1  129 1    
     5    2    3 2    
     6    2    4 am   BACKBONE|DICT|INTERRES
     7    4    5 1    
     8    4  130 1    
     9    5    6 1    
    10    5   65 1    
    11    5  131 1    
    12    6    7 1    
    13    6  132 1    
    14    6  133 1    
    15    7    8 1    
    16    8    9 1    
    17    8  134 1    
    18    8  135 1    
    19    9   10 ar   
    20    9   14 ar   
    21   10   11 ar   
    22   10  136 1    
    23   11   12 ar   
    24   11  126 1    
    25   12   13 ar   
    26   12  137 1    
    27   13   14 ar   
    28   13   15 1    
    29   14  138 1    
    30   15   16 1    
    31   15  139 1    
    32   15  140 1    
    33   16   17 1    
    34   17   18 1    
    35   17  141 1    
    36   17  142 1    
    37   18   19 1    
    38   18   67 1    
    39   18  143 1    
    40   19   20 am   BACKBONE|DICT|INTERRES
    41   19  144 1    
    42   20   21 2    
    43   20   22 1    
    44   22   23 1    
    45   22   24 1    
    46   22  145 1    
    47   23  146 1    
    48   23  147 1    
    49   23  148 1    
    50   24   25 am   BACKBONE|DICT|INTERRES
    51   24  149 1    
    52   25   26 2    
    53   25   27 1    
    54   27   28 1    
    55   27   29 1    
    56   27  150 1    
    57   28  151 1    
    58   28  152 1    
    59   28  153 1    
    60   29   30 am   BACKBONE|DICT|INTERRES
    61   29  154 1    
    62   30   31 2    
    63   30   32 1    
    64   32   33 1    
    65   32   34 1    
    66   32  155 1    
    67   33  156 1    
    68   33  157 1    
    69   33  158 1    
    70   34   35 am   BACKBONE|DICT|INTERRES
    71   34  159 1    
    72   35   36 2    
    73   35   37 1    
    74   37   38 1    
    75   37   39 1    
    76   37  160 1    
    77   38  161 1    
    78   38  162 1    
    79   38  163 1    
    80   39   40 am   BACKBONE|DICT|INTERRES
    81   39  164 1    
    82   40   41 2    
    83   40   42 1    
    84   42   43 1    
    85   42   44 1    
    86   42  165 1    
    87   43  166 1    
    88   43  167 1    
    89   43  168 1    
    90   44   45 am   BACKBONE|DICT|INTERRES
    91   44  169 1    
    92   45   46 2    
    93   45   47 1    
    94   47   48 1    
    95   47   49 1    
    96   47  170 1    
    97   48  171 1    
    98   48  172 1    
    99   48  173 1    
   100   49   50 am   BACKBONE|DICT|INTERRES
   101   49  174 1    
   102   50   51 2    
   103   50   52 1    
   104   52   53 1    
   105   52   54 1    
   106   52  175 1    
   107   53  176 1    
   108   53  177 1    
   109   53  178 1    
   110   54   55 am   BACKBONE|DICT|INTERRES
   111   54  179 1    
   112   55   56 2    
   113   55   57 1    
   114   57   58 1    
   115   57   59 1    
   116   57  180 1    
   117   58  181 1    
   118   58  182 1    
   119   58  183 1    
   120   59   60 am   BACKBONE|DICT|INTERRES
   121   59  184 1    
   122   60   61 2    
   123   60   62 1    
   124   62   63 1    
   125   62   64 1    
   126   62  185 1    
   127   63  186 1    
   128   63  187 1    
   129   63  188 1    
   130   64   65 am   BACKBONE|DICT|INTERRES
   131   64  189 1    
   132   65   66 2    
   133   67   68 2    
   134   67   69 am   BACKBONE|DICT|INTERRES
   135   69   70 1    
   136   69  190 1    
   137   70   71 1    
   138   70   72 1    
   139   70  191 1    
   140   71  192 1    
   141   71  193 1    
   142   71  194 1    
   143   72   73 2    
   144   72   74 am   BACKBONE|DICT|INTERRES
   145   74   75 1    
   146   74  195 1    
   147   75   76 1    
   148   75   77 1    
   149   75  196 1    
   150   76  197 1    
   151   76  198 1    
   152   76  199 1    
   153   77   78 2    
   154   77   79 am   BACKBONE|DICT|INTERRES
   155   79   80 1    
   156   79  200 1    
   157   80   81 1    
   158   80   82 1    
   159   80  201 1    
   160   81  202 1    
   161   81  203 1    
   162   81  204 1    
   163   82   83 2    
   164   82   84 am   BACKBONE|DICT|INTERRES
   165   84   85 1    
   166   84  205 1    
   167   85   86 1    
   168   85   87 1    
   169   85  206 1    
   170   86  207 1    
   171   86  208 1    
   172   86  209 1    
   173   87   88 2    
   174   87   89 am   BACKBONE|DICT|INTERRES
   175   89   90 1    
   176   89  210 1    
   177   90   91 1    
   178   90   92 1    
   179   90  211 1    
   180   91  212 1    
   181   91  213 1    
   182   91  214 1    
   183   92   93 2    
   184   92   94 am   BACKBONE|DICT|INTERRES
   185   94   95 1    
   186   94  215 1    
   187   95   96 1    
   188   95   97 1    
   189   95  216 1    
   190   96  217 1    
   191   96  218 1    
   192   96  219 1    
   193   97   98 2    
   194   97   99 am   BACKBONE|DICT|INTERRES
   195   99  100 1    
   196   99  220 1    
   197  100  101 1    
   198  100  102 1    
   199  100  221 1    
   200  101  222 1    
   201  101  223 1    
   202  101  224 1    
   203  102  103 2    
   204  102  104 am   BACKBONE|DICT|INTERRES
   205  104  105 1    
   206  104  225 1    
   207  105  106 1    
   208  105  107 1    
   209  105  226 1    
   210  106  227 1    
   211  106  228 1    
   212  106  229 1    
   213  107  108 2    
   214  107  109 am   BACKBONE|DICT|INTERRES
   215  109  110 1    
   216  109  230 1    
   217  110  111 1    
   218  110  112 1    
   219  110  231 1    
   220  111  232 1    
   221  111  233 1    
   222  111  234 1    
   223  112  113 2    
   224  112  114 am   BACKBONE|DICT|INTERRES
   225  114  115 1    
   226  114  235 1    
   227  115  116 1    
   228  115  117 1    
   229  115  236 1    
   230  116  237 1    
   231  116  238 1    
   232  116  239 1    
   233  117  118 2    
   234  117  119 am   BACKBONE|DICT|INTERRES
   235  119  120 1    
   236  119  240 1    
   237  120  121 1    
   238  120  124 1    
   239  120  241 1    
   240  121  122 am   BACKBONE|DICT|INTERRES
   241  121  123 2    
   242  122  242 1    
   243  122  243 1    
   244  124  125 1    
   245  124  244 1    
   246  124  245 1    
   247  125  126 1    
   248  126  246 1    
   249  126  247 1    
@<TRIPOS>SUBSTRUCTURE
     1 UNK         1 GROUP             0       ****    0 ROOT    
