@<TRIPOS>MOLECULE
3R540
247   249    1
SMALL
USER_CHARGES


@<TRIPOS>ATOM
      1 CA          9.5119  -12.2527  -49.2596 C.3       0 UNK        -0.1800 
      2 C           8.1812  -12.9921  -49.2759 C.2       0 UNK         0.5000 
      3 O           8.1516  -14.2046  -49.0626 O.2       0 UNK        -0.5000 
      4 N           7.0843  -12.2700  -49.5367 N.am      1 UNK        -0.5000 
      5 CA          5.7151  -12.7918  -49.5212 C.3       1 UNK         0.1400 
      6 C6          4.7645  -11.8632  -50.3256 C.3       23 UNK        -0.0398 
      7 S7          3.0543  -12.4837  -50.5154 S.3       23 UNK        -0.2404 
      8 C8          3.2475  -13.7787  -51.7805 C.3       23 UNK        -0.0205 
      9 C9          2.2691  -14.9222  -51.5478 C.ar      23 UNK        -0.0193 
     10 C10         0.9050  -14.7328  -51.7919 C.ar      23 UNK        -0.1150 
     11 C11        -0.0005  -15.7773  -51.5930 C.ar      23 UNK        -0.0193 
     12 C12         0.4682  -17.0244  -51.1790 C.ar      23 UNK        -0.1150 
     13 C13         1.8238  -17.2276  -50.9094 C.ar      23 UNK        -0.0193 
     14 C14         2.7208  -16.1681  -51.0930 C.ar      23 UNK        -0.1150 
     15 C15         2.3179  -18.5962  -50.4515 C.3       23 UNK        -0.0205 
     16 S16         2.2145  -18.8167  -48.6421 S.3       23 UNK        -0.2404 
     17 C17         0.4488  -19.2049  -48.3940 C.3       23 UNK        -0.0398 
     18 CA          0.2166  -20.6736  -47.9652 C.3       11 UNK         0.1400 
     19 N           0.4696  -20.8836  -46.5351 N.am      11 UNK        -0.5000 
     20 C           0.4712  -22.0735  -45.9184 C.2       10 UNK         0.5000 
     21 O           0.3116  -23.1440  -46.5027 O.2       10 UNK        -0.5000 
     22 CA          0.6149  -22.0696  -44.3846 C.3       10 UNK         0.1400 
     23 CB          2.0823  -21.9076  -43.9611 C.3       10 UNK        -0.1800 
     24 N          -0.2113  -21.0435  -43.7452 N.am      10 UNK        -0.5000 
     25 C          -1.5523  -21.0331  -43.7738 C.2       9 UNK         0.5000 
     26 O          -2.2288  -21.9151  -44.3017 O.2       9 UNK        -0.5000 
     27 CA         -2.2605  -19.8134  -43.1569 C.3       9 UNK         0.1400 
     28 CB         -2.3574  -19.9493  -41.6304 C.3       9 UNK        -0.1800 
     29 N          -1.6089  -18.5503  -43.5020 N.am      9 UNK        -0.5000 
     30 C          -1.4902  -18.0724  -44.7494 C.2       8 UNK         0.5000 
     31 O          -1.9795  -18.6156  -45.7393 O.2       8 UNK        -0.5000 
     32 CA         -0.6235  -16.8130  -44.9283 C.3       8 UNK         0.1400 
     33 CB         -1.4162  -15.5428  -44.5892 C.3       8 UNK        -0.1800 
     34 N           0.5985  -16.8619  -44.1256 N.am      8 UNK        -0.5000 
     35 C           1.5650  -17.7801  -44.2668 C.2       7 UNK         0.5000 
     36 O           1.5438  -18.6659  -45.1184 O.2       7 UNK        -0.5000 
     37 CA          2.7298  -17.7229  -43.2660 C.3       7 UNK         0.1400 
     38 CB          3.7591  -16.6558  -43.6688 C.3       7 UNK        -0.1800 
     39 N           2.2551  -17.4694  -41.9074 N.am      7 UNK        -0.5000 
     40 C           1.5630  -18.3551  -41.1773 C.2       6 UNK         0.5000 
     41 O           1.2979  -19.4962  -41.5566 O.2       6 UNK        -0.5000 
     42 CA          1.0477  -17.8653  -39.8118 C.3       6 UNK         0.1400 
     43 CB          2.1377  -18.0053  -38.7388 C.3       6 UNK        -0.1800 
     44 N           0.5825  -16.4774  -39.8541 N.am      6 UNK        -0.5000 
     45 C          -0.5000  -16.0660  -40.5293 C.2       5 UNK         0.5000 
     46 O          -1.2358  -16.8203  -41.1649 O.2       5 UNK        -0.5000 
     47 CA         -0.7808  -14.5516  -40.5307 C.3       5 UNK         0.1400 
     48 CB         -1.5785  -14.1495  -39.2812 C.3       5 UNK        -0.1800 
     49 N           0.4296  -13.7281  -40.6227 N.am      5 UNK        -0.5000 
     50 C           1.2840  -13.7474  -41.6538 C.2       4 UNK         0.5000 
     51 O           1.1828  -14.5183  -42.6097 O.2       4 UNK        -0.5000 
     52 CA          2.4817  -12.7859  -41.5809 C.3       4 UNK         0.1400 
     53 CB          3.6999  -13.5005  -40.9756 C.3       4 UNK        -0.1800 
     54 N           2.8353  -12.2863  -42.9091 N.am      4 UNK        -0.5000 
     55 C           2.1365  -11.3671  -43.5898 C.2       3 UNK         0.5000 
     56 O           1.1589  -10.7747  -43.1304 O.2       3 UNK        -0.5000 
     57 CA          2.6118  -11.0474  -45.0212 C.3       3 UNK         0.1400 
     58 CB          3.5635   -9.8415  -45.0180 C.3       3 UNK        -0.1800 
     59 N           3.2812  -12.1777  -45.6668 N.am      3 UNK        -0.5000 
     60 C           2.6604  -13.2631  -46.1422 C.2       2 UNK         0.5000 
     61 O           1.4362  -13.3989  -46.1381 O.2       2 UNK        -0.5000 
     62 CA          3.5684  -14.3656  -46.7298 C.3       2 UNK         0.1400 
     63 CB          2.7882  -15.6455  -47.0640 C.3       2 UNK        -0.1800 
     64 N           4.2562  -13.9519  -47.9477 N.am      2 UNK        -0.5000 
     65 C           5.2346  -13.0494  -48.0730 C.2       1 UNK         0.5000 
     66 O           5.7336  -12.4396  -47.1222 O.2       1 UNK        -0.5000 
     67 C          -1.1922  -21.1387  -48.3910 C.2       11 UNK         0.5000 
     68 O          -1.3342  -21.6950  -49.4811 O.2       11 UNK        -0.5000 
     69 N          -2.2038  -20.9152  -47.5414 N.am      12 UNK        -0.5000 
     70 CA         -3.5661  -21.3975  -47.7597 C.3       12 UNK         0.1400 
     71 CB         -4.5358  -20.6986  -46.7966 C.3       12 UNK        -0.1800 
     72 C          -3.6564  -22.9264  -47.6240 C.2       12 UNK         0.5000 
     73 O          -4.2582  -23.5722  -48.4816 O.2       12 UNK        -0.5000 
     74 N          -3.0341  -23.4850  -46.5760 N.am      13 UNK        -0.5000 
     75 CA         -2.9694  -24.9238  -46.3078 C.3       13 UNK         0.1400 
     76 CB         -2.3093  -25.1694  -44.9434 C.3       13 UNK        -0.1800 
     77 C          -2.2454  -25.7100  -47.4152 C.2       13 UNK         0.5000 
     78 O          -2.7397  -26.7566  -47.8356 O.2       13 UNK        -0.5000 
     79 N          -1.1272  -25.1627  -47.9132 N.am      14 UNK        -0.5000 
     80 CA         -0.3616  -25.6897  -49.0476 C.3       14 UNK         0.1400 
     81 CB          0.9261  -24.8684  -49.2126 C.3       14 UNK        -0.1800 
     82 C          -1.1579  -25.7065  -50.3675 C.2       14 UNK         0.5000 
     83 O          -0.9118  -26.5634  -51.2165 O.2       14 UNK        -0.5000 
     84 N          -2.1196  -24.7851  -50.4944 N.am      15 UNK        -0.5000 
     85 CA         -3.0709  -24.6860  -51.5977 C.3       15 UNK         0.1400 
     86 CB         -3.3111  -23.1985  -51.8979 C.3       15 UNK        -0.1800 
     87 C          -4.3886  -25.4381  -51.3151 C.2       15 UNK         0.5000 
     88 O          -5.3844  -25.1619  -51.9811 O.2       15 UNK        -0.5000 
     89 N          -4.3885  -26.3644  -50.3430 N.am      16 UNK        -0.5000 
     90 CA         -5.5055  -27.2292  -49.9444 C.3       16 UNK         0.1400 
     91 CB         -5.8569  -28.2215  -51.0734 C.3       16 UNK        -0.1800 
     92 C          -6.7236  -26.4306  -49.4368 C.2       16 UNK         0.5000 
     93 O          -7.8471  -26.6493  -49.8930 O.2       16 UNK        -0.5000 
     94 N          -6.4540  -25.5058  -48.5047 N.am      17 UNK        -0.5000 
     95 CA         -7.3780  -24.5217  -47.9303 C.3       17 UNK         0.1400 
     96 CB         -8.5602  -25.1963  -47.2021 C.3       17 UNK        -0.1800 
     97 C          -7.8052  -23.4706  -48.9744 C.2       17 UNK         0.5000 
     98 O          -8.9855  -23.1314  -49.0752 O.2       17 UNK        -0.5000 
     99 N          -6.8067  -22.9776  -49.7205 N.am      18 UNK        -0.5000 
    100 CA        -6.8847  -21.9674  -50.7773 C.3       18 UNK         0.1400 
    101 CB        -7.1769  -20.5779  -50.1753 C.3       18 UNK        -0.1800 
    102 C         -7.8451  -22.3552  -51.9228 C.2       18 UNK         0.5000 
    103 O         -8.7317  -21.5788  -52.2879 O.2       18 UNK        -0.5000 
    104 N         -7.6600  -23.5651  -52.4650 N.am      19 UNK        -0.5000 
    105 CA        -8.3803  -24.0751  -53.6260 C.3       19 UNK         0.1400 
    106 CB        -8.3293  -25.6124  -53.6174 C.3       19 UNK        -0.1800 
    107 C         -7.7651  -23.4861  -54.9078 C.2       19 UNK         0.5000 
    108 O         -6.7123  -23.9497  -55.3519 O.2       19 UNK        -0.5000 
    109 N         -8.4188  -22.4509  -55.4530 N.am      20 UNK        -0.5000 
    110 CA        -8.0648  -21.6531  -56.6367 C.3       20 UNK         0.1400 
    111 CB        -7.9664  -22.5199  -57.9074 C.3       20 UNK        -0.1800 
    112 C         -6.8117  -20.7749  -56.4481 C.2       20 UNK         0.5000 
    113 O         -6.8843  -19.5645  -56.6665 O.2       20 UNK        -0.5000 
    114 N         -5.6979  -21.3837  -56.0274 N.am      21 UNK        -0.5000 
    115 CA        -4.4873  -20.6975  -55.5806 C.3       21 UNK         0.1400 
    116 CB        -3.3184  -21.6943  -55.5922 C.3       21 UNK        -0.1800 
    117 C         -4.6936  -20.1124  -54.1721 C.2       21 UNK         0.5000 
    118 O         -5.4648  -20.6679  -53.3898 O.2       21 UNK        -0.5000 
    119 N         -3.9991  -19.0120  -53.8658 N.am      22 UNK        -0.5000 
    120 CA        -4.1074  -18.3016  -52.5791 C.3       22 UNK         0.1400 
    121 C         -3.3270  -18.9461  -51.3912 C.2       22 UNK         0.5000 
    122 N         -2.5159  -19.9738  -51.6112 N.am      22 UNK        -0.7600 
    123 O         -3.4801  -18.5192  -50.2511 O.2       22 UNK        -0.5000 
    124 C124       -3.8235  -16.7866  -52.7481 C.3       23 UNK        -0.0398 
    125 S125       -2.1135  -16.4039  -53.2704 S.3       23 UNK        -0.2404 
    126 C126       -1.4926  -15.5670  -51.7788 C.3       23 UNK        -0.0205 
    127 H127        9.3890  -11.1912  -49.4758 H         1 UNK         0.0600 
    128 H128       10.1857  -12.6755  -50.0048 H         1 UNK         0.0600 
    129 H129        9.9814  -12.3479  -48.2805 H         1 UNK         0.0600 
    130 H130        7.1734  -11.2728  -49.6692 H         1 UNK         0.3000 
    131 H131        5.7394  -13.7593  -50.0263 H         1 UNK         0.0600 
    132 H132        4.7122  -10.8812  -49.8523 H         1 UNK         0.0800 
    133 H133        5.1709  -11.6914  -51.3235 H         1 UNK         0.0800 
    134 H134        4.2703  -14.1559  -51.7906 H         1 UNK         0.0800 
    135 H135        3.0754  -13.3436  -52.7660 H         1 UNK         0.0800 
    136 H136        0.5499  -13.7666  -52.1222 H         1 UNK         0.1150 
    137 H137       -0.2396  -17.8322  -51.0725 H         1 UNK         0.1150 
    138 H138        3.7726  -16.3204  -50.8953 H         1 UNK         0.1150 
    139 H139        1.7574  -19.3876  -50.9519 H         1 UNK         0.0800 
    140 H140        3.3572  -18.7286  -50.7554 H         1 UNK         0.0800 
    141 H141       -0.0863  -18.9904  -49.3153 H         1 UNK         0.0800 
    142 H142        0.0395  -18.5164  -47.6543 H         1 UNK         0.0800 
    143 H143        0.9196  -21.3063  -48.5114 H         1 UNK         0.0600 
    144 H144        0.6796  -20.0521  -45.9866 H         1 UNK         0.3000 
    145 H145        0.2715  -23.0398  -44.0201 H         1 UNK         0.0600 
    146 H146        2.1870  -21.9548  -42.8770 H         1 UNK         0.0600 
    147 H147        2.6975  -22.7031  -44.3830 H         1 UNK         0.0600 
    148 H148        2.5016  -20.9595  -44.2957 H         1 UNK         0.0600 
    149 H149        0.2766  -20.2971  -43.2638 H         1 UNK         0.3000 
    150 H150       -3.2754  -19.7826  -43.5586 H         1 UNK         0.0600 
    151 H151       -2.8561  -20.8785  -41.3519 H         1 UNK         0.0600 
    152 H152       -2.9316  -19.1297  -41.1982 H         1 UNK         0.0600 
    153 H153       -1.3733  -19.9508  -41.1615 H         1 UNK         0.0600 
    154 H154       -1.2254  -18.0100  -42.7322 H         1 UNK         0.3000 
    155 H155       -0.3274  -16.7554  -45.9774 H         1 UNK         0.0600 
    156 H156       -1.7422  -15.5358  -43.5495 H         1 UNK         0.0600 
    157 H157       -2.3064  -15.4610  -45.2139 H         1 UNK         0.0600 
    158 H158       -0.8156  -14.6484  -44.7577 H         1 UNK         0.0600 
    159 H159        0.7249  -16.1187  -43.4424 H         1 UNK         0.3000 
    160 H160        3.2298  -18.6937  -43.2768 H         1 UNK         0.0600 
    161 H161        4.5892  -16.6215  -42.9632 H         1 UNK         0.0600 
    162 H162        3.3174  -15.6605  -43.7175 H         1 UNK         0.0600 
    163 H163        4.1784  -16.8774  -44.6507 H         1 UNK         0.0600 
    164 H164        2.3796  -16.5355  -41.5472 H         1 UNK         0.3000 
    165 H165        0.2049  -18.4991  -39.5276 H         1 UNK         0.0600 
    166 H166        1.7585  -17.7320  -37.7540 H         1 UNK         0.0600 
    167 H167        2.4918  -19.0352  -38.6752 H         1 UNK         0.0600 
    168 H168        3.0007  -17.3740  -38.9540 H         1 UNK         0.0600 
    169 H169        1.1319  -15.7921  -39.3571 H         1 UNK         0.3000 
    170 H170       -1.3940  -14.3338  -41.4074 H         1 UNK         0.0600 
    171 H171       -2.4953  -14.7348  -39.1984 H         1 UNK         0.0600 
    172 H172       -1.0045  -14.3074  -38.3673 H         1 UNK         0.0600 
    173 H173       -1.8683  -13.0992  -39.3192 H         1 UNK         0.0600 
    174 H174        0.5890  -13.0788  -39.8657 H         1 UNK         0.3000 
    175 H175        2.2208  -11.9377  -40.9445 H         1 UNK         0.0600 
    176 H176        4.0114  -14.3530  -41.5802 H         1 UNK         0.0600 
    177 H177        4.5501  -12.8236  -40.8893 H         1 UNK         0.0600 
    178 H178        3.4793  -13.8715  -39.9739 H         1 UNK         0.0600 
    179 H179        3.6021  -12.7443  -43.3772 H         1 UNK         0.3000 
    180 H180        1.7313  -10.7839  -45.6112 H         1 UNK         0.0600 
    181 H181        4.4737  -10.0485  -44.4538 H         1 UNK         0.0600 
    182 H182        3.0880   -8.9693  -44.5673 H         1 UNK         0.0600 
    183 H183        3.8531   -9.5657  -46.0322 H         1 UNK         0.0600 
    184 H184        4.2856  -12.1103  -45.7995 H         1 UNK         0.3000 
    185 H185        4.3161  -14.6093  -45.9728 H         1 UNK         0.0600 
    186 H186        2.1680  -15.9551  -46.2279 H         1 UNK         0.0600 
    187 H187        2.1257  -15.5078  -47.9199 H         1 UNK         0.0600 
    188 H188        3.4658  -16.4685  -47.2900 H         1 UNK         0.0600 
    189 H189        3.8768  -14.3441  -48.7974 H         1 UNK         0.3000 
    190 H190       -2.0349  -20.3709  -46.7014 H         1 UNK         0.3000 
    191 H191       -3.8617  -21.1354  -48.7782 H         1 UNK         0.0600 
    192 H192       -4.2879  -20.8977  -45.7540 H         1 UNK         0.0600 
    193 H193       -5.5600  -21.0350  -46.9627 H         1 UNK         0.0600 
    194 H194       -4.5199  -19.6183  -46.9428 H         1 UNK         0.0600 
    195 H195       -2.5939  -22.8783  -45.8883 H         1 UNK         0.3000 
    196 H196       -3.9951  -25.2946  -46.2569 H         1 UNK         0.0600 
    197 H197       -2.2722  -26.2347  -44.7127 H         1 UNK         0.0600 
    198 H198       -2.8667  -24.6825  -44.1431 H         1 UNK         0.0600 
    199 H199       -1.2873  -24.7911  -44.9166 H         1 UNK         0.0600 
    200 H200       -0.7569  -24.3235  -47.4714 H         1 UNK         0.3000 
    201 H201       -0.0859  -26.7201  -48.8149 H         1 UNK         0.0600 
    202 H202        1.5441  -24.9197  -48.3161 H         1 UNK         0.0600 
    203 H203        0.7079  -23.8179  -49.4094 H         1 UNK         0.0600 
    204 H204        1.5266  -25.2419  -50.0430 H         1 UNK         0.0600 
    205 H205       -2.2537  -24.1254  -49.7392 H         1 UNK         0.3000 
    206 H206       -2.6431  -25.1384  -52.4943 H         1 UNK         0.0600 
    207 H207       -2.3903  -22.7226  -52.2334 H         1 UNK         0.0600 
    208 H208       -4.0521  -23.0583  -52.6851 H         1 UNK         0.0600 
    209 H209       -3.6602  -22.6623  -51.0158 H         1 UNK         0.0600 
    210 H210       -3.5421  -26.4815  -49.7989 H         1 UNK         0.3000 
    211 H211       -5.1501  -27.8147  -49.0952 H         1 UNK         0.0600 
    212 H212       -6.2615  -27.7148  -51.9501 H         1 UNK         0.0600 
    213 H213       -6.6045  -28.9419  -50.7399 H         1 UNK         0.0600 
    214 H214       -4.9797  -28.7868  -51.3879 H         1 UNK         0.0600 
    215 H215       -5.4791  -25.3490  -48.2806 H         1 UNK         0.3000 
    216 H216       -6.8063  -23.9793  -47.1758 H         1 UNK         0.0600 
    217 H217       -9.1450  -24.4596  -46.6504 H         1 UNK         0.0600 
    218 H218       -8.2099  -25.9368  -46.4832 H         1 UNK         0.0600 
    219 H219       -9.2393  -25.6940  -47.8944 H         1 UNK         0.0600 
    220 H220       -5.8749  -23.3315  -49.5254 H         1 UNK         0.3000 
    221 H221       -5.8890  -21.9254  -51.2149 H         1 UNK         0.0600 
    222 H222       -8.1633  -20.5350  -49.7129 H         1 UNK         0.0600 
    223 H223       -6.4372  -20.3130  -49.4198 H         1 UNK         0.0600 
    224 H224       -7.1399  -19.8072  -50.9461 H         1 UNK         0.0600 
    225 H225       -6.8736  -24.1333  -52.1534 H         1 UNK         0.3000 
    226 H226       -9.4291  -23.7782  -53.5598 H         1 UNK         0.0600 
    227 H227       -8.7670  -26.0153  -52.7037 H         1 UNK         0.0600 
    228 H228       -8.8878  -26.0245  -54.4584 H         1 UNK         0.0600 
    229 H229       -7.3075  -25.9869  -53.6875 H         1 UNK         0.0600 
    230 H230       -9.2299  -22.1124  -54.9529 H         1 UNK         0.3000 
    231 H231       -8.9022  -20.9688  -56.7825 H         1 UNK         0.0600 
    232 H232       -8.8815  -23.0902  -58.0669 H         1 UNK         0.0600 
    233 H233       -7.1357  -23.2244  -57.8632 H         1 UNK         0.0600 
    234 H234       -7.8142  -21.8965  -58.7892 H         1 UNK         0.0600 
    235 H235       -5.7715  -22.3732  -55.8069 H         1 UNK         0.3000 
    236 H236       -4.2624  -19.8834  -56.2730 H         1 UNK         0.0600 
    237 H237       -2.3971  -21.2263  -55.2435 H         1 UNK         0.0600 
    238 H238       -3.5156  -22.5542  -54.9517 H         1 UNK         0.0600 
    239 H239       -3.1319  -22.0670  -56.5994 H         1 UNK         0.0600 
    240 H240       -3.3594  -18.6137  -54.5382 H         1 UNK         0.3000 
    241 H241       -5.1539  -18.3671  -52.2740 H         1 UNK         0.0600 
    242 H242       -2.0620  -20.4412  -50.8354 H         1 UNK         0.3800 
    243 H243       -2.3890  -20.3224  -52.5458 H         1 UNK         0.3800 
    244 H244       -4.4970  -16.3765  -53.5017 H         1 UNK         0.0800 
    245 H245       -4.0701  -16.2521  -51.8295 H         1 UNK         0.0800 
    246 H246       -1.7348  -14.5047  -51.8352 H         1 UNK         0.0800 
    247 H247       -1.9989  -15.9519  -50.8921 H         1 UNK         0.0800 
@<TRIPOS>BOND
     1    1    2 1    
     2    1  127 1    
     3    1  128 1    
     4    1  129 1    
     5    2    3 2    
     6    2    4 am   BACKBONE|DICT|INTERRES
     7    4    5 1    
     8    4  130 1    
     9    5    6 1    
    10    5   65 1    
    11    5  131 1    
    12    6    7 1    
    13    6  132 1    
    14    6  133 1    
    15    7    8 1    
    16    8    9 1    
    17    8  134 1    
    18    8  135 1    
    19    9   10 ar   
    20    9   14 ar   
    21   10   11 ar   
    22   10  136 1    
    23   11   12 ar   
    24   11  126 1    
    25   12   13 ar   
    26   12  137 1    
    27   13   14 ar   
    28   13   15 1    
    29   14  138 1    
    30   15   16 1    
    31   15  139 1    
    32   15  140 1    
    33   16   17 1    
    34   17   18 1    
    35   17  141 1    
    36   17  142 1    
    37   18   19 1    
    38   18   67 1    
    39   18  143 1    
    40   19   20 am   BACKBONE|DICT|INTERRES
    41   19  144 1    
    42   20   21 2    
    43   20   22 1    
    44   22   23 1    
    45   22   24 1    
    46   22  145 1    
    47   23  146 1    
    48   23  147 1    
    49   23  148 1    
    50   24   25 am   BACKBONE|DICT|INTERRES
    51   24  149 1    
    52   25   26 2    
    53   25   27 1    
    54   27   28 1    
    55   27   29 1    
    56   27  150 1    
    57   28  151 1    
    58   28  152 1    
    59   28  153 1    
    60   29   30 am   BACKBONE|DICT|INTERRES
    61   29  154 1    
    62   30   31 2    
    63   30   32 1    
    64   32   33 1    
    65   32   34 1    
    66   32  155 1    
    67   33  156 1    
    68   33  157 1    
    69   33  158 1    
    70   34   35 am   BACKBONE|DICT|INTERRES
    71   34  159 1    
    72   35   36 2    
    73   35   37 1    
    74   37   38 1    
    75   37   39 1    
    76   37  160 1    
    77   38  161 1    
    78   38  162 1    
    79   38  163 1    
    80   39   40 am   BACKBONE|DICT|INTERRES
    81   39  164 1    
    82   40   41 2    
    83   40   42 1    
    84   42   43 1    
    85   42   44 1    
    86   42  165 1    
    87   43  166 1    
    88   43  167 1    
    89   43  168 1    
    90   44   45 am   BACKBONE|DICT|INTERRES
    91   44  169 1    
    92   45   46 2    
    93   45   47 1    
    94   47   48 1    
    95   47   49 1    
    96   47  170 1    
    97   48  171 1    
    98   48  172 1    
    99   48  173 1    
   100   49   50 am   BACKBONE|DICT|INTERRES
   101   49  174 1    
   102   50   51 2    
   103   50   52 1    
   104   52   53 1    
   105   52   54 1    
   106   52  175 1    
   107   53  176 1    
   108   53  177 1    
   109   53  178 1    
   110   54   55 am   BACKBONE|DICT|INTERRES
   111   54  179 1    
   112   55   56 2    
   113   55   57 1    
   114   57   58 1    
   115   57   59 1    
   116   57  180 1    
   117   58  181 1    
   118   58  182 1    
   119   58  183 1    
   120   59   60 am   BACKBONE|DICT|INTERRES
   121   59  184 1    
   122   60   61 2    
   123   60   62 1    
   124   62   63 1    
   125   62   64 1    
   126   62  185 1    
   127   63  186 1    
   128   63  187 1    
   129   63  188 1    
   130   64   65 am   BACKBONE|DICT|INTERRES
   131   64  189 1    
   132   65   66 2    
   133   67   68 2    
   134   67   69 am   BACKBONE|DICT|INTERRES
   135   69   70 1    
   136   69  190 1    
   137   70   71 1    
   138   70   72 1    
   139   70  191 1    
   140   71  192 1    
   141   71  193 1    
   142   71  194 1    
   143   72   73 2    
   144   72   74 am   BACKBONE|DICT|INTERRES
   145   74   75 1    
   146   74  195 1    
   147   75   76 1    
   148   75   77 1    
   149   75  196 1    
   150   76  197 1    
   151   76  198 1    
   152   76  199 1    
   153   77   78 2    
   154   77   79 am   BACKBONE|DICT|INTERRES
   155   79   80 1    
   156   79  200 1    
   157   80   81 1    
   158   80   82 1    
   159   80  201 1    
   160   81  202 1    
   161   81  203 1    
   162   81  204 1    
   163   82   83 2    
   164   82   84 am   BACKBONE|DICT|INTERRES
   165   84   85 1    
   166   84  205 1    
   167   85   86 1    
   168   85   87 1    
   169   85  206 1    
   170   86  207 1    
   171   86  208 1    
   172   86  209 1    
   173   87   88 2    
   174   87   89 am   BACKBONE|DICT|INTERRES
   175   89   90 1    
   176   89  210 1    
   177   90   91 1    
   178   90   92 1    
   179   90  211 1    
   180   91  212 1    
   181   91  213 1    
   182   91  214 1    
   183   92   93 2    
   184   92   94 am   BACKBONE|DICT|INTERRES
   185   94   95 1    
   186   94  215 1    
   187   95   96 1    
   188   95   97 1    
   189   95  216 1    
   190   96  217 1    
   191   96  218 1    
   192   96  219 1    
   193   97   98 2    
   194   97   99 am   BACKBONE|DICT|INTERRES
   195   99  100 1    
   196   99  220 1    
   197  100  101 1    
   198  100  102 1    
   199  100  221 1    
   200  101  222 1    
   201  101  223 1    
   202  101  224 1    
   203  102  103 2    
   204  102  104 am   BACKBONE|DICT|INTERRES
   205  104  105 1    
   206  104  225 1    
   207  105  106 1    
   208  105  107 1    
   209  105  226 1    
   210  106  227 1    
   211  106  228 1    
   212  106  229 1    
   213  107  108 2    
   214  107  109 am   BACKBONE|DICT|INTERRES
   215  109  110 1    
   216  109  230 1    
   217  110  111 1    
   218  110  112 1    
   219  110  231 1    
   220  111  232 1    
   221  111  233 1    
   222  111  234 1    
   223  112  113 2    
   224  112  114 am   BACKBONE|DICT|INTERRES
   225  114  115 1    
   226  114  235 1    
   227  115  116 1    
   228  115  117 1    
   229  115  236 1    
   230  116  237 1    
   231  116  238 1    
   232  116  239 1    
   233  117  118 2    
   234  117  119 am   BACKBONE|DICT|INTERRES
   235  119  120 1    
   236  119  240 1    
   237  120  121 1    
   238  120  124 1    
   239  120  241 1    
   240  121  122 am   BACKBONE|DICT|INTERRES
   241  121  123 2    
   242  122  242 1    
   243  122  243 1    
   244  124  125 1    
   245  124  244 1    
   246  124  245 1    
   247  125  126 1    
   248  126  246 1    
   249  126  247 1    
@<TRIPOS>SUBSTRUCTURE
     1 UNK         1 GROUP             0       ****    0 ROOT    
