@<TRIPOS>MOLECULE
3R540
247   249    1
SMALL
USER_CHARGES


@<TRIPOS>ATOM
      1 CA          4.1451  -13.1116  -46.7171 C.3       0 UNK        -0.1800 
      2 C           2.6499  -13.2606  -46.9525 C.2       0 UNK         0.5000 
      3 O           1.8755  -13.1792  -45.9995 O.2       0 UNK        -0.5000 
      4 N           2.2403  -13.4433  -48.2156 N.am      1 UNK        -0.5000 
      5 CA          0.8732  -13.7049  -48.7046 C.3       1 UNK         0.1400 
      6 C6          0.8939  -14.2215  -50.1691 C.3       23 UNK        -0.0398 
      7 S7          1.8026  -15.7934  -50.3813 S.3       23 UNK        -0.2404 
      8 C8          0.4367  -16.9787  -50.1864 C.3       23 UNK        -0.0205 
      9 C9          0.7644  -18.3553  -50.7425 C.ar      23 UNK        -0.0193 
     10 C10         0.1964  -18.7693  -51.9498 C.ar      23 UNK        -0.1150 
     11 C11         0.4248  -20.0580  -52.4348 C.ar      23 UNK        -0.0193 
     12 C12         1.2227  -20.9369  -51.7001 C.ar      23 UNK        -0.1150 
     13 C13         1.8149  -20.5383  -50.4979 C.ar      23 UNK        -0.0193 
     14 C14         1.5912  -19.2328  -50.0338 C.ar      23 UNK        -0.1150 
     15 C15         2.6824  -21.5678  -49.7687 C.3       23 UNK        -0.0205 
     16 S16         3.3388  -21.1076  -48.1273 S.3       23 UNK        -0.2404 
     17 C17         1.8373  -20.9152  -47.1118 C.3       23 UNK        -0.0398 
     18 CA          1.2888  -22.2402  -46.5217 C.3       11 UNK         0.1400 
     19 N           0.7832  -22.0584  -45.1589 N.am      11 UNK        -0.5000 
     20 C           0.3052  -23.0218  -44.3598 C.2       10 UNK         0.5000 
     21 O           0.3081  -24.2179  -44.6503 O.2       10 UNK        -0.5000 
     22 CA         -0.3392  -22.5586  -43.0387 C.3       10 UNK         0.1400 
     23 CB          0.7200  -22.3431  -41.9475 C.3       10 UNK        -0.1800 
     24 N          -1.1329  -21.3383  -43.2092 N.am      10 UNK        -0.5000 
     25 C          -2.2633  -21.2765  -43.9284 C.2       9 UNK         0.5000 
     26 O          -2.7838  -22.2579  -44.4592 O.2       9 UNK        -0.5000 
     27 CA         -2.8934  -19.8848  -44.1280 C.3       9 UNK         0.1400 
     28 CB         -3.7387  -19.4876  -42.9091 C.3       9 UNK        -0.1800 
     29 N          -1.8996  -18.8446  -44.3983 N.am      9 UNK        -0.5000 
     30 C          -1.1171  -18.8038  -45.4863 C.2       8 UNK         0.5000 
     31 O          -1.1933  -19.6105  -46.4112 O.2       8 UNK        -0.5000 
     32 CA         -0.0257  -17.7179  -45.5245 C.3       8 UNK         0.1400 
     33 CB         -0.5965  -16.3855  -46.0297 C.3       8 UNK        -0.1800 
     34 N           0.6168  -17.5167  -44.2248 N.am      8 UNK        -0.5000 
     35 C           1.2955  -18.4542  -43.5485 C.2       7 UNK         0.5000 
     36 O           1.4898  -19.5920  -43.9686 O.2       7 UNK        -0.5000 
     37 CA          1.7885  -18.0813  -42.1426 C.3       7 UNK         0.1400 
     38 CB          3.1165  -17.3126  -42.2099 C.3       7 UNK        -0.1800 
     39 N           0.7858  -17.2977  -41.4230 N.am      7 UNK        -0.5000 
     40 C          -0.3468  -17.8109  -40.9218 C.2       6 UNK         0.5000 
     41 O          -0.6284  -19.0093  -40.9623 O.2       6 UNK        -0.5000 
     42 CA         -1.3461  -16.8130  -40.3051 C.3       6 UNK         0.1400 
     43 CB         -0.9905  -16.5282  -38.8383 C.3       6 UNK        -0.1800 
     44 N          -1.4132  -15.5486  -41.0420 N.am      6 UNK        -0.5000 
     45 C          -1.9132  -15.4239  -42.2794 C.2       5 UNK         0.5000 
     46 O          -2.4086  -16.3583  -42.9085 O.2       5 UNK        -0.5000 
     47 CA         -1.7994  -14.0372  -42.9463 C.3       5 UNK         0.1400 
     48 CB         -3.0197  -13.1709  -42.6033 C.3       5 UNK        -0.1800 
     49 N          -0.5754  -13.2982  -42.6169 N.am      5 UNK        -0.5000 
     50 C           0.6736  -13.7491  -42.7948 C.2       4 UNK         0.5000 
     51 O           0.9358  -14.8776  -43.2095 O.2       4 UNK        -0.5000 
     52 CA          1.8001  -12.7584  -42.4766 C.3       4 UNK         0.1400 
     53 CB          3.1974  -13.4040  -42.5043 C.3       4 UNK        -0.1800 
     54 N           1.7515  -11.6898  -43.4656 N.am      4 UNK        -0.5000 
     55 C           1.7498  -10.3808  -43.1908 C.2       3 UNK         0.5000 
     56 O           1.7844   -9.9209  -42.0487 O.2       3 UNK        -0.5000 
     57 CA          1.7063   -9.4138  -44.3885 C.3       3 UNK         0.1400 
     58 CB          3.1311   -9.0106  -44.7988 C.3       3 UNK        -0.1800 
     59 N           1.0115   -9.9488  -45.5608 N.am      3 UNK        -0.5000 
     60 C          -0.3118  -10.1498  -45.6468 C.2       2 UNK         0.5000 
     61 O          -1.1004   -9.9619  -44.7204 O.2       2 UNK        -0.5000 
     62 CA         -0.8278  -10.6560  -47.0005 C.3       2 UNK         0.1400 
     63 CB         -0.8646   -9.5008  -48.0223 C.3       2 UNK        -0.1800 
     64 N           0.0228  -11.7560  -47.4490 N.am      2 UNK        -0.5000 
     65 C          -0.1298  -12.5295  -48.5260 C.2       1 UNK         0.5000 
     66 O          -1.0299  -12.3585  -49.3495 O.2       1 UNK        -0.5000 
     67 C           0.2096  -22.8489  -47.4398 C.2       11 UNK         0.5000 
     68 O           0.4710  -23.8491  -48.1046 O.2       11 UNK        -0.5000 
     69 N          -0.9950  -22.2615  -47.4185 N.am      12 UNK        -0.5000 
     70 CA         -2.1698  -22.7161  -48.1608 C.3       12 UNK         0.1400 
     71 CB         -3.3150  -21.7130  -47.9574 C.3       12 UNK        -0.1800 
     72 C          -2.6143  -24.1384  -47.7758 C.2       12 UNK         0.5000 
     73 O          -2.9329  -24.9376  -48.6566 O.2       12 UNK        -0.5000 
     74 N          -2.5877  -24.4467  -46.4715 N.am      13 UNK        -0.5000 
     75 CA         -2.8689  -25.7785  -45.9349 C.3       13 UNK         0.1400 
     76 CB         -2.9487  -25.7137  -44.4023 C.3       13 UNK        -0.1800 
     77 C          -1.8435  -26.8340  -46.3924 C.2       13 UNK         0.5000 
     78 O          -2.2392  -27.9464  -46.7415 O.2       13 UNK        -0.5000 
     79 N          -0.5561  -26.4602  -46.4152 N.am      14 UNK        -0.5000 
     80 CA          0.5419  -27.2950  -46.9061 C.3       14 UNK         0.1400 
     81 CB          1.8839  -26.6839  -46.4743 C.3       14 UNK        -0.1800 
     82 C           0.4963  -27.5032  -48.4325 C.2       14 UNK         0.5000 
     83 O           0.7275  -28.6190  -48.9001 O.2       14 UNK        -0.5000 
     84 N           0.1838  -26.4343  -49.1782 N.am      15 UNK        -0.5000 
     85 CA          0.0251  -26.4377  -50.6349 C.3       15 UNK         0.1400 
     86 CB          0.0076  -24.9854  -51.1404 C.3       15 UNK        -0.1800 
     87 C          -1.2385  -27.1794  -51.1129 C.2       15 UNK         0.5000 
     88 O          -1.2700  -27.6367  -52.2560 O.2       15 UNK        -0.5000 
     89 N          -2.2484  -27.2695  -50.2357 N.am      16 UNK        -0.5000 
     90 CA         -3.5867  -27.8231  -50.4567 C.3       16 UNK         0.1400 
     91 CB         -3.5250  -29.3328  -50.7700 C.3       16 UNK        -0.1800 
     92 C          -4.3947  -27.0103  -51.4908 C.2       16 UNK         0.5000 
     93 O          -5.1455  -27.5816  -52.2842 O.2       16 UNK        -0.5000 
     94 N          -4.2305  -25.6838  -51.4537 N.am      17 UNK        -0.5000 
     95 CA         -4.9179  -24.7112  -52.2948 C.3       17 UNK         0.1400 
     96 CB         -4.2000  -24.5761  -53.6491 C.3       17 UNK        -0.1800 
     97 C          -4.9284  -23.3758  -51.5456 C.2       17 UNK         0.5000 
     98 O          -3.9309  -23.0426  -50.9057 O.2       17 UNK        -0.5000 
     99 N          -6.0438  -22.6398  -51.6278 N.am      18 UNK        -0.5000 
    100 CA        -6.2216  -21.3390  -50.9805 C.3       18 UNK         0.1400 
    101 CB        -7.6733  -20.8732  -51.1701 C.3       18 UNK        -0.1800 
    102 C         -5.2456  -20.2876  -51.5350 C.2       18 UNK         0.5000 
    103 O         -5.1104  -20.1811  -52.7551 O.2       18 UNK        -0.5000 
    104 N         -4.6245  -19.5090  -50.6381 N.am      19 UNK        -0.5000 
    105 CA        -3.6069  -18.4969  -50.9464 C.3       19 UNK         0.1400 
    106 CB        -3.1649  -17.8156  -49.6397 C.3       19 UNK        -0.1800 
    107 C         -4.0602  -17.4454  -51.9771 C.2       19 UNK         0.5000 
    108 O         -3.2833  -17.0687  -52.8547 O.2       19 UNK        -0.5000 
    109 N         -5.3279  -17.0268  -51.8715 N.am      20 UNK        -0.5000 
    110 CA        -5.9736  -16.0866  -52.7869 C.3       20 UNK         0.1400 
    111 CB        -7.2549  -15.5563  -52.1247 C.3       20 UNK        -0.1800 
    112 C         -6.2942  -16.6900  -54.1694 C.2       20 UNK         0.5000 
    113 O         -6.4616  -15.9313  -55.1252 O.2       20 UNK        -0.5000 
    114 N         -6.3899  -18.0241  -54.2568 N.am      21 UNK        -0.5000 
    115 CA        -6.6621  -18.7497  -55.4946 C.3       21 UNK         0.1400 
    116 CB        -7.4712  -20.0216  -55.1905 C.3       21 UNK        -0.1800 
    117 C         -5.3588  -19.0860  -56.2339 C.2       21 UNK         0.5000 
    118 O         -5.2727  -18.8373  -57.4376 O.2       21 UNK        -0.5000 
    119 N         -4.3723  -19.6407  -55.5143 N.am      22 UNK        -0.5000 
    120 CA        -3.0627  -20.0018  -56.0809 C.3       22 UNK         0.1400 
    121 C         -2.0946  -18.8024  -56.2940 C.2       22 UNK         0.5000 
    122 N         -2.2377  -17.6911  -55.5816 N.am      22 UNK        -0.7600 
    123 O         -1.2023  -18.8786  -57.1343 O.2       22 UNK        -0.5000 
    124 C124       -2.3915  -21.1857  -55.3362 C.3       23 UNK        -0.0398 
    125 S125       -1.9530  -20.8579  -53.5949 S.3       23 UNK        -0.2404 
    126 C126       -0.1797  -20.4921  -53.7586 C.3       23 UNK        -0.0205 
    127 H127        4.3573  -12.1494  -46.2515 H         1 UNK         0.0600 
    128 H128        4.7109  -13.1740  -47.6468 H         1 UNK         0.0600 
    129 H129        4.4968  -13.8983  -46.0498 H         1 UNK         0.0600 
    130 H130        2.9453  -13.4718  -48.9383 H         1 UNK         0.3000 
    131 H131        0.4716  -14.5106  -48.0895 H         1 UNK         0.0600 
    132 H132        1.3530  -13.4753  -50.8196 H         1 UNK         0.0800 
    133 H133       -0.1164  -14.3609  -50.5564 H         1 UNK         0.0800 
    134 H134        0.1779  -17.0629  -49.1305 H         1 UNK         0.0800 
    135 H135       -0.4472  -16.5914  -50.6931 H         1 UNK         0.0800 
    136 H136       -0.4391  -18.0961  -52.5093 H         1 UNK         0.1150 
    137 H137        1.3911  -21.9384  -52.0715 H         1 UNK         0.1150 
    138 H138        2.0427  -18.8865  -49.1163 H         1 UNK         0.1150 
    139 H139        2.1264  -22.5001  -49.6732 H         1 UNK         0.0800 
    140 H140        3.5365  -21.7958  -50.4078 H         1 UNK         0.0800 
    141 H141        1.0694  -20.3625  -47.6523 H         1 UNK         0.0800 
    142 H142        2.1424  -20.2484  -46.3074 H         1 UNK         0.0800 
    143 H143        2.1059  -22.9609  -46.4483 H         1 UNK         0.0600 
    144 H144        0.8060  -21.1092  -44.7944 H         1 UNK         0.3000 
    145 H145       -1.0109  -23.3512  -42.7022 H         1 UNK         0.0600 
    146 H146        0.2591  -22.0518  -41.0034 H         1 UNK         0.0600 
    147 H147        1.2827  -23.2596  -41.7669 H         1 UNK         0.0600 
    148 H148        1.4362  -21.5689  -42.2214 H         1 UNK         0.0600 
    149 H149       -0.7718  -20.4916  -42.7888 H         1 UNK         0.3000 
    150 H150       -3.5565  -19.9430  -44.9935 H         1 UNK         0.0600 
    151 H151       -4.4995  -20.2403  -42.6992 H         1 UNK         0.0600 
    152 H152       -4.2545  -18.5424  -43.0794 H         1 UNK         0.0600 
    153 H153       -3.1284  -19.3776  -42.0125 H         1 UNK         0.0600 
    154 H154       -1.8250  -18.0966  -43.7163 H         1 UNK         0.3000 
    155 H155        0.7465  -18.0426  -46.2245 H         1 UNK         0.0600 
    156 H156        0.1611  -15.6016  -46.0156 H         1 UNK         0.0600 
    157 H157       -0.9600  -16.4800  -47.0531 H         1 UNK         0.0600 
    158 H158       -1.4342  -16.0507  -45.4198 H         1 UNK         0.0600 
    159 H159        0.5604  -16.5831  -43.8236 H         1 UNK         0.3000 
    160 H160        1.9642  -19.0066  -41.5895 H         1 UNK         0.0600 
    161 H161        3.0371  -16.4147  -42.8219 H         1 UNK         0.0600 
    162 H162        3.8985  -17.9335  -42.6484 H         1 UNK         0.0600 
    163 H163        3.4545  -17.0163  -41.2169 H         1 UNK         0.0600 
    164 H164        0.9057  -16.2947  -41.4329 H         1 UNK         0.3000 
    165 H165       -2.3351  -17.2758  -40.3320 H         1 UNK         0.0600 
    166 H166       -1.7351  -15.8842  -38.3701 H         1 UNK         0.0600 
    167 H167       -0.9519  -17.4524  -38.2601 H         1 UNK         0.0600 
    168 H168       -0.0186  -16.0418  -38.7453 H         1 UNK         0.0600 
    169 H169       -1.0242  -14.7325  -40.5934 H         1 UNK         0.3000 
    170 H170       -1.7945  -14.1949  -44.0259 H         1 UNK         0.0600 
    171 H171       -3.9478  -13.6823  -42.8628 H         1 UNK         0.0600 
    172 H172       -3.0601  -12.9356  -41.5391 H         1 UNK         0.0600 
    173 H173       -3.0032  -12.2307  -43.1555 H         1 UNK         0.0600 
    174 H174       -0.6993  -12.3485  -42.2964 H         1 UNK         0.3000 
    175 H175        1.6190  -12.3745  -41.4707 H         1 UNK         0.0600 
    176 H176        3.2733  -14.2005  -41.7637 H         1 UNK         0.0600 
    177 H177        3.4240  -13.8339  -43.4811 H         1 UNK         0.0600 
    178 H178        3.9722  -12.6726  -42.2746 H         1 UNK         0.0600 
    179 H179        1.7044  -12.0023  -44.4309 H         1 UNK         0.3000 
    180 H180        1.1782   -8.5145  -44.0645 H         1 UNK         0.0600 
    181 H181        3.7052   -9.8673  -45.1541 H         1 UNK         0.0600 
    182 H182        3.6733   -8.5794  -43.9561 H         1 UNK         0.0600 
    183 H183        3.1175   -8.2621  -45.5912 H         1 UNK         0.0600 
    184 H184        1.5763  -10.1058  -46.3822 H         1 UNK         0.3000 
    185 H185       -1.8397  -11.0393  -46.8561 H         1 UNK         0.0600 
    186 H186       -1.4071   -8.6433  -47.6221 H         1 UNK         0.0600 
    187 H187        0.1381   -9.1619  -48.2846 H         1 UNK         0.0600 
    188 H188       -1.3699   -9.7919  -48.9426 H         1 UNK         0.0600 
    189 H189        0.7339  -12.0607  -46.7868 H         1 UNK         0.3000 
    190 H190       -1.1106  -21.4073  -46.8781 H         1 UNK         0.3000 
    191 H191       -1.9039  -22.7256  -49.2192 H         1 UNK         0.0600 
    192 H192       -3.5612  -21.5860  -46.9042 H         1 UNK         0.0600 
    193 H193       -4.2208  -22.0449  -48.4632 H         1 UNK         0.0600 
    194 H194       -3.0517  -20.7364  -48.3604 H         1 UNK         0.0600 
    195 H195       -2.3675  -23.7173  -45.8009 H         1 UNK         0.3000 
    196 H196       -3.8476  -26.0850  -46.3098 H         1 UNK         0.0600 
    197 H197       -3.2006  -26.6887  -43.9837 H         1 UNK         0.0600 
    198 H198       -3.7163  -25.0112  -44.0772 H         1 UNK         0.0600 
    199 H199       -2.0026  -25.4020  -43.9604 H         1 UNK         0.0600 
    200 H200       -0.3088  -25.5382  -46.0697 H         1 UNK         0.3000 
    201 H201        0.4539  -28.2765  -46.4355 H         1 UNK         0.0600 
    202 H202        1.9469  -26.6006  -45.3891 H         1 UNK         0.0600 
    203 H203        2.0292  -25.6879  -46.8930 H         1 UNK         0.0600 
    204 H204        2.7190  -27.3036  -46.8030 H         1 UNK         0.0600 
    205 H205        0.0875  -25.5319  -48.7160 H         1 UNK         0.3000 
    206 H206        0.8898  -26.9421  -51.0705 H         1 UNK         0.0600 
    207 H207        0.9255  -24.4624  -50.8722 H         1 UNK         0.0600 
    208 H208       -0.0825  -24.9480  -52.2268 H         1 UNK         0.0600 
    209 H209       -0.8307  -24.4256  -50.7235 H         1 UNK         0.0600 
    210 H210       -2.1332  -26.7796  -49.3561 H         1 UNK         0.3000 
    211 H211       -4.1137  -27.7092  -49.5082 H         1 UNK         0.0600 
    212 H212       -3.0759  -29.5295  -51.7437 H         1 UNK         0.0600 
    213 H213       -4.5242  -29.7695  -50.7786 H         1 UNK         0.0600 
    214 H214       -2.9445  -29.8668  -50.0176 H         1 UNK         0.0600 
    215 H215       -3.6388  -25.2757  -50.7350 H         1 UNK         0.3000 
    216 H216       -5.9480  -25.0356  -52.4567 H         1 UNK         0.0600 
    217 H217       -3.1641  -24.2579  -53.5220 H         1 UNK         0.0600 
    218 H218       -4.6955  -23.8375  -54.2803 H         1 UNK         0.0600 
    219 H219       -4.1961  -25.5208  -54.1928 H         1 UNK         0.0600 
    220 H220       -6.8082  -22.9644  -52.2010 H         1 UNK         0.3000 
    221 H221       -6.0392  -21.4669  -49.9121 H         1 UNK         0.0600 
    222 H222       -8.3758  -21.5832  -50.7332 H         1 UNK         0.0600 
    223 H223       -7.9262  -20.7574  -52.2245 H         1 UNK         0.0600 
    224 H224       -7.8423  -19.9108  -50.6853 H         1 UNK         0.0600 
    225 H225       -4.8135  -19.6578  -49.6583 H         1 UNK         0.3000 
    226 H226       -2.7441  -19.0135  -51.3698 H         1 UNK         0.0600 
    227 H227       -2.5890  -18.4962  -49.0126 H         1 UNK         0.0600 
    228 H228       -2.5349  -16.9489  -49.8359 H         1 UNK         0.0600 
    229 H229       -4.0186  -17.4634  -49.0598 H         1 UNK         0.0600 
    230 H230       -5.8964  -17.3983  -51.1250 H         1 UNK         0.3000 
    231 H231       -5.2977  -15.2437  -52.9461 H         1 UNK         0.0600 
    232 H232       -7.9677  -16.3582  -51.9283 H         1 UNK         0.0600 
    233 H233       -7.7517  -14.8250  -52.7637 H         1 UNK         0.0600 
    234 H234       -7.0349  -15.0617  -51.1784 H         1 UNK         0.0600 
    235 H235       -6.1493  -18.5906  -53.4522 H         1 UNK         0.3000 
    236 H236       -7.2718  -18.1273  -56.1534 H         1 UNK         0.0600 
    237 H237       -8.3998  -19.7828  -54.6721 H         1 UNK         0.0600 
    238 H238       -7.7379  -20.5390  -56.1127 H         1 UNK         0.0600 
    239 H239       -6.9144  -20.7267  -54.5736 H         1 UNK         0.0600 
    240 H240       -4.5113  -19.8250  -54.5234 H         1 UNK         0.3000 
    241 H241       -3.2566  -20.3796  -57.0870 H         1 UNK         0.0600 
    242 H242       -1.6075  -16.9225  -55.7418 H         1 UNK         0.3800 
    243 H243       -2.8988  -17.6358  -54.8162 H         1 UNK         0.3800 
    244 H244       -1.5044  -21.5180  -55.8780 H         1 UNK         0.0800 
    245 H245       -3.0685  -22.0406  -55.3443 H         1 UNK         0.0800 
    246 H246        0.3352  -21.3732  -54.1446 H         1 UNK         0.0800 
    247 H247       -0.0291  -19.7004  -54.4928 H         1 UNK         0.0800 
@<TRIPOS>BOND
     1    1    2 1    
     2    1  127 1    
     3    1  128 1    
     4    1  129 1    
     5    2    3 2    
     6    2    4 am   BACKBONE|DICT|INTERRES
     7    4    5 1    
     8    4  130 1    
     9    5    6 1    
    10    5   65 1    
    11    5  131 1    
    12    6    7 1    
    13    6  132 1    
    14    6  133 1    
    15    7    8 1    
    16    8    9 1    
    17    8  134 1    
    18    8  135 1    
    19    9   10 ar   
    20    9   14 ar   
    21   10   11 ar   
    22   10  136 1    
    23   11   12 ar   
    24   11  126 1    
    25   12   13 ar   
    26   12  137 1    
    27   13   14 ar   
    28   13   15 1    
    29   14  138 1    
    30   15   16 1    
    31   15  139 1    
    32   15  140 1    
    33   16   17 1    
    34   17   18 1    
    35   17  141 1    
    36   17  142 1    
    37   18   19 1    
    38   18   67 1    
    39   18  143 1    
    40   19   20 am   BACKBONE|DICT|INTERRES
    41   19  144 1    
    42   20   21 2    
    43   20   22 1    
    44   22   23 1    
    45   22   24 1    
    46   22  145 1    
    47   23  146 1    
    48   23  147 1    
    49   23  148 1    
    50   24   25 am   BACKBONE|DICT|INTERRES
    51   24  149 1    
    52   25   26 2    
    53   25   27 1    
    54   27   28 1    
    55   27   29 1    
    56   27  150 1    
    57   28  151 1    
    58   28  152 1    
    59   28  153 1    
    60   29   30 am   BACKBONE|DICT|INTERRES
    61   29  154 1    
    62   30   31 2    
    63   30   32 1    
    64   32   33 1    
    65   32   34 1    
    66   32  155 1    
    67   33  156 1    
    68   33  157 1    
    69   33  158 1    
    70   34   35 am   BACKBONE|DICT|INTERRES
    71   34  159 1    
    72   35   36 2    
    73   35   37 1    
    74   37   38 1    
    75   37   39 1    
    76   37  160 1    
    77   38  161 1    
    78   38  162 1    
    79   38  163 1    
    80   39   40 am   BACKBONE|DICT|INTERRES
    81   39  164 1    
    82   40   41 2    
    83   40   42 1    
    84   42   43 1    
    85   42   44 1    
    86   42  165 1    
    87   43  166 1    
    88   43  167 1    
    89   43  168 1    
    90   44   45 am   BACKBONE|DICT|INTERRES
    91   44  169 1    
    92   45   46 2    
    93   45   47 1    
    94   47   48 1    
    95   47   49 1    
    96   47  170 1    
    97   48  171 1    
    98   48  172 1    
    99   48  173 1    
   100   49   50 am   BACKBONE|DICT|INTERRES
   101   49  174 1    
   102   50   51 2    
   103   50   52 1    
   104   52   53 1    
   105   52   54 1    
   106   52  175 1    
   107   53  176 1    
   108   53  177 1    
   109   53  178 1    
   110   54   55 am   BACKBONE|DICT|INTERRES
   111   54  179 1    
   112   55   56 2    
   113   55   57 1    
   114   57   58 1    
   115   57   59 1    
   116   57  180 1    
   117   58  181 1    
   118   58  182 1    
   119   58  183 1    
   120   59   60 am   BACKBONE|DICT|INTERRES
   121   59  184 1    
   122   60   61 2    
   123   60   62 1    
   124   62   63 1    
   125   62   64 1    
   126   62  185 1    
   127   63  186 1    
   128   63  187 1    
   129   63  188 1    
   130   64   65 am   BACKBONE|DICT|INTERRES
   131   64  189 1    
   132   65   66 2    
   133   67   68 2    
   134   67   69 am   BACKBONE|DICT|INTERRES
   135   69   70 1    
   136   69  190 1    
   137   70   71 1    
   138   70   72 1    
   139   70  191 1    
   140   71  192 1    
   141   71  193 1    
   142   71  194 1    
   143   72   73 2    
   144   72   74 am   BACKBONE|DICT|INTERRES
   145   74   75 1    
   146   74  195 1    
   147   75   76 1    
   148   75   77 1    
   149   75  196 1    
   150   76  197 1    
   151   76  198 1    
   152   76  199 1    
   153   77   78 2    
   154   77   79 am   BACKBONE|DICT|INTERRES
   155   79   80 1    
   156   79  200 1    
   157   80   81 1    
   158   80   82 1    
   159   80  201 1    
   160   81  202 1    
   161   81  203 1    
   162   81  204 1    
   163   82   83 2    
   164   82   84 am   BACKBONE|DICT|INTERRES
   165   84   85 1    
   166   84  205 1    
   167   85   86 1    
   168   85   87 1    
   169   85  206 1    
   170   86  207 1    
   171   86  208 1    
   172   86  209 1    
   173   87   88 2    
   174   87   89 am   BACKBONE|DICT|INTERRES
   175   89   90 1    
   176   89  210 1    
   177   90   91 1    
   178   90   92 1    
   179   90  211 1    
   180   91  212 1    
   181   91  213 1    
   182   91  214 1    
   183   92   93 2    
   184   92   94 am   BACKBONE|DICT|INTERRES
   185   94   95 1    
   186   94  215 1    
   187   95   96 1    
   188   95   97 1    
   189   95  216 1    
   190   96  217 1    
   191   96  218 1    
   192   96  219 1    
   193   97   98 2    
   194   97   99 am   BACKBONE|DICT|INTERRES
   195   99  100 1    
   196   99  220 1    
   197  100  101 1    
   198  100  102 1    
   199  100  221 1    
   200  101  222 1    
   201  101  223 1    
   202  101  224 1    
   203  102  103 2    
   204  102  104 am   BACKBONE|DICT|INTERRES
   205  104  105 1    
   206  104  225 1    
   207  105  106 1    
   208  105  107 1    
   209  105  226 1    
   210  106  227 1    
   211  106  228 1    
   212  106  229 1    
   213  107  108 2    
   214  107  109 am   BACKBONE|DICT|INTERRES
   215  109  110 1    
   216  109  230 1    
   217  110  111 1    
   218  110  112 1    
   219  110  231 1    
   220  111  232 1    
   221  111  233 1    
   222  111  234 1    
   223  112  113 2    
   224  112  114 am   BACKBONE|DICT|INTERRES
   225  114  115 1    
   226  114  235 1    
   227  115  116 1    
   228  115  117 1    
   229  115  236 1    
   230  116  237 1    
   231  116  238 1    
   232  116  239 1    
   233  117  118 2    
   234  117  119 am   BACKBONE|DICT|INTERRES
   235  119  120 1    
   236  119  240 1    
   237  120  121 1    
   238  120  124 1    
   239  120  241 1    
   240  121  122 am   BACKBONE|DICT|INTERRES
   241  121  123 2    
   242  122  242 1    
   243  122  243 1    
   244  124  125 1    
   245  124  244 1    
   246  124  245 1    
   247  125  126 1    
   248  126  246 1    
   249  126  247 1    
@<TRIPOS>SUBSTRUCTURE
     1 UNK         1 GROUP             0       ****    0 ROOT    
