@<TRIPOS>MOLECULE
3R540
247   249    1
SMALL
USER_CHARGES


@<TRIPOS>ATOM
      1 CA          5.5932  -16.0155  -50.1676 C.3       0 UNK        -0.1800 
      2 C           4.8110  -15.8867  -48.8686 C.2       0 UNK         0.5000 
      3 O           4.7370  -16.8458  -48.1016 O.2       0 UNK        -0.5000 
      4 N           4.2234  -14.7082  -48.6250 N.am      1 UNK        -0.5000 
      5 CA          3.3992  -14.4042  -47.4467 C.3       1 UNK         0.1400 
      6 C6          2.5678  -13.1082  -47.6267 C.3       23 UNK        -0.0398 
      7 S7          1.6205  -13.0518  -49.1902 S.3       23 UNK        -0.2404 
      8 C8          0.2274  -14.1578  -48.8150 C.3       23 UNK        -0.0205 
      9 C9          0.1455  -15.3138  -49.7986 C.ar      23 UNK        -0.0193 
     10 C10        -0.8106  -15.3119  -50.8179 C.ar      23 UNK        -0.1150 
     11 C11        -0.9120  -16.3957  -51.6954 C.ar      23 UNK        -0.0193 
     12 C12        -0.0429  -17.4819  -51.5568 C.ar      23 UNK        -0.1150 
     13 C13         0.9213  -17.4905  -50.5463 C.ar      23 UNK        -0.0193 
     14 C14         1.0081  -16.4052  -49.6722 C.ar      23 UNK        -0.1150 
     15 C15         1.8783  -18.6623  -50.3960 C.3       23 UNK        -0.0205 
     16 S16         1.6345  -19.5370  -48.8204 S.3       23 UNK        -0.2404 
     17 C17         0.0352  -20.3613  -49.1074 C.3       23 UNK        -0.0398 
     18 CA         -0.2093  -21.4536  -48.0424 C.3       11 UNK         0.1400 
     19 N          -0.3774  -20.8995  -46.6964 N.am      11 UNK        -0.5000 
     20 C          -0.3383  -21.6218  -45.5688 C.2       10 UNK         0.5000 
     21 O          -0.1213  -22.8321  -45.5400 O.2       10 UNK        -0.5000 
     22 CA         -0.6587  -20.8755  -44.2629 C.3       10 UNK         0.1400 
     23 CB          0.5790  -20.1350  -43.7356 C.3       10 UNK        -0.1800 
     24 N          -1.7702  -19.9397  -44.4417 N.am      10 UNK        -0.5000 
     25 C          -3.0385  -20.3280  -44.6479 C.2       9 UNK         0.5000 
     26 O          -3.3997  -21.5043  -44.6264 O.2       9 UNK        -0.5000 
     27 CA         -4.0673  -19.2360  -44.9929 C.3       9 UNK         0.1400 
     28 CB         -4.8032  -18.7576  -43.7333 C.3       9 UNK        -0.1800 
     29 N          -3.4718  -18.0976  -45.6962 N.am      9 UNK        -0.5000 
     30 C          -2.9928  -18.1674  -46.9486 C.2       8 UNK         0.5000 
     31 O          -3.0156  -19.1977  -47.6211 O.2       8 UNK        -0.5000 
     32 CA         -2.3506  -16.9005  -47.5452 C.3       8 UNK         0.1400 
     33 CB         -3.3802  -16.1291  -48.3834 C.3       8 UNK        -0.1800 
     34 N          -1.7771  -15.9984  -46.5452 N.am      8 UNK        -0.5000 
     35 C          -0.7639  -16.3015  -45.7226 C.2       7 UNK         0.5000 
     36 O          -0.2005  -17.3964  -45.7151 O.2       7 UNK        -0.5000 
     37 CA         -0.3310  -15.2213  -44.7068 C.3       7 UNK         0.1400 
     38 CB         -0.9091  -13.8157  -44.9870 C.3       7 UNK        -0.1800 
     39 N          -0.6421  -15.6118  -43.3297 N.am      7 UNK        -0.5000 
     40 C          -1.8289  -16.0146  -42.8477 C.2       6 UNK         0.5000 
     41 O          -2.8475  -16.1309  -43.5299 O.2       6 UNK        -0.5000 
     42 CA         -1.8896  -16.3331  -41.3421 C.3       6 UNK         0.1400 
     43 CB         -1.5302  -17.8052  -41.0882 C.3       6 UNK        -0.1800 
     44 N          -0.9999  -15.4855  -40.5474 N.am      6 UNK        -0.5000 
     45 C          -1.1689  -14.1707  -40.3442 C.2       5 UNK         0.5000 
     46 O          -2.1450  -13.5348  -40.7430 O.2       5 UNK        -0.5000 
     47 CA         -0.0495  -13.4422  -39.5749 C.3       5 UNK         0.1400 
     48 CB         -0.3972  -13.3450  -38.0815 C.3       5 UNK        -0.1800 
     49 N           1.2610  -14.0836  -39.7215 N.am      5 UNK        -0.5000 
     50 C           1.9760  -14.0956  -40.8540 C.2       4 UNK         0.5000 
     51 O           1.6076  -13.5674  -41.9048 O.2       4 UNK        -0.5000 
     52 CA          3.3026  -14.8736  -40.8174 C.3       4 UNK         0.1400 
     53 CB          3.1623  -16.2054  -41.5726 C.3       4 UNK        -0.1800 
     54 N           4.4021  -14.1081  -41.4009 N.am      4 UNK        -0.5000 
     55 C           4.9234  -12.9863  -40.8826 C.2       3 UNK         0.5000 
     56 O           4.5248  -12.4776  -39.8335 O.2       3 UNK        -0.5000 
     57 CA          6.1089  -12.3378  -41.6291 C.3       3 UNK         0.1400 
     58 CB          7.3446  -12.2507  -40.7170 C.3       3 UNK        -0.1800 
     59 N           6.4816  -13.0738  -42.8397 N.am      3 UNK        -0.5000 
     60 C           6.0236  -12.8167  -44.0703 C.2       2 UNK         0.5000 
     61 O           5.2815  -11.8679  -44.3355 O.2       2 UNK        -0.5000 
     62 CA          6.4873  -13.7690  -45.1973 C.3       2 UNK         0.1400 
     63 CB          6.9236  -15.1647  -44.6947 C.3       2 UNK        -0.1800 
     64 N           5.4922  -13.9101  -46.2644 N.am      2 UNK        -0.5000 
     65 C           4.2263  -14.3424  -46.1456 C.2       1 UNK         0.5000 
     66 O           3.7106  -14.6984  -45.0848 O.2       1 UNK        -0.5000 
     67 C          -1.3826  -22.3707  -48.4346 C.2       11 UNK         0.5000 
     68 O          -1.1506  -23.3872  -49.0882 O.2       11 UNK        -0.5000 
     69 N          -2.6076  -22.0303  -48.0112 N.am      12 UNK        -0.5000 
     70 CA         -3.7956  -22.8682  -48.1776 C.3       12 UNK         0.1400 
     71 CB         -5.0573  -22.0667  -47.8287 C.3       12 UNK        -0.1800 
     72 C          -3.7130  -24.1668  -47.3557 C.2       12 UNK         0.5000 
     73 O          -4.0144  -25.2354  -47.8860 O.2       12 UNK        -0.5000 
     74 N          -3.2607  -24.0635  -46.0970 N.am      13 UNK        -0.5000 
     75 CA         -3.0295  -25.2002  -45.2005 C.3       13 UNK         0.1400 
     76 CB         -2.7223  -24.6860  -43.7860 C.3       13 UNK        -0.1800 
     77 C          -1.9125  -26.1399  -45.6954 C.2       13 UNK         0.5000 
     78 O          -2.0458  -27.3584  -45.5787 O.2       13 UNK        -0.5000 
     79 N          -0.8512  -25.5593  -46.2714 N.am      14 UNK        -0.5000 
     80 CA          0.2588  -26.2739  -46.9065 C.3       14 UNK         0.1400 
     81 CB          1.4480  -25.3099  -47.0450 C.3       14 UNK        -0.1800 
     82 C          -0.0958  -26.8774  -48.2822 C.2       14 UNK         0.5000 
     83 O           0.6901  -27.6675  -48.8064 O.2       14 UNK        -0.5000 
     84 N          -1.2440  -26.4783  -48.8501 N.am      15 UNK        -0.5000 
     85 CA         -1.7516  -26.8115  -50.1858 C.3       15 UNK         0.1400 
     86 CB         -2.0242  -28.3239  -50.3218 C.3       15 UNK        -0.1800 
     87 C          -0.8822  -26.2460  -51.3310 C.2       15 UNK         0.5000 
     88 O          -0.9026  -26.7775  -52.4426 O.2       15 UNK        -0.5000 
     89 N          -0.1529  -25.1582  -51.0477 N.am      16 UNK        -0.5000 
     90 CA          0.5638  -24.3472  -52.0309 C.3       16 UNK         0.1400 
     91 CB          1.6547  -23.5325  -51.3183 C.3       16 UNK        -0.1800 
     92 C          -0.4103  -23.4267  -52.7885 C.2       16 UNK         0.5000 
     93 O          -0.2541  -23.2296  -53.9937 O.2       16 UNK        -0.5000 
     94 N          -1.4238  -22.9285  -52.0700 N.am      17 UNK        -0.5000 
     95 CA         -2.6321  -22.3328  -52.6268 C.3       17 UNK         0.1400 
     96 CB         -3.0465  -21.1346  -51.7582 C.3       17 UNK        -0.1800 
     97 C          -3.7251  -23.4106  -52.6141 C.2       17 UNK         0.5000 
     98 O          -3.8283  -24.1575  -51.6374 O.2       17 UNK        -0.5000 
     99 N          -4.5453  -23.4670  -53.6674 N.am      18 UNK        -0.5000 
    100 CA        -5.6707  -24.3933  -53.7832 C.3       18 UNK         0.1400 
    101 CB        -5.8462  -24.7915  -55.2588 C.3       18 UNK        -0.1800 
    102 C         -6.9252  -23.7554  -53.1601 C.2       18 UNK         0.5000 
    103 O         -7.8892  -23.4468  -53.8637 O.2       18 UNK        -0.5000 
    104 N         -6.8562  -23.5264  -51.8407 N.am      19 UNK        -0.5000 
    105 CA        -7.8338  -22.8183  -51.0120 C.3       19 UNK         0.1400 
    106 CB        -9.1307  -23.6463  -50.8670 C.3       19 UNK        -0.1800 
    107 C         -8.0498  -21.3802  -51.5265 C.2       19 UNK         0.5000 
    108 O         -7.1386  -20.5604  -51.4077 O.2       19 UNK        -0.5000 
    109 N         -9.2271  -21.1053  -52.1033 N.am      20 UNK        -0.5000 
    110 CA        -9.5853  -19.8209  -52.7064 C.3       20 UNK         0.1400 
    111 CB       -11.0993  -19.7969  -52.9659 C.3       20 UNK        -0.1800 
    112 C         -8.8115  -19.5105  -54.0034 C.2       20 UNK         0.5000 
    113 O         -8.6295  -18.3353  -54.3263 O.2       20 UNK        -0.5000 
    114 N         -8.3611  -20.5496  -54.7213 N.am      21 UNK        -0.5000 
    115 CA        -7.5279  -20.4293  -55.9152 C.3       21 UNK         0.1400 
    116 CB        -7.7857  -21.6259  -56.8454 C.3       21 UNK        -0.1800 
    117 C         -6.0541  -20.2908  -55.4957 C.2       21 UNK         0.5000 
    118 O         -5.3120  -21.2750  -55.4643 O.2       21 UNK        -0.5000 
    119 N         -5.6789  -19.0621  -55.1258 N.am      22 UNK        -0.5000 
    120 CA        -4.3402  -18.6990  -54.6374 C.3       22 UNK         0.1400 
    121 C         -3.2237  -18.6972  -55.7242 C.2       22 UNK         0.5000 
    122 N         -3.5513  -18.6637  -57.0103 N.am      22 UNK        -0.7600 
    123 O         -2.0420  -18.7464  -55.3987 O.2       22 UNK        -0.5000 
    124 C124       -4.3849  -17.3653  -53.8396 C.3       23 UNK        -0.0398 
    125 S125       -3.3898  -17.4162  -52.3134 S.3       23 UNK        -0.2404 
    126 C126       -1.9613  -16.4009  -52.7925 C.3       23 UNK        -0.0205 
    127 H127        6.6346  -16.2581  -49.9562 H         1 UNK         0.0600 
    128 H128        5.5693  -15.0933  -50.7487 H         1 UNK         0.0600 
    129 H129        5.1730  -16.8135  -50.7798 H         1 UNK         0.0600 
    130 H130        4.2956  -13.9674  -49.3081 H         1 UNK         0.3000 
    131 H131        2.6982  -15.2288  -47.3126 H         1 UNK         0.0600 
    132 H132        3.2235  -12.2355  -47.6151 H         1 UNK         0.0800 
    133 H133        1.8788  -12.9741  -46.7907 H         1 UNK         0.0800 
    134 H134        0.3331  -14.5626  -47.8108 H         1 UNK         0.0800 
    135 H135       -0.6987  -13.5811  -48.8182 H         1 UNK         0.0800 
    136 H136       -1.4853  -14.4736  -50.9202 H         1 UNK         0.1150 
    137 H137       -0.1239  -18.3199  -52.2353 H         1 UNK         0.1150 
    138 H138        1.7465  -16.4247  -48.8862 H         1 UNK         0.1150 
    139 H139        1.7784  -19.3646  -51.2251 H         1 UNK         0.0800 
    140 H140        2.9020  -18.2872  -50.4323 H         1 UNK         0.0800 
    141 H141       -0.7617  -19.6161  -49.1003 H         1 UNK         0.0800 
    142 H142        0.0468  -20.7915  -50.1105 H         1 UNK         0.0800 
    143 H143        0.6768  -22.0918  -48.0188 H         1 UNK         0.0600 
    144 H144       -0.5531  -19.9066  -46.6336 H         1 UNK         0.3000 
    145 H145       -0.9512  -21.6166  -43.5158 H         1 UNK         0.0600 
    146 H146        0.3690  -19.6374  -42.7902 H         1 UNK         0.0600 
    147 H147        1.3996  -20.8313  -43.5587 H         1 UNK         0.0600 
    148 H148        0.9371  -19.3843  -44.4400 H         1 UNK         0.0600 
    149 H149       -1.5344  -18.9610  -44.5369 H         1 UNK         0.3000 
    150 H150       -4.8103  -19.6809  -45.6571 H         1 UNK         0.0600 
    151 H151       -5.3427  -19.5817  -43.2648 H         1 UNK         0.0600 
    152 H152       -5.5334  -17.9840  -43.9710 H         1 UNK         0.0600 
    153 H153       -4.1182  -18.3554  -42.9888 H         1 UNK         0.0600 
    154 H154       -3.3746  -17.2351  -45.1695 H         1 UNK         0.3000 
    155 H155       -1.5428  -17.2236  -48.2051 H         1 UNK         0.0600 
    156 H156       -4.2248  -15.7974  -47.7783 H         1 UNK         0.0600 
    157 H157       -3.7747  -16.7546  -49.1854 H         1 UNK         0.0600 
    158 H158       -2.9362  -15.2498  -48.8489 H         1 UNK         0.0600 
    159 H159       -2.2202  -15.0968  -46.4467 H         1 UNK         0.3000 
    160 H160        0.7560  -15.1533  -44.7756 H         1 UNK         0.0600 
    161 H161       -1.9943  -13.7866  -44.8831 H         1 UNK         0.0600 
    162 H162       -0.6583  -13.4675  -45.9884 H         1 UNK         0.0600 
    163 H163       -0.4972  -13.0876  -44.2875 H         1 UNK         0.0600 
    164 H164        0.1253  -15.5323  -42.6789 H         1 UNK         0.3000 
    165 H165       -2.9163  -16.1662  -41.0093 H         1 UNK         0.0600 
    166 H166       -0.4843  -18.0065  -41.3196 H         1 UNK         0.0600 
    167 H167       -1.6991  -18.0760  -40.0458 H         1 UNK         0.0600 
    168 H168       -2.1361  -18.4754  -41.6983 H         1 UNK         0.0600 
    169 H169       -0.1798  -15.9252  -40.1575 H         1 UNK         0.3000 
    170 H170        0.0198  -12.4287  -39.9761 H         1 UNK         0.0600 
    171 H171       -1.3570  -12.8474  -37.9357 H         1 UNK         0.0600 
    172 H172       -0.4646  -14.3300  -37.6180 H         1 UNK         0.0600 
    173 H173        0.3517  -12.7679  -37.5387 H         1 UNK         0.0600 
    174 H174        1.6348  -14.5343  -38.8984 H         1 UNK         0.3000 
    175 H175        3.5597  -15.0927  -39.7788 H         1 UNK         0.0600 
    176 H176        2.3626  -16.8148  -41.1498 H         1 UNK         0.0600 
    177 H177        2.9327  -16.0479  -42.6277 H         1 UNK         0.0600 
    178 H178        4.0803  -16.7905  -41.5146 H         1 UNK         0.0600 
    179 H179        4.7424  -14.4228  -42.2972 H         1 UNK         0.3000 
    180 H180        5.8097  -11.3204  -41.8892 H         1 UNK         0.0600 
    181 H181        8.1775  -11.7667  -41.2275 H         1 UNK         0.0600 
    182 H182        7.1326  -11.6654  -39.8213 H         1 UNK         0.0600 
    183 H183        7.6769  -13.2379  -40.3933 H         1 UNK         0.0600 
    184 H184        7.0948  -13.8657  -42.7082 H         1 UNK         0.3000 
    185 H185        7.3567  -13.2946  -45.6543 H         1 UNK         0.0600 
    186 H186        7.1888  -15.8135  -45.5299 H         1 UNK         0.0600 
    187 H187        7.8032  -15.1036  -44.0533 H         1 UNK         0.0600 
    188 H188        6.1319  -15.6615  -44.1324 H         1 UNK         0.0600 
    189 H189        5.8011  -13.6314  -47.1846 H         1 UNK         0.3000 
    190 H190       -2.7380  -21.1269  -47.5663 H         1 UNK         0.3000 
    191 H191       -3.8621  -23.1511  -49.2285 H         1 UNK         0.0600 
    192 H192       -5.9544  -22.6632  -47.9963 H         1 UNK         0.0600 
    193 H193       -5.1393  -21.1713  -48.4457 H         1 UNK         0.0600 
    194 H194       -5.0632  -21.7587  -46.7840 H         1 UNK         0.0600 
    195 H195       -3.0831  -23.1407  -45.7124 H         1 UNK         0.3000 
    196 H196       -3.9531  -25.7810  -45.1558 H         1 UNK         0.0600 
    197 H197       -2.5694  -25.5145  -43.0934 H         1 UNK         0.0600 
    198 H198       -3.5452  -24.0854  -43.3980 H         1 UNK         0.0600 
    199 H199       -1.8223  -24.0711  -43.7669 H         1 UNK         0.0600 
    200 H200       -0.7799  -24.5463  -46.2462 H         1 UNK         0.3000 
    201 H201        0.5590  -27.0968  -46.2547 H         1 UNK         0.0600 
    202 H202        1.2076  -24.4690  -47.6961 H         1 UNK         0.0600 
    203 H203        2.3169  -25.8147  -47.4690 H         1 UNK         0.0600 
    204 H204        1.7471  -24.9094  -46.0762 H         1 UNK         0.0600 
    205 H205       -1.8126  -25.8191  -48.3342 H         1 UNK         0.3000 
    206 H206       -2.7123  -26.3015  -50.2675 H         1 UNK         0.0600 
    207 H207       -2.6375  -28.6888  -49.4979 H         1 UNK         0.0600 
    208 H208       -2.5616  -28.5414  -51.2454 H         1 UNK         0.0600 
    209 H209       -1.1016  -28.9044  -50.3382 H         1 UNK         0.0600 
    210 H210       -0.2685  -24.7481  -50.1261 H         1 UNK         0.3000 
    211 H211        1.0453  -25.0066  -52.7561 H         1 UNK         0.0600 
    212 H212        1.2376  -22.8730  -50.5578 H         1 UNK         0.0600 
    213 H213        2.2042  -22.9116  -52.0270 H         1 UNK         0.0600 
    214 H214        2.3768  -24.1872  -50.8303 H         1 UNK         0.0600 
    215 H215       -1.4894  -23.2095  -51.0978 H         1 UNK         0.3000 
    216 H216       -2.4685  -21.9903  -53.6510 H         1 UNK         0.0600 
    217 H217       -4.0167  -20.7416  -52.0626 H         1 UNK         0.0600 
    218 H218       -2.3210  -20.3246  -51.8349 H         1 UNK         0.0600 
    219 H219       -3.1333  -21.4038  -50.7073 H         1 UNK         0.0600 
    220 H220       -4.4919  -22.7548  -54.3904 H         1 UNK         0.3000 
    221 H221       -5.4649  -25.3099  -53.2261 H         1 UNK         0.0600 
    222 H222       -5.9215  -23.9213  -55.9084 H         1 UNK         0.0600 
    223 H223       -4.9980  -25.3832  -55.6032 H         1 UNK         0.0600 
    224 H224       -6.7426  -25.3959  -55.4025 H         1 UNK         0.0600 
    225 H225       -5.9904  -23.7789  -51.3792 H         1 UNK         0.3000 
    226 H226       -7.3917  -22.7241  -50.0196 H         1 UNK         0.0600 
    227 H227       -8.9208  -24.6153  -50.4140 H         1 UNK         0.0600 
    228 H228       -9.8487  -23.1407  -50.2199 H         1 UNK         0.0600 
    229 H229       -9.6183  -23.8330  -51.8242 H         1 UNK         0.0600 
    230 H230       -9.9064  -21.8481  -52.1833 H         1 UNK         0.3000 
    231 H231       -9.3499  -19.0323  -51.9885 H         1 UNK         0.0600 
    232 H232      -11.4078  -18.8405  -53.3903 H         1 UNK         0.0600 
    233 H233      -11.6608  -19.9368  -52.0419 H         1 UNK         0.0600 
    234 H234      -11.4001  -20.5785  -53.6647 H         1 UNK         0.0600 
    235 H235       -8.4832  -21.4889  -54.3577 H         1 UNK         0.3000 
    236 H236       -7.8039  -19.5300  -56.4703 H         1 UNK         0.0600 
    237 H237       -7.6679  -22.5768  -56.3305 H         1 UNK         0.0600 
    238 H238       -8.7990  -21.5949  -57.2459 H         1 UNK         0.0600 
    239 H239       -7.1001  -21.6201  -57.6935 H         1 UNK         0.0600 
    240 H240       -6.3711  -18.3250  -55.1390 H         1 UNK         0.3000 
    241 H241       -4.0591  -19.4943  -53.9479 H         1 UNK         0.0600 
    242 H242       -4.5164  -18.6314  -57.2966 H         1 UNK         0.3800 
    243 H243       -2.8224  -18.6735  -57.7066 H         1 UNK         0.3800 
    244 H244       -5.4044  -17.1522  -53.5141 H         1 UNK         0.0800 
    245 H245       -4.0997  -16.5115  -54.4571 H         1 UNK         0.0800 
    246 H246       -1.5213  -16.7868  -53.7123 H         1 UNK         0.0800 
    247 H247       -2.2941  -15.3848  -53.0097 H         1 UNK         0.0800 
@<TRIPOS>BOND
     1    1    2 1    
     2    1  127 1    
     3    1  128 1    
     4    1  129 1    
     5    2    3 2    
     6    2    4 am   BACKBONE|DICT|INTERRES
     7    4    5 1    
     8    4  130 1    
     9    5    6 1    
    10    5   65 1    
    11    5  131 1    
    12    6    7 1    
    13    6  132 1    
    14    6  133 1    
    15    7    8 1    
    16    8    9 1    
    17    8  134 1    
    18    8  135 1    
    19    9   10 ar   
    20    9   14 ar   
    21   10   11 ar   
    22   10  136 1    
    23   11   12 ar   
    24   11  126 1    
    25   12   13 ar   
    26   12  137 1    
    27   13   14 ar   
    28   13   15 1    
    29   14  138 1    
    30   15   16 1    
    31   15  139 1    
    32   15  140 1    
    33   16   17 1    
    34   17   18 1    
    35   17  141 1    
    36   17  142 1    
    37   18   19 1    
    38   18   67 1    
    39   18  143 1    
    40   19   20 am   BACKBONE|DICT|INTERRES
    41   19  144 1    
    42   20   21 2    
    43   20   22 1    
    44   22   23 1    
    45   22   24 1    
    46   22  145 1    
    47   23  146 1    
    48   23  147 1    
    49   23  148 1    
    50   24   25 am   BACKBONE|DICT|INTERRES
    51   24  149 1    
    52   25   26 2    
    53   25   27 1    
    54   27   28 1    
    55   27   29 1    
    56   27  150 1    
    57   28  151 1    
    58   28  152 1    
    59   28  153 1    
    60   29   30 am   BACKBONE|DICT|INTERRES
    61   29  154 1    
    62   30   31 2    
    63   30   32 1    
    64   32   33 1    
    65   32   34 1    
    66   32  155 1    
    67   33  156 1    
    68   33  157 1    
    69   33  158 1    
    70   34   35 am   BACKBONE|DICT|INTERRES
    71   34  159 1    
    72   35   36 2    
    73   35   37 1    
    74   37   38 1    
    75   37   39 1    
    76   37  160 1    
    77   38  161 1    
    78   38  162 1    
    79   38  163 1    
    80   39   40 am   BACKBONE|DICT|INTERRES
    81   39  164 1    
    82   40   41 2    
    83   40   42 1    
    84   42   43 1    
    85   42   44 1    
    86   42  165 1    
    87   43  166 1    
    88   43  167 1    
    89   43  168 1    
    90   44   45 am   BACKBONE|DICT|INTERRES
    91   44  169 1    
    92   45   46 2    
    93   45   47 1    
    94   47   48 1    
    95   47   49 1    
    96   47  170 1    
    97   48  171 1    
    98   48  172 1    
    99   48  173 1    
   100   49   50 am   BACKBONE|DICT|INTERRES
   101   49  174 1    
   102   50   51 2    
   103   50   52 1    
   104   52   53 1    
   105   52   54 1    
   106   52  175 1    
   107   53  176 1    
   108   53  177 1    
   109   53  178 1    
   110   54   55 am   BACKBONE|DICT|INTERRES
   111   54  179 1    
   112   55   56 2    
   113   55   57 1    
   114   57   58 1    
   115   57   59 1    
   116   57  180 1    
   117   58  181 1    
   118   58  182 1    
   119   58  183 1    
   120   59   60 am   BACKBONE|DICT|INTERRES
   121   59  184 1    
   122   60   61 2    
   123   60   62 1    
   124   62   63 1    
   125   62   64 1    
   126   62  185 1    
   127   63  186 1    
   128   63  187 1    
   129   63  188 1    
   130   64   65 am   BACKBONE|DICT|INTERRES
   131   64  189 1    
   132   65   66 2    
   133   67   68 2    
   134   67   69 am   BACKBONE|DICT|INTERRES
   135   69   70 1    
   136   69  190 1    
   137   70   71 1    
   138   70   72 1    
   139   70  191 1    
   140   71  192 1    
   141   71  193 1    
   142   71  194 1    
   143   72   73 2    
   144   72   74 am   BACKBONE|DICT|INTERRES
   145   74   75 1    
   146   74  195 1    
   147   75   76 1    
   148   75   77 1    
   149   75  196 1    
   150   76  197 1    
   151   76  198 1    
   152   76  199 1    
   153   77   78 2    
   154   77   79 am   BACKBONE|DICT|INTERRES
   155   79   80 1    
   156   79  200 1    
   157   80   81 1    
   158   80   82 1    
   159   80  201 1    
   160   81  202 1    
   161   81  203 1    
   162   81  204 1    
   163   82   83 2    
   164   82   84 am   BACKBONE|DICT|INTERRES
   165   84   85 1    
   166   84  205 1    
   167   85   86 1    
   168   85   87 1    
   169   85  206 1    
   170   86  207 1    
   171   86  208 1    
   172   86  209 1    
   173   87   88 2    
   174   87   89 am   BACKBONE|DICT|INTERRES
   175   89   90 1    
   176   89  210 1    
   177   90   91 1    
   178   90   92 1    
   179   90  211 1    
   180   91  212 1    
   181   91  213 1    
   182   91  214 1    
   183   92   93 2    
   184   92   94 am   BACKBONE|DICT|INTERRES
   185   94   95 1    
   186   94  215 1    
   187   95   96 1    
   188   95   97 1    
   189   95  216 1    
   190   96  217 1    
   191   96  218 1    
   192   96  219 1    
   193   97   98 2    
   194   97   99 am   BACKBONE|DICT|INTERRES
   195   99  100 1    
   196   99  220 1    
   197  100  101 1    
   198  100  102 1    
   199  100  221 1    
   200  101  222 1    
   201  101  223 1    
   202  101  224 1    
   203  102  103 2    
   204  102  104 am   BACKBONE|DICT|INTERRES
   205  104  105 1    
   206  104  225 1    
   207  105  106 1    
   208  105  107 1    
   209  105  226 1    
   210  106  227 1    
   211  106  228 1    
   212  106  229 1    
   213  107  108 2    
   214  107  109 am   BACKBONE|DICT|INTERRES
   215  109  110 1    
   216  109  230 1    
   217  110  111 1    
   218  110  112 1    
   219  110  231 1    
   220  111  232 1    
   221  111  233 1    
   222  111  234 1    
   223  112  113 2    
   224  112  114 am   BACKBONE|DICT|INTERRES
   225  114  115 1    
   226  114  235 1    
   227  115  116 1    
   228  115  117 1    
   229  115  236 1    
   230  116  237 1    
   231  116  238 1    
   232  116  239 1    
   233  117  118 2    
   234  117  119 am   BACKBONE|DICT|INTERRES
   235  119  120 1    
   236  119  240 1    
   237  120  121 1    
   238  120  124 1    
   239  120  241 1    
   240  121  122 am   BACKBONE|DICT|INTERRES
   241  121  123 2    
   242  122  242 1    
   243  122  243 1    
   244  124  125 1    
   245  124  244 1    
   246  124  245 1    
   247  125  126 1    
   248  126  246 1    
   249  126  247 1    
@<TRIPOS>SUBSTRUCTURE
     1 UNK         1 GROUP             0       ****    0 ROOT    
