@<TRIPOS>MOLECULE
3R540
247   249    1
SMALL
USER_CHARGES


@<TRIPOS>ATOM
      1 CA          2.8161  -10.8374  -53.1783 C.3       0 UNK        -0.1800 
      2 C           1.7696  -10.8770  -52.0734 C.2       0 UNK         0.5000 
      3 O           0.7374  -10.2142  -52.1830 O.2       0 UNK        -0.5000 
      4 N           2.0374  -11.6425  -51.0083 N.am      1 UNK        -0.5000 
      5 CA          1.1181  -11.8805  -49.8900 C.3       1 UNK         0.1400 
      6 C6          1.9016  -12.3226  -48.6112 C.3       23 UNK        -0.0398 
      7 S7          1.9006  -14.0945  -48.1535 S.3       23 UNK        -0.2404 
      8 C8          3.2033  -14.7842  -49.2161 C.3       23 UNK        -0.0205 
      9 C9          2.8010  -16.1673  -49.7008 C.ar      23 UNK        -0.0193 
     10 C10         2.0600  -16.3026  -50.8769 C.ar      23 UNK        -0.1150 
     11 C11         1.6262  -17.5584  -51.3059 C.ar      23 UNK        -0.0193 
     12 C12         1.9769  -18.6929  -50.5712 C.ar      23 UNK        -0.1150 
     13 C13         2.7172  -18.5747  -49.3902 C.ar      23 UNK        -0.0193 
     14 C14         3.1281  -17.3077  -48.9609 C.ar      23 UNK        -0.1150 
     15 C15         3.0695  -19.8123  -48.5766 C.3       23 UNK        -0.0205 
     16 S16         1.6706  -20.3810  -47.5575 S.3       23 UNK        -0.2404 
     17 C17         0.6449  -21.2492  -48.7966 C.3       23 UNK        -0.0398 
     18 CA         -0.3447  -22.2785  -48.2016 C.3       11 UNK         0.1400 
     19 N           0.3067  -23.2408  -47.3095 N.am      11 UNK        -0.5000 
     20 C          -0.2854  -24.3131  -46.7675 C.2       10 UNK         0.5000 
     21 O          -1.4500  -24.6408  -46.9982 O.2       10 UNK        -0.5000 
     22 CA          0.5366  -25.1234  -45.7477 C.3       10 UNK         0.1400 
     23 CB          1.2513  -26.2886  -46.4464 C.3       10 UNK        -0.1800 
     24 N           1.5168  -24.3400  -44.9836 N.am      10 UNK        -0.5000 
     25 C           1.2385  -23.2612  -44.2389 C.2       9 UNK         0.5000 
     26 O           0.1261  -22.7292  -44.1959 O.2       9 UNK        -0.5000 
     27 CA          2.4025  -22.6560  -43.4377 C.3       9 UNK         0.1400 
     28 CB          3.1872  -21.6626  -44.3037 C.3       9 UNK        -0.1800 
     29 N           1.8948  -21.9709  -42.2486 N.am      9 UNK        -0.5000 
     30 C           1.4993  -22.6082  -41.1366 C.2       8 UNK         0.5000 
     31 O           1.6562  -23.8194  -40.9695 O.2       8 UNK        -0.5000 
     32 CA          0.7753  -21.7906  -40.0425 C.3       8 UNK         0.1400 
     33 CB          1.1842  -22.2215  -38.6180 C.3       8 UNK        -0.1800 
     34 N           0.8615  -20.3338  -40.1969 N.am      8 UNK        -0.5000 
     35 C           1.9532  -19.5630  -40.1030 C.2       7 UNK         0.5000 
     36 O           3.0877  -19.9801  -39.8605 O.2       7 UNK        -0.5000 
     37 CA          1.7289  -18.0585  -40.3457 C.3       7 UNK         0.1400 
     38 CB          2.0606  -17.2407  -39.0878 C.3       7 UNK        -0.1800 
     39 N           2.5140  -17.5503  -41.4693 N.am      7 UNK        -0.5000 
     40 C           2.4726  -18.0171  -42.7240 C.2       6 UNK         0.5000 
     41 O           1.7603  -18.9574  -43.0809 O.2       6 UNK        -0.5000 
     42 CA          3.3237  -17.2435  -43.7463 C.3       6 UNK         0.1400 
     43 CB          3.6081  -18.0428  -45.0287 C.3       6 UNK        -0.1800 
     44 N           2.6146  -16.0172  -44.0954 N.am      6 UNK        -0.5000 
     45 C           2.7089  -14.8616  -43.4224 C.2       5 UNK         0.5000 
     46 O           3.5111  -14.6742  -42.5062 O.2       5 UNK        -0.5000 
     47 CA          1.7265  -13.7355  -43.8036 C.3       5 UNK         0.1400 
     48 CB          2.3991  -12.7234  -44.7422 C.3       5 UNK        -0.1800 
     49 N           0.4919  -14.2390  -44.4131 N.am      5 UNK        -0.5000 
     50 C          -0.4545  -14.9049  -43.7343 C.2       4 UNK         0.5000 
     51 O          -0.4127  -15.0844  -42.5163 O.2       4 UNK        -0.5000 
     52 CA         -1.6465  -15.4776  -44.5271 C.3       4 UNK         0.1400 
     53 CB         -2.8801  -14.5773  -44.3604 C.3       4 UNK        -0.1800 
     54 N          -1.4270  -15.7000  -45.9584 N.am      4 UNK        -0.5000 
     55 C          -0.4841  -16.4627  -46.5231 C.2       3 UNK         0.5000 
     56 O           0.4463  -16.9610  -45.8932 O.2       3 UNK        -0.5000 
     57 CA         -0.5883  -16.7166  -48.0412 C.3       3 UNK         0.1400 
     58 CB         -1.4366  -17.9656  -48.3196 C.3       3 UNK        -0.1800 
     59 N          -1.0320  -15.5740  -48.8540 N.am      3 UNK        -0.5000 
     60 C          -2.2004  -14.9183  -48.8520 C.2       2 UNK         0.5000 
     61 O          -3.1424  -15.2052  -48.1121 O.2       2 UNK        -0.5000 
     62 CA         -2.2942  -13.6936  -49.7839 C.3       2 UNK         0.1400 
     63 CB         -3.5907  -12.8895  -49.5793 C.3       2 UNK        -0.1800 
     64 N          -1.1470  -12.8026  -49.5825 N.am      2 UNK        -0.5000 
     65 C          -0.0316  -12.8256  -50.3215 C.2       1 UNK         0.5000 
     66 O           0.1213  -13.5822  -51.2818 O.2       1 UNK        -0.5000 
     67 C          -1.5687  -21.5830  -47.5645 C.2       11 UNK         0.5000 
     68 O          -2.5356  -21.2966  -48.2715 O.2       11 UNK        -0.5000 
     69 N          -1.5112  -21.3401  -46.2499 N.am      12 UNK        -0.5000 
     70 CA         -2.5819  -20.7288  -45.4704 C.3       12 UNK         0.1400 
     71 CB         -1.9686  -19.7011  -44.5057 C.3       12 UNK        -0.1800 
     72 C          -3.3730  -21.7918  -44.6923 C.2       12 UNK         0.5000 
     73 O          -4.5980  -21.7031  -44.6219 O.2       12 UNK        -0.5000 
     74 N          -2.6648  -22.7699  -44.1128 N.am      13 UNK        -0.5000 
     75 CA         -3.2246  -23.7700  -43.2058 C.3       13 UNK         0.1400 
     76 CB         -2.0862  -24.3968  -42.3854 C.3       13 UNK        -0.1800 
     77 C          -4.0489  -24.8652  -43.9045 C.2       13 UNK         0.5000 
     78 O          -5.0086  -25.3532  -43.3056 O.2       13 UNK        -0.5000 
     79 N          -3.6619  -25.2475  -45.1292 N.am      14 UNK        -0.5000 
     80 CA         -4.2845  -26.3395  -45.8806 C.3       14 UNK         0.1400 
     81 CB         -3.2531  -27.4567  -46.1142 C.3       14 UNK        -0.1800 
     82 C          -4.8708  -25.8442  -47.2091 C.2       14 UNK         0.5000 
     83 O          -6.0295  -26.1382  -47.5049 O.2       14 UNK        -0.5000 
     84 N          -4.0714  -25.1021  -47.9874 N.am      15 UNK        -0.5000 
     85 CA         -4.4511  -24.6081  -49.3146 C.3       15 UNK         0.1400 
     86 CB         -3.1763  -24.3177  -50.1160 C.3       15 UNK        -0.1800 
     87 C          -5.3648  -23.3662  -49.2695 C.2       15 UNK         0.5000 
     88 O          -6.0030  -23.0532  -50.2773 O.2       15 UNK        -0.5000 
     89 N          -5.4037  -22.6911  -48.1093 N.am      16 UNK        -0.5000 
     90 CA         -6.2611  -21.5535  -47.7578 C.3       16 UNK         0.1400 
     91 CB         -7.7112  -22.0396  -47.5581 C.3       16 UNK        -0.1800 
     92 C          -6.1609  -20.3663  -48.7378 C.2       16 UNK         0.5000 
     93 O          -7.1779  -19.7490  -49.0586 O.2       16 UNK        -0.5000 
     94 N          -4.9440  -20.0996  -49.2358 N.am      17 UNK        -0.5000 
     95 CA         -4.5575  -19.1056  -50.2483 C.3       17 UNK         0.1400 
     96 CB         -4.9140  -17.6779  -49.7947 C.3       17 UNK        -0.1800 
     97 C          -5.1047  -19.3808  -51.6665 C.2       17 UNK         0.5000 
     98 O          -4.4220  -19.0804  -52.6480 O.2       17 UNK        -0.5000 
     99 N          -6.3168  -19.9377  -51.7642 N.am      18 UNK        -0.5000 
    100 CA        -7.0289  -20.2551  -52.9984 C.3       18 UNK         0.1400 
    101 CB        -8.4538  -20.7175  -52.6569 C.3       18 UNK        -0.1800 
    102 C         -6.2960  -21.3027  -53.8492 C.2       18 UNK         0.5000 
    103 O         -5.9974  -21.0364  -55.0136 O.2       18 UNK        -0.5000 
    104 N         -5.9688  -22.4536  -53.2440 N.am      19 UNK        -0.5000 
    105 CA        -5.2300  -23.5315  -53.9098 C.3       19 UNK         0.1400 
    106 CB        -5.5350  -24.8723  -53.2252 C.3       19 UNK        -0.1800 
    107 C         -3.7153  -23.2532  -53.9980 C.2       19 UNK         0.5000 
    108 O         -3.0277  -23.9029  -54.7858 O.2       19 UNK        -0.5000 
    109 N         -3.2290  -22.2677  -53.2278 N.am      20 UNK        -0.5000 
    110 CA        -1.8775  -21.7110  -53.3390 C.3       20 UNK         0.1400 
    111 CB        -1.4901  -21.0511  -52.0058 C.3       20 UNK        -0.1800 
    112 C         -1.7475  -20.7065  -54.5060 C.2       20 UNK         0.5000 
    113 O         -0.6279  -20.3133  -54.8337 O.2       20 UNK        -0.5000 
    114 N         -2.8844  -20.3246  -55.1107 N.am      21 UNK        -0.5000 
    115 CA        -3.0424  -19.4089  -56.2418 C.3       21 UNK         0.1400 
    116 CB        -2.3615  -19.9695  -57.5086 C.3       21 UNK        -0.1800 
    117 C         -2.6302  -17.9598  -55.9138 C.2       21 UNK         0.5000 
    118 O         -2.0587  -17.2748  -56.7651 O.2       21 UNK        -0.5000 
    119 N         -2.9465  -17.5096  -54.6943 N.am      22 UNK        -0.5000 
    120 CA        -2.6795  -16.1428  -54.2164 C.3       22 UNK         0.1400 
    121 C         -3.8194  -15.5173  -53.3640 C.2       22 UNK         0.5000 
    122 N         -4.8968  -16.2280  -53.0590 N.am      22 UNK        -0.7600 
    123 O         -3.7516  -14.3431  -53.0132 O.2       22 UNK        -0.5000 
    124 C124       -1.2763  -15.9998  -53.5724 C.3       23 UNK        -0.0398 
    125 S125       -0.9531  -17.1756  -52.2092 S.3       23 UNK        -0.2404 
    126 C126        0.7670  -17.6773  -52.5536 C.3       23 UNK        -0.0205 
    127 H127        3.1654   -9.8159  -53.3286 H         1 UNK         0.0600 
    128 H128        3.6790  -11.4607  -52.9427 H         1 UNK         0.0600 
    129 H129        2.3858  -11.1932  -54.1144 H         1 UNK         0.0600 
    130 H130        2.8882  -12.1844  -50.9988 H         1 UNK         0.3000 
    131 H131        0.6559  -10.9177  -49.6596 H         1 UNK         0.0600 
    132 H132        1.4629  -11.8061  -47.7565 H         1 UNK         0.0800 
    133 H133        2.9329  -11.9673  -48.6388 H         1 UNK         0.0800 
    134 H134        4.1408  -14.8286  -48.6601 H         1 UNK         0.0800 
    135 H135        3.3796  -14.1333  -50.0728 H         1 UNK         0.0800 
    136 H136        1.7956  -15.4265  -51.4501 H         1 UNK         0.1150 
    137 H137        1.6596  -19.6666  -50.9133 H         1 UNK         0.1150 
    138 H138        3.6878  -17.2052  -48.0426 H         1 UNK         0.1150 
    139 H139        3.4059  -20.6133  -49.2363 H         1 UNK         0.0800 
    140 H140        3.9091  -19.5954  -47.9146 H         1 UNK         0.0800 
    141 H141        0.1090  -20.5083  -49.3920 H         1 UNK         0.0800 
    142 H142        1.3090  -21.7650  -49.4911 H         1 UNK         0.0800 
    143 H143       -0.7180  -22.8610  -49.0424 H         1 UNK         0.0600 
    144 H144        1.2549  -23.0244  -47.0390 H         1 UNK         0.3000 
    145 H145       -0.1714  -25.5442  -45.0317 H         1 UNK         0.0600 
    146 H146        1.7448  -26.9394  -45.7244 H         1 UNK         0.0600 
    147 H147        0.5433  -26.9038  -47.0038 H         1 UNK         0.0600 
    148 H148        2.0047  -25.9341  -47.1509 H         1 UNK         0.0600 
    149 H149        2.4610  -24.6983  -44.9799 H         1 UNK         0.3000 
    150 H150        3.0784  -23.4561  -43.1288 H         1 UNK         0.0600 
    151 H151        3.6481  -22.1617  -45.1568 H         1 UNK         0.0600 
    152 H152        3.9847  -21.1864  -43.7334 H         1 UNK         0.0600 
    153 H153        2.5393  -20.8794  -44.6972 H         1 UNK         0.0600 
    154 H154        1.7030  -20.9805  -42.3499 H         1 UNK         0.3000 
    155 H155       -0.2824  -22.0312  -40.1581 H         1 UNK         0.0600 
    156 H156        0.6493  -21.6462  -37.8623 H         1 UNK         0.0600 
    157 H157        2.2528  -22.0923  -38.4453 H         1 UNK         0.0600 
    158 H158        0.9528  -23.2731  -38.4447 H         1 UNK         0.0600 
    159 H159       -0.0108  -19.8828  -40.4357 H         1 UNK         0.3000 
    160 H160        0.6771  -17.8910  -40.5872 H         1 UNK         0.0600 
    161 H161        3.1151  -17.3221  -38.8211 H         1 UNK         0.0600 
    162 H162        1.4778  -17.5863  -38.2330 H         1 UNK         0.0600 
    163 H163        1.8308  -16.1847  -39.2317 H         1 UNK         0.0600 
    164 H164        3.1046  -16.7525  -41.2788 H         1 UNK         0.3000 
    165 H165        4.2852  -17.0059  -43.2863 H         1 UNK         0.0600 
    166 H166        2.6907  -18.3404  -45.5366 H         1 UNK         0.0600 
    167 H167        4.2032  -17.4576  -45.7289 H         1 UNK         0.0600 
    168 H168        4.1713  -18.9483  -44.8054 H         1 UNK         0.0600 
    169 H169        1.8758  -16.1275  -44.7844 H         1 UNK         0.3000 
    170 H170        1.4565  -13.2089  -42.8857 H         1 UNK         0.0600 
    171 H171        3.2155  -12.2108  -44.2322 H         1 UNK         0.0600 
    172 H172        2.8255  -13.2089  -45.6185 H         1 UNK         0.0600 
    173 H173        1.6971  -11.9610  -45.0799 H         1 UNK         0.0600 
    174 H174        0.4000  -14.1517  -45.4147 H         1 UNK         0.3000 
    175 H175       -1.8751  -16.4508  -44.0884 H         1 UNK         0.0600 
    176 H176       -2.7267  -13.6004  -44.8205 H         1 UNK         0.0600 
    177 H177       -3.7619  -15.0277  -44.8168 H         1 UNK         0.0600 
    178 H178       -3.1090  -14.4133  -43.3066 H         1 UNK         0.0600 
    179 H179       -2.1601  -15.3677  -46.5806 H         1 UNK         0.3000 
    180 H180        0.4217  -16.9389  -48.3797 H         1 UNK         0.0600 
    181 H181       -1.0321  -18.8174  -47.7763 H         1 UNK         0.0600 
    182 H182       -2.4696  -17.8406  -47.9988 H         1 UNK         0.0600 
    183 H183       -1.4311  -18.2221  -49.3782 H         1 UNK         0.0600 
    184 H184       -0.3246  -15.2247  -49.4878 H         1 UNK         0.3000 
    185 H185       -2.3016  -14.0757  -50.8059 H         1 UNK         0.0600 
    186 H186       -3.6685  -12.4971  -48.5647 H         1 UNK         0.0600 
    187 H187       -3.6436  -12.0486  -50.2710 H         1 UNK         0.0600 
    188 H188       -4.4677  -13.5118  -49.7624 H         1 UNK         0.0600 
    189 H189       -1.1993  -12.1847  -48.7854 H         1 UNK         0.3000 
    190 H190       -0.6945  -21.6443  -45.7315 H         1 UNK         0.3000 
    191 H191       -3.2775  -20.2007  -46.1264 H         1 UNK         0.0600 
    192 H192       -2.7403  -19.2100  -43.9120 H         1 UNK         0.0600 
    193 H193       -1.4330  -18.9246  -45.0509 H         1 UNK         0.0600 
    194 H194       -1.2621  -20.1635  -43.8145 H         1 UNK         0.0600 
    195 H195       -1.6497  -22.7566  -44.1957 H         1 UNK         0.3000 
    196 H196       -3.8905  -23.2559  -42.5092 H         1 UNK         0.0600 
    197 H197       -2.4740  -25.1140  -41.6609 H         1 UNK         0.0600 
    198 H198       -1.5370  -23.6376  -41.8286 H         1 UNK         0.0600 
    199 H199       -1.3742  -24.9242  -43.0201 H         1 UNK         0.0600 
    200 H200       -2.8723  -24.7888  -45.5689 H         1 UNK         0.3000 
    201 H201       -5.1110  -26.7754  -45.3157 H         1 UNK         0.0600 
    202 H202       -2.8848  -27.8531  -45.1679 H         1 UNK         0.0600 
    203 H203       -2.3928  -27.1095  -46.6863 H         1 UNK         0.0600 
    204 H204       -3.6971  -28.2878  -46.6635 H         1 UNK         0.0600 
    205 H205       -3.1160  -24.9210  -47.6865 H         1 UNK         0.3000 
    206 H206       -4.9980  -25.4007  -49.8292 H         1 UNK         0.0600 
    207 H207       -2.4676  -25.1443  -50.0624 H         1 UNK         0.0600 
    208 H208       -3.3979  -24.1490  -51.1669 H         1 UNK         0.0600 
    209 H209       -2.6844  -23.4225  -49.7513 H         1 UNK         0.0600 
    210 H210       -4.8052  -23.0269  -47.3694 H         1 UNK         0.3000 
    211 H211       -5.9048  -21.1762  -46.8003 H         1 UNK         0.0600 
    212 H212       -8.1490  -22.3932  -48.4923 H         1 UNK         0.0600 
    213 H213       -8.3468  -21.2388  -47.1785 H         1 UNK         0.0600 
    214 H214       -7.7559  -22.8560  -46.8371 H         1 UNK         0.0600 
    215 H215       -4.1713  -20.6751  -48.9040 H         1 UNK         0.3000 
    216 H216       -3.4714  -19.1656  -50.3084 H         1 UNK         0.0600 
    217 H217       -5.9798  -17.4713  -49.8961 H         1 UNK         0.0600 
    218 H218       -4.3776  -16.9387  -50.3900 H         1 UNK         0.0600 
    219 H219       -4.6438  -17.5091  -48.7531 H         1 UNK         0.0600 
    220 H220       -6.8138  -20.1031  -50.8943 H         1 UNK         0.3000 
    221 H221       -7.1001  -19.3383  -53.5872 H         1 UNK         0.0600 
    222 H222       -8.4498  -21.5990  -52.0141 H         1 UNK         0.0600 
    223 H223       -9.0076  -19.9328  -52.1412 H         1 UNK         0.0600 
    224 H224       -9.0114  -20.9693  -53.5600 H         1 UNK         0.0600 
    225 H225       -6.1993  -22.5901  -52.2636 H         1 UNK         0.3000 
    226 H226       -5.5880  -23.6117  -54.9386 H         1 UNK         0.0600 
    227 H227       -6.5905  -25.1265  -53.3226 H         1 UNK         0.0600 
    228 H228       -4.9638  -25.6845  -53.6766 H         1 UNK         0.0600 
    229 H229       -5.2998  -24.8547  -52.1645 H         1 UNK         0.0600 
    230 H230       -3.8703  -21.7814  -52.6191 H         1 UNK         0.3000 
    231 H231       -1.1770  -22.5275  -53.5261 H         1 UNK         0.0600 
    232 H232       -2.0583  -20.1398  -51.8293 H         1 UNK         0.0600 
    233 H233       -1.6527  -21.7214  -51.1629 H         1 UNK         0.0600 
    234 H234       -0.4353  -20.7753  -52.0043 H         1 UNK         0.0600 
    235 H235       -3.7537  -20.6868  -54.7417 H         1 UNK         0.3000 
    236 H236       -4.1138  -19.3712  -56.4430 H         1 UNK         0.0600 
    237 H237       -2.6880  -20.9893  -57.7124 H         1 UNK         0.0600 
    238 H238       -2.6112  -19.3692  -58.3841 H         1 UNK         0.0600 
    239 H239       -1.2751  -19.9761  -57.4175 H         1 UNK         0.0600 
    240 H240       -3.3761  -18.1416  -54.0256 H         1 UNK         0.3000 
    241 H241       -2.6741  -15.4932  -55.0938 H         1 UNK         0.0600 
    242 H242       -4.9467  -17.2134  -53.2761 H         1 UNK         0.3800 
    243 H243       -5.6392  -15.7888  -52.5397 H         1 UNK         0.3800 
    244 H244       -1.1171  -14.9856  -53.2037 H         1 UNK         0.0800 
    245 H245       -0.5321  -16.1427  -54.3556 H         1 UNK         0.0800 
    246 H246        1.2089  -17.0627  -53.3380 H         1 UNK         0.0800 
    247 H247        0.7686  -18.7003  -52.9321 H         1 UNK         0.0800 
@<TRIPOS>BOND
     1    1    2 1    
     2    1  127 1    
     3    1  128 1    
     4    1  129 1    
     5    2    3 2    
     6    2    4 am   BACKBONE|DICT|INTERRES
     7    4    5 1    
     8    4  130 1    
     9    5    6 1    
    10    5   65 1    
    11    5  131 1    
    12    6    7 1    
    13    6  132 1    
    14    6  133 1    
    15    7    8 1    
    16    8    9 1    
    17    8  134 1    
    18    8  135 1    
    19    9   10 ar   
    20    9   14 ar   
    21   10   11 ar   
    22   10  136 1    
    23   11   12 ar   
    24   11  126 1    
    25   12   13 ar   
    26   12  137 1    
    27   13   14 ar   
    28   13   15 1    
    29   14  138 1    
    30   15   16 1    
    31   15  139 1    
    32   15  140 1    
    33   16   17 1    
    34   17   18 1    
    35   17  141 1    
    36   17  142 1    
    37   18   19 1    
    38   18   67 1    
    39   18  143 1    
    40   19   20 am   BACKBONE|DICT|INTERRES
    41   19  144 1    
    42   20   21 2    
    43   20   22 1    
    44   22   23 1    
    45   22   24 1    
    46   22  145 1    
    47   23  146 1    
    48   23  147 1    
    49   23  148 1    
    50   24   25 am   BACKBONE|DICT|INTERRES
    51   24  149 1    
    52   25   26 2    
    53   25   27 1    
    54   27   28 1    
    55   27   29 1    
    56   27  150 1    
    57   28  151 1    
    58   28  152 1    
    59   28  153 1    
    60   29   30 am   BACKBONE|DICT|INTERRES
    61   29  154 1    
    62   30   31 2    
    63   30   32 1    
    64   32   33 1    
    65   32   34 1    
    66   32  155 1    
    67   33  156 1    
    68   33  157 1    
    69   33  158 1    
    70   34   35 am   BACKBONE|DICT|INTERRES
    71   34  159 1    
    72   35   36 2    
    73   35   37 1    
    74   37   38 1    
    75   37   39 1    
    76   37  160 1    
    77   38  161 1    
    78   38  162 1    
    79   38  163 1    
    80   39   40 am   BACKBONE|DICT|INTERRES
    81   39  164 1    
    82   40   41 2    
    83   40   42 1    
    84   42   43 1    
    85   42   44 1    
    86   42  165 1    
    87   43  166 1    
    88   43  167 1    
    89   43  168 1    
    90   44   45 am   BACKBONE|DICT|INTERRES
    91   44  169 1    
    92   45   46 2    
    93   45   47 1    
    94   47   48 1    
    95   47   49 1    
    96   47  170 1    
    97   48  171 1    
    98   48  172 1    
    99   48  173 1    
   100   49   50 am   BACKBONE|DICT|INTERRES
   101   49  174 1    
   102   50   51 2    
   103   50   52 1    
   104   52   53 1    
   105   52   54 1    
   106   52  175 1    
   107   53  176 1    
   108   53  177 1    
   109   53  178 1    
   110   54   55 am   BACKBONE|DICT|INTERRES
   111   54  179 1    
   112   55   56 2    
   113   55   57 1    
   114   57   58 1    
   115   57   59 1    
   116   57  180 1    
   117   58  181 1    
   118   58  182 1    
   119   58  183 1    
   120   59   60 am   BACKBONE|DICT|INTERRES
   121   59  184 1    
   122   60   61 2    
   123   60   62 1    
   124   62   63 1    
   125   62   64 1    
   126   62  185 1    
   127   63  186 1    
   128   63  187 1    
   129   63  188 1    
   130   64   65 am   BACKBONE|DICT|INTERRES
   131   64  189 1    
   132   65   66 2    
   133   67   68 2    
   134   67   69 am   BACKBONE|DICT|INTERRES
   135   69   70 1    
   136   69  190 1    
   137   70   71 1    
   138   70   72 1    
   139   70  191 1    
   140   71  192 1    
   141   71  193 1    
   142   71  194 1    
   143   72   73 2    
   144   72   74 am   BACKBONE|DICT|INTERRES
   145   74   75 1    
   146   74  195 1    
   147   75   76 1    
   148   75   77 1    
   149   75  196 1    
   150   76  197 1    
   151   76  198 1    
   152   76  199 1    
   153   77   78 2    
   154   77   79 am   BACKBONE|DICT|INTERRES
   155   79   80 1    
   156   79  200 1    
   157   80   81 1    
   158   80   82 1    
   159   80  201 1    
   160   81  202 1    
   161   81  203 1    
   162   81  204 1    
   163   82   83 2    
   164   82   84 am   BACKBONE|DICT|INTERRES
   165   84   85 1    
   166   84  205 1    
   167   85   86 1    
   168   85   87 1    
   169   85  206 1    
   170   86  207 1    
   171   86  208 1    
   172   86  209 1    
   173   87   88 2    
   174   87   89 am   BACKBONE|DICT|INTERRES
   175   89   90 1    
   176   89  210 1    
   177   90   91 1    
   178   90   92 1    
   179   90  211 1    
   180   91  212 1    
   181   91  213 1    
   182   91  214 1    
   183   92   93 2    
   184   92   94 am   BACKBONE|DICT|INTERRES
   185   94   95 1    
   186   94  215 1    
   187   95   96 1    
   188   95   97 1    
   189   95  216 1    
   190   96  217 1    
   191   96  218 1    
   192   96  219 1    
   193   97   98 2    
   194   97   99 am   BACKBONE|DICT|INTERRES
   195   99  100 1    
   196   99  220 1    
   197  100  101 1    
   198  100  102 1    
   199  100  221 1    
   200  101  222 1    
   201  101  223 1    
   202  101  224 1    
   203  102  103 2    
   204  102  104 am   BACKBONE|DICT|INTERRES
   205  104  105 1    
   206  104  225 1    
   207  105  106 1    
   208  105  107 1    
   209  105  226 1    
   210  106  227 1    
   211  106  228 1    
   212  106  229 1    
   213  107  108 2    
   214  107  109 am   BACKBONE|DICT|INTERRES
   215  109  110 1    
   216  109  230 1    
   217  110  111 1    
   218  110  112 1    
   219  110  231 1    
   220  111  232 1    
   221  111  233 1    
   222  111  234 1    
   223  112  113 2    
   224  112  114 am   BACKBONE|DICT|INTERRES
   225  114  115 1    
   226  114  235 1    
   227  115  116 1    
   228  115  117 1    
   229  115  236 1    
   230  116  237 1    
   231  116  238 1    
   232  116  239 1    
   233  117  118 2    
   234  117  119 am   BACKBONE|DICT|INTERRES
   235  119  120 1    
   236  119  240 1    
   237  120  121 1    
   238  120  124 1    
   239  120  241 1    
   240  121  122 am   BACKBONE|DICT|INTERRES
   241  121  123 2    
   242  122  242 1    
   243  122  243 1    
   244  124  125 1    
   245  124  244 1    
   246  124  245 1    
   247  125  126 1    
   248  126  246 1    
   249  126  247 1    
@<TRIPOS>SUBSTRUCTURE
     1 UNK         1 GROUP             0       ****    0 ROOT    
