@<TRIPOS>MOLECULE
3R540
247   249    1
SMALL
USER_CHARGES


@<TRIPOS>ATOM
      1 CA          6.3529  -19.2213  -48.6730 C.3       0 UNK        -0.1800 
      2 C           4.9130  -18.8016  -48.4195 C.2       0 UNK         0.5000 
      3 O           4.1532  -19.5523  -47.8110 O.2       0 UNK        -0.5000 
      4 N           4.5340  -17.5961  -48.8612 N.am      1 UNK        -0.5000 
      5 CA          3.1725  -17.0495  -48.7587 C.3       1 UNK         0.1400 
      6 C6          2.9933  -15.7650  -49.6014 C.3       23 UNK        -0.0398 
      7 S7          3.2173  -16.0929  -51.3804 S.3       23 UNK        -0.2404 
      8 C8          1.5097  -15.9307  -52.0018 C.3       23 UNK        -0.0205 
      9 C9          0.5379  -16.9633  -51.4364 C.ar      23 UNK        -0.0193 
     10 C10        -0.7071  -16.5513  -50.9495 C.ar      23 UNK        -0.1150 
     11 C11        -1.6503  -17.4909  -50.5227 C.ar      23 UNK        -0.0193 
     12 C12        -1.3271  -18.8493  -50.5488 C.ar      23 UNK        -0.1150 
     13 C13        -0.0850  -19.2772  -51.0219 C.ar      23 UNK        -0.0193 
     14 C14         0.8410  -18.3295  -51.4690 C.ar      23 UNK        -0.1150 
     15 C15         0.2278  -20.7646  -51.1184 C.3       23 UNK        -0.0205 
     16 S16        -0.0061  -21.6529  -49.5435 S.3       23 UNK        -0.2404 
     17 C17         1.3503  -20.9576  -48.5321 C.3       23 UNK        -0.0398 
     18 CA          0.9853  -20.7112  -47.0467 C.3       11 UNK         0.1400 
     19 N          -0.1332  -19.7740  -46.8934 N.am      11 UNK        -0.5000 
     20 C          -0.2979  -18.9894  -45.8216 C.2       10 UNK         0.5000 
     21 O           0.5105  -18.9343  -44.8933 O.2       10 UNK        -0.5000 
     22 CA         -1.5315  -18.0752  -45.8134 C.3       10 UNK         0.1400 
     23 CB         -2.1125  -17.8947  -44.3970 C.3       10 UNK        -0.1800 
     24 N          -1.1197  -16.7941  -46.3647 N.am      10 UNK        -0.5000 
     25 C          -1.9077  -15.8260  -46.8351 C.2       9 UNK         0.5000 
     26 O          -3.1381  -15.8790  -46.8359 O.2       9 UNK        -0.5000 
     27 CA         -1.1760  -14.5707  -47.3377 C.3       9 UNK         0.1400 
     28 CB         -2.0954  -13.5735  -48.0661 C.3       9 UNK        -0.1800 
     29 N          -0.5877  -13.9123  -46.1783 N.am      9 UNK        -0.5000 
     30 C           0.6625  -13.4469  -46.0765 C.2       8 UNK         0.5000 
     31 O           1.4769  -13.4605  -46.9999 O.2       8 UNK        -0.5000 
     32 CA          1.0708  -12.8378  -44.7162 C.3       8 UNK         0.1400 
     33 CB          1.3325  -11.3296  -44.8557 C.3       8 UNK        -0.1800 
     34 N           0.0748  -13.0439  -43.6586 N.am      8 UNK        -0.5000 
     35 C          -0.1112  -14.1935  -42.9988 C.2       7 UNK         0.5000 
     36 O           0.5768  -15.2028  -43.1674 O.2       7 UNK        -0.5000 
     37 CA         -1.2924  -14.2272  -42.0194 C.3       7 UNK         0.1400 
     38 CB         -2.6343  -14.1898  -42.7790 C.3       7 UNK        -0.1800 
     39 N          -1.1968  -15.4477  -41.2295 N.am      7 UNK        -0.5000 
     40 C          -1.8413  -15.7092  -40.0879 C.2       6 UNK         0.5000 
     41 O          -2.6163  -14.9228  -39.5419 O.2       6 UNK        -0.5000 
     42 CA         -1.5802  -17.0847  -39.4471 C.3       6 UNK         0.1400 
     43 CB         -2.6478  -18.0937  -39.8988 C.3       6 UNK        -0.1800 
     44 N          -0.2605  -17.6243  -39.7745 N.am      6 UNK        -0.5000 
     45 C           0.8972  -17.2298  -39.2284 C.2       5 UNK         0.5000 
     46 O           0.9715  -16.3421  -38.3775 O.2       5 UNK        -0.5000 
     47 CA          2.1927  -17.9150  -39.7204 C.3       5 UNK         0.1400 
     48 CB          3.0241  -18.4825  -38.5523 C.3       5 UNK        -0.1800 
     49 N           1.9941  -18.9241  -40.7707 N.am      5 UNK        -0.5000 
     50 C           1.3859  -20.1189  -40.6853 C.2       4 UNK         0.5000 
     51 O           0.9144  -20.5778  -39.6453 O.2       4 UNK        -0.5000 
     52 CA          1.2117  -20.9090  -41.9974 C.3       4 UNK         0.1400 
     53 CB         -0.2278  -20.7308  -42.5023 C.3       4 UNK        -0.1800 
     54 N           2.1532  -20.4920  -43.0418 N.am      4 UNK        -0.5000 
     55 C           3.4534  -20.8232  -43.0357 C.2       3 UNK         0.5000 
     56 O           3.9451  -21.5925  -42.2082 O.2       3 UNK        -0.5000 
     57 CA          4.3861  -20.1785  -44.0834 C.3       3 UNK         0.1400 
     58 CB          4.7978  -21.1939  -45.1596 C.3       3 UNK        -0.1800 
     59 N           3.8921  -18.9539  -44.7240 N.am      3 UNK        -0.5000 
     60 C           3.6303  -17.8047  -44.0805 C.2       2 UNK         0.5000 
     61 O           3.6547  -17.7043  -42.8533 O.2       2 UNK        -0.5000 
     62 CA          3.3272  -16.5515  -44.9250 C.3       2 UNK         0.1400 
     63 CB          4.1413  -15.3426  -44.4322 C.3       2 UNK        -0.1800 
     64 N           3.6225  -16.7534  -46.3441 N.am      2 UNK        -0.5000 
     65 C           2.7004  -16.8042  -47.3121 C.2       1 UNK         0.5000 
     66 O           1.4986  -16.6704  -47.1077 O.2       1 UNK        -0.5000 
     67 C           0.7487  -22.0471  -46.3104 C.2       11 UNK         0.5000 
     68 O           1.7184  -22.7067  -45.9399 O.2       11 UNK        -0.5000 
     69 N          -0.5233  -22.4565  -46.1726 N.am      12 UNK        -0.5000 
     70 CA         -1.0351  -23.7468  -45.6755 C.3       12 UNK         0.1400 
     71 CB         -0.6898  -23.9720  -44.1911 C.3       12 UNK        -0.1800 
     72 C          -0.6526  -24.9835  -46.5199 C.2       12 UNK         0.5000 
     73 O          -1.4648  -25.9013  -46.6347 O.2       12 UNK        -0.5000 
     74 N           0.5450  -24.9880  -47.1181 N.am      13 UNK        -0.5000 
     75 CA          1.1059  -26.0570  -47.9492 C.3       13 UNK         0.1400 
     76 CB          2.5353  -25.6665  -48.3545 C.3       13 UNK        -0.1800 
     77 C           0.2672  -26.3938  -49.1978 C.2       13 UNK         0.5000 
     78 O           0.2332  -27.5542  -49.6084 O.2       13 UNK        -0.5000 
     79 N          -0.4122  -25.3828  -49.7530 N.am      14 UNK        -0.5000 
     80 CA         -1.3643  -25.5063  -50.8583 C.3       14 UNK         0.1400 
     81 CB         -0.9142  -24.5904  -52.0107 C.3       14 UNK        -0.1800 
     82 C          -2.7931  -25.1784  -50.3809 C.2       14 UNK         0.5000 
     83 O          -3.5961  -24.6697  -51.1623 O.2       14 UNK        -0.5000 
     84 N          -3.0770  -25.4261  -49.0929 N.am      15 UNK        -0.5000 
     85 CA         -4.3055  -25.1375  -48.3385 C.3       15 UNK         0.1400 
     86 CB         -5.5410  -25.8095  -48.9677 C.3       15 UNK        -0.1800 
     87 C          -4.5505  -23.6373  -48.0803 C.2       15 UNK         0.5000 
     88 O          -4.9291  -23.2814  -46.9639 O.2       15 UNK        -0.5000 
     89 N          -4.2971  -22.7972  -49.0936 N.am      16 UNK        -0.5000 
     90 CA         -4.4797  -21.3433  -49.1338 C.3       16 UNK         0.1400 
     91 CB         -3.6176  -20.6538  -48.0536 C.3       16 UNK        -0.1800 
     92 C          -5.9627  -20.9137  -49.0767 C.2       16 UNK         0.5000 
     93 O          -6.8624  -21.7563  -49.1160 O.2       16 UNK        -0.5000 
     94 N          -6.1813  -19.5913  -49.0217 N.am      17 UNK        -0.5000 
     95 CA         -7.4774  -18.9037  -48.9560 C.3       17 UNK         0.1400 
     96 CB         -8.1865  -19.2042  -47.6185 C.3       17 UNK        -0.1800 
     97 C          -8.3789  -19.1506  -50.1866 C.2       17 UNK         0.5000 
     98 O          -9.6054  -19.1597  -50.0631 O.2       17 UNK        -0.5000 
     99 N          -7.7571  -19.3289  -51.3568 N.am      18 UNK        -0.5000 
    100 CA        -8.4100  -19.5330  -52.6434 C.3       18 UNK         0.1400 
    101 CB        -8.7698  -21.0180  -52.8222 C.3       18 UNK        -0.1800 
    102 C         -7.4442  -19.0758  -53.7388 C.2       18 UNK         0.5000 
    103 O         -6.2358  -19.2784  -53.5997 O.2       18 UNK        -0.5000 
    104 N         -7.9824  -18.5047  -54.8236 N.am      19 UNK        -0.5000 
    105 CA        -7.2181  -17.9584  -55.9519 C.3       19 UNK         0.1400 
    106 CB        -8.1843  -17.2783  -56.9331 C.3       19 UNK        -0.1800 
    107 C         -6.3455  -18.9950  -56.6863 C.2       19 UNK         0.5000 
    108 O         -5.2985  -18.6336  -57.2229 O.2       19 UNK        -0.5000 
    109 N         -6.7639  -20.2679  -56.6579 N.am      20 UNK        -0.5000 
    110 CA        -6.0150  -21.4070  -57.1924 C.3       20 UNK         0.1400 
    111 CB        -6.9150  -22.6518  -57.1608 C.3       20 UNK        -0.1800 
    112 C         -4.6925  -21.6797  -56.4455 C.2       20 UNK         0.5000 
    113 O         -3.7651  -22.2241  -57.0461 O.2       20 UNK        -0.5000 
    114 N         -4.6289  -21.2959  -55.1638 N.am      21 UNK        -0.5000 
    115 CA        -3.4392  -21.3927  -54.3233 C.3       21 UNK         0.1400 
    116 CB        -3.8569  -21.8488  -52.9169 C.3       21 UNK        -0.1800 
    117 C         -2.7104  -20.0424  -54.2561 C.2       21 UNK         0.5000 
    118 O         -1.4927  -20.0008  -54.4322 O.2       21 UNK        -0.5000 
    119 N         -3.4693  -18.9724  -53.9892 N.am      22 UNK        -0.5000 
    120 CA        -2.9487  -17.6243  -53.7243 C.3       22 UNK         0.1400 
    121 C         -2.5699  -16.8015  -54.9875 C.2       22 UNK         0.5000 
    122 N         -2.9823  -17.1805  -56.1902 N.am      22 UNK        -0.7600 
    123 O         -1.8758  -15.7950  -54.8753 O.2       22 UNK        -0.5000 
    124 C124       -3.8939  -16.8125  -52.7969 C.3       23 UNK        -0.0398 
    125 S125       -4.3225  -17.6745  -51.2401 S.3       23 UNK        -0.2404 
    126 C126       -3.0438  -17.0502  -50.1027 C.3       23 UNK        -0.0205 
    127 H127        6.8640  -19.3961  -47.7264 H         1 UNK         0.0600 
    128 H128        6.9058  -18.4609  -49.2249 H         1 UNK         0.0600 
    129 H129        6.3761  -20.1458  -49.2498 H         1 UNK         0.0600 
    130 H130        5.1968  -17.0209  -49.3615 H         1 UNK         0.3000 
    131 H131        2.4956  -17.8042  -49.1621 H         1 UNK         0.0600 
    132 H132        3.7088  -15.0008  -49.2933 H         1 UNK         0.0800 
    133 H133        2.0043  -15.3286  -49.4458 H         1 UNK         0.0800 
    134 H134        1.1600  -14.9173  -51.7982 H         1 UNK         0.0800 
    135 H135        1.5241  -16.0342  -53.0875 H         1 UNK         0.0800 
    136 H136       -0.9614  -15.5007  -50.9489 H         1 UNK         0.1150 
    137 H137       -2.0613  -19.5802  -50.2457 H         1 UNK         0.1150 
    138 H138        1.7920  -18.6544  -51.8666 H         1 UNK         0.1150 
    139 H139       -0.4278  -21.2012  -51.8724 H         1 UNK         0.0800 
    140 H140        1.2483  -20.9280  -51.4681 H         1 UNK         0.0800 
    141 H141        1.6748  -20.0154  -48.9720 H         1 UNK         0.0800 
    142 H142        2.2143  -21.6205  -48.6082 H         1 UNK         0.0800 
    143 H143        1.8659  -20.2624  -46.5829 H         1 UNK         0.0600 
    144 H144       -0.7759  -19.7130  -47.6688 H         1 UNK         0.3000 
    145 H145       -2.2987  -18.5112  -46.4543 H         1 UNK         0.0600 
    146 H146       -1.4048  -17.3992  -43.7309 H         1 UNK         0.0600 
    147 H147       -3.0259  -17.3008  -44.4155 H         1 UNK         0.0600 
    148 H148       -2.3660  -18.8586  -43.9550 H         1 UNK         0.0600 
    149 H149       -0.1079  -16.6812  -46.4629 H         1 UNK         0.3000 
    150 H150       -0.3995  -14.8981  -48.0327 H         1 UNK         0.0600 
    151 H151       -2.5592  -14.0294  -48.9395 H         1 UNK         0.0600 
    152 H152       -1.5333  -12.7070  -48.4146 H         1 UNK         0.0600 
    153 H153       -2.8950  -13.2130  -47.4177 H         1 UNK         0.0600 
    154 H154       -1.1708  -13.8799  -45.3555 H         1 UNK         0.3000 
    155 H155        2.0026  -13.3161  -44.4115 H         1 UNK         0.0600 
    156 H156        2.1040  -11.1329  -45.6014 H         1 UNK         0.0600 
    157 H157        1.6771  -10.9000  -43.9149 H         1 UNK         0.0600 
    158 H158        0.4346  -10.7922  -45.1631 H         1 UNK         0.0600 
    159 H159       -0.5293  -12.2594  -43.4579 H         1 UNK         0.3000 
    160 H160       -1.2153  -13.3646  -41.3546 H         1 UNK         0.0600 
    161 H161       -2.7287  -15.0296  -43.4680 H         1 UNK         0.0600 
    162 H162       -2.7359  -13.2737  -43.3615 H         1 UNK         0.0600 
    163 H163       -3.4822  -14.2251  -42.0951 H         1 UNK         0.0600 
    164 H164       -0.5302  -16.1167  -41.5947 H         1 UNK         0.3000 
    165 H165       -1.6523  -16.9691  -38.3636 H         1 UNK         0.0600 
    166 H166       -2.5099  -19.0589  -39.4108 H         1 UNK         0.0600 
    167 H167       -3.6491  -17.7424  -39.6460 H         1 UNK         0.0600 
    168 H168       -2.6192  -18.2557  -40.9774 H         1 UNK         0.0600 
    169 H169       -0.2299  -18.3729  -40.4491 H         1 UNK         0.3000 
    170 H170        2.7841  -17.1256  -40.1865 H         1 UNK         0.0600 
    171 H171        3.3100  -17.6922  -37.8572 H         1 UNK         0.0600 
    172 H172        2.4710  -19.2293  -37.9825 H         1 UNK         0.0600 
    173 H173        3.9434  -18.9453  -38.9114 H         1 UNK         0.0600 
    174 H174        2.3706  -18.6528  -41.6748 H         1 UNK         0.3000 
    175 H175        1.3709  -21.9684  -41.7855 H         1 UNK         0.0600 
    176 H176       -0.5079  -19.6784  -42.5504 H         1 UNK         0.0600 
    177 H177       -0.3558  -21.1513  -43.4979 H         1 UNK         0.0600 
    178 H178       -0.9381  -21.2263  -41.8396 H         1 UNK         0.0600 
    179 H179        1.7951  -19.8567  -43.7503 H         1 UNK         0.3000 
    180 H180        5.2927  -19.9010  -43.5416 H         1 UNK         0.0600 
    181 H181        5.6157  -20.8098  -45.7690 H         1 UNK         0.0600 
    182 H182        3.9707  -21.4322  -45.8260 H         1 UNK         0.0600 
    183 H183        5.1401  -22.1288  -44.7140 H         1 UNK         0.0600 
    184 H184        3.8256  -18.9734  -45.7346 H         1 UNK         0.3000 
    185 H185        2.2688  -16.3299  -44.7820 H         1 UNK         0.0600 
    186 H186        5.2116  -15.5523  -44.4303 H         1 UNK         0.0600 
    187 H187        3.9749  -14.4705  -45.0643 H         1 UNK         0.0600 
    188 H188        3.8559  -15.0670  -43.4161 H         1 UNK         0.0600 
    189 H189        4.5924  -16.8834  -46.5933 H         1 UNK         0.3000 
    190 H190       -1.2335  -21.8377  -46.5333 H         1 UNK         0.3000 
    191 H191       -2.1219  -23.6723  -45.7429 H         1 UNK         0.0600 
    192 H192       -0.9984  -24.9658  -43.8635 H         1 UNK         0.0600 
    193 H193       -1.2138  -23.2599  -43.5562 H         1 UNK         0.0600 
    194 H194        0.3785  -23.8842  -43.9939 H         1 UNK         0.0600 
    195 H195        1.1609  -24.2092  -46.9022 H         1 UNK         0.3000 
    196 H196        1.1558  -26.9581  -47.3349 H         1 UNK         0.0600 
    197 H197        2.5486  -24.7472  -48.9418 H         1 UNK         0.0600 
    198 H198        3.1657  -25.5129  -47.4784 H         1 UNK         0.0600 
    199 H199        3.0001  -26.4488  -48.9560 H         1 UNK         0.0600 
    200 H200       -0.3209  -24.4633  -49.3436 H         1 UNK         0.3000 
    201 H201       -1.3890  -26.5310  -51.2336 H         1 UNK         0.0600 
    202 H202       -0.9621  -23.5396  -51.7283 H         1 UNK         0.0600 
    203 H203        0.1095  -24.8105  -52.3137 H         1 UNK         0.0600 
    204 H204       -1.5475  -24.7222  -52.8889 H         1 UNK         0.0600 
    205 H205       -2.3331  -25.8116  -48.5214 H         1 UNK         0.3000 
    206 H206       -4.1551  -25.5976  -47.3606 H         1 UNK         0.0600 
    207 H207       -5.3784  -26.8772  -49.1143 H         1 UNK         0.0600 
    208 H208       -6.4114  -25.6982  -48.3201 H         1 UNK         0.0600 
    209 H209       -5.8006  -25.3720  -49.9320 H         1 UNK         0.0600 
    210 H210       -4.0461  -23.2336  -49.9762 H         1 UNK         0.3000 
    211 H211       -4.1045  -21.0245  -50.1059 H         1 UNK         0.0600 
    212 H212       -3.5644  -19.5789  -48.2173 H         1 UNK         0.0600 
    213 H213       -2.5973  -21.0328  -48.0708 H         1 UNK         0.0600 
    214 H214       -4.0169  -20.8091  -47.0509 H         1 UNK         0.0600 
    215 H215       -5.3793  -18.9778  -49.0404 H         1 UNK         0.3000 
    216 H216       -7.2495  -17.8369  -48.9688 H         1 UNK         0.0600 
    217 H217       -9.0737  -18.5820  -47.4962 H         1 UNK         0.0600 
    218 H218       -8.5060  -20.2448  -47.5545 H         1 UNK         0.0600 
    219 H219       -7.5316  -19.0018  -46.7711 H         1 UNK         0.0600 
    220 H220       -6.7476  -19.2674  -51.4040 H         1 UNK         0.3000 
    221 H221       -9.3154  -18.9246  -52.6948 H         1 UNK         0.0600 
    222 H222       -9.4672  -21.3510  -52.0534 H         1 UNK         0.0600 
    223 H223       -7.8849  -21.6539  -52.7667 H         1 UNK         0.0600 
    224 H224       -9.2436  -21.1941  -53.7885 H         1 UNK         0.0600 
    225 H225       -8.9852  -18.3926  -54.8697 H         1 UNK         0.3000 
    226 H226       -6.5444  -17.1967  -55.5536 H         1 UNK         0.0600 
    227 H227       -8.9069  -17.9858  -57.3417 H         1 UNK         0.0600 
    228 H228       -8.7376  -16.4734  -56.4489 H         1 UNK         0.0600 
    229 H229       -7.6439  -16.8389  -57.7728 H         1 UNK         0.0600 
    230 H230       -7.6377  -20.4734  -56.1968 H         1 UNK         0.3000 
    231 H231       -5.7663  -21.1887  -58.2330 H         1 UNK         0.0600 
    232 H232       -7.2148  -22.9056  -56.1431 H         1 UNK         0.0600 
    233 H233       -6.3985  -23.5180  -57.5765 H         1 UNK         0.0600 
    234 H234       -7.8193  -22.5007  -57.7506 H         1 UNK         0.0600 
    235 H235       -5.4202  -20.8086  -54.7618 H         1 UNK         0.3000 
    236 H236       -2.7463  -22.1352  -54.7249 H         1 UNK         0.0600 
    237 H237       -2.9910  -21.9359  -52.2594 H         1 UNK         0.0600 
    238 H238       -4.5563  -21.1514  -52.4552 H         1 UNK         0.0600 
    239 H239       -4.3397  -22.8250  -52.9531 H         1 UNK         0.0600 
    240 H240       -4.4682  -19.0948  -53.8404 H         1 UNK         0.3000 
    241 H241       -2.0067  -17.7522  -53.1920 H         1 UNK         0.0600 
    242 H242       -3.6098  -17.9656  -56.3172 H         1 UNK         0.3800 
    243 H243       -2.7161  -16.6328  -56.9926 H         1 UNK         0.3800 
    244 H244       -4.8272  -16.5955  -53.3189 H         1 UNK         0.0800 
    245 H245       -3.4533  -15.8447  -52.5513 H         1 UNK         0.0800 
    246 H246       -3.1156  -15.9642  -50.0536 H         1 UNK         0.0800 
    247 H247       -3.2495  -17.4177  -49.0982 H         1 UNK         0.0800 
@<TRIPOS>BOND
     1    1    2 1    
     2    1  127 1    
     3    1  128 1    
     4    1  129 1    
     5    2    3 2    
     6    2    4 am   BACKBONE|DICT|INTERRES
     7    4    5 1    
     8    4  130 1    
     9    5    6 1    
    10    5   65 1    
    11    5  131 1    
    12    6    7 1    
    13    6  132 1    
    14    6  133 1    
    15    7    8 1    
    16    8    9 1    
    17    8  134 1    
    18    8  135 1    
    19    9   10 ar   
    20    9   14 ar   
    21   10   11 ar   
    22   10  136 1    
    23   11   12 ar   
    24   11  126 1    
    25   12   13 ar   
    26   12  137 1    
    27   13   14 ar   
    28   13   15 1    
    29   14  138 1    
    30   15   16 1    
    31   15  139 1    
    32   15  140 1    
    33   16   17 1    
    34   17   18 1    
    35   17  141 1    
    36   17  142 1    
    37   18   19 1    
    38   18   67 1    
    39   18  143 1    
    40   19   20 am   BACKBONE|DICT|INTERRES
    41   19  144 1    
    42   20   21 2    
    43   20   22 1    
    44   22   23 1    
    45   22   24 1    
    46   22  145 1    
    47   23  146 1    
    48   23  147 1    
    49   23  148 1    
    50   24   25 am   BACKBONE|DICT|INTERRES
    51   24  149 1    
    52   25   26 2    
    53   25   27 1    
    54   27   28 1    
    55   27   29 1    
    56   27  150 1    
    57   28  151 1    
    58   28  152 1    
    59   28  153 1    
    60   29   30 am   BACKBONE|DICT|INTERRES
    61   29  154 1    
    62   30   31 2    
    63   30   32 1    
    64   32   33 1    
    65   32   34 1    
    66   32  155 1    
    67   33  156 1    
    68   33  157 1    
    69   33  158 1    
    70   34   35 am   BACKBONE|DICT|INTERRES
    71   34  159 1    
    72   35   36 2    
    73   35   37 1    
    74   37   38 1    
    75   37   39 1    
    76   37  160 1    
    77   38  161 1    
    78   38  162 1    
    79   38  163 1    
    80   39   40 am   BACKBONE|DICT|INTERRES
    81   39  164 1    
    82   40   41 2    
    83   40   42 1    
    84   42   43 1    
    85   42   44 1    
    86   42  165 1    
    87   43  166 1    
    88   43  167 1    
    89   43  168 1    
    90   44   45 am   BACKBONE|DICT|INTERRES
    91   44  169 1    
    92   45   46 2    
    93   45   47 1    
    94   47   48 1    
    95   47   49 1    
    96   47  170 1    
    97   48  171 1    
    98   48  172 1    
    99   48  173 1    
   100   49   50 am   BACKBONE|DICT|INTERRES
   101   49  174 1    
   102   50   51 2    
   103   50   52 1    
   104   52   53 1    
   105   52   54 1    
   106   52  175 1    
   107   53  176 1    
   108   53  177 1    
   109   53  178 1    
   110   54   55 am   BACKBONE|DICT|INTERRES
   111   54  179 1    
   112   55   56 2    
   113   55   57 1    
   114   57   58 1    
   115   57   59 1    
   116   57  180 1    
   117   58  181 1    
   118   58  182 1    
   119   58  183 1    
   120   59   60 am   BACKBONE|DICT|INTERRES
   121   59  184 1    
   122   60   61 2    
   123   60   62 1    
   124   62   63 1    
   125   62   64 1    
   126   62  185 1    
   127   63  186 1    
   128   63  187 1    
   129   63  188 1    
   130   64   65 am   BACKBONE|DICT|INTERRES
   131   64  189 1    
   132   65   66 2    
   133   67   68 2    
   134   67   69 am   BACKBONE|DICT|INTERRES
   135   69   70 1    
   136   69  190 1    
   137   70   71 1    
   138   70   72 1    
   139   70  191 1    
   140   71  192 1    
   141   71  193 1    
   142   71  194 1    
   143   72   73 2    
   144   72   74 am   BACKBONE|DICT|INTERRES
   145   74   75 1    
   146   74  195 1    
   147   75   76 1    
   148   75   77 1    
   149   75  196 1    
   150   76  197 1    
   151   76  198 1    
   152   76  199 1    
   153   77   78 2    
   154   77   79 am   BACKBONE|DICT|INTERRES
   155   79   80 1    
   156   79  200 1    
   157   80   81 1    
   158   80   82 1    
   159   80  201 1    
   160   81  202 1    
   161   81  203 1    
   162   81  204 1    
   163   82   83 2    
   164   82   84 am   BACKBONE|DICT|INTERRES
   165   84   85 1    
   166   84  205 1    
   167   85   86 1    
   168   85   87 1    
   169   85  206 1    
   170   86  207 1    
   171   86  208 1    
   172   86  209 1    
   173   87   88 2    
   174   87   89 am   BACKBONE|DICT|INTERRES
   175   89   90 1    
   176   89  210 1    
   177   90   91 1    
   178   90   92 1    
   179   90  211 1    
   180   91  212 1    
   181   91  213 1    
   182   91  214 1    
   183   92   93 2    
   184   92   94 am   BACKBONE|DICT|INTERRES
   185   94   95 1    
   186   94  215 1    
   187   95   96 1    
   188   95   97 1    
   189   95  216 1    
   190   96  217 1    
   191   96  218 1    
   192   96  219 1    
   193   97   98 2    
   194   97   99 am   BACKBONE|DICT|INTERRES
   195   99  100 1    
   196   99  220 1    
   197  100  101 1    
   198  100  102 1    
   199  100  221 1    
   200  101  222 1    
   201  101  223 1    
   202  101  224 1    
   203  102  103 2    
   204  102  104 am   BACKBONE|DICT|INTERRES
   205  104  105 1    
   206  104  225 1    
   207  105  106 1    
   208  105  107 1    
   209  105  226 1    
   210  106  227 1    
   211  106  228 1    
   212  106  229 1    
   213  107  108 2    
   214  107  109 am   BACKBONE|DICT|INTERRES
   215  109  110 1    
   216  109  230 1    
   217  110  111 1    
   218  110  112 1    
   219  110  231 1    
   220  111  232 1    
   221  111  233 1    
   222  111  234 1    
   223  112  113 2    
   224  112  114 am   BACKBONE|DICT|INTERRES
   225  114  115 1    
   226  114  235 1    
   227  115  116 1    
   228  115  117 1    
   229  115  236 1    
   230  116  237 1    
   231  116  238 1    
   232  116  239 1    
   233  117  118 2    
   234  117  119 am   BACKBONE|DICT|INTERRES
   235  119  120 1    
   236  119  240 1    
   237  120  121 1    
   238  120  124 1    
   239  120  241 1    
   240  121  122 am   BACKBONE|DICT|INTERRES
   241  121  123 2    
   242  122  242 1    
   243  122  243 1    
   244  124  125 1    
   245  124  244 1    
   246  124  245 1    
   247  125  126 1    
   248  126  246 1    
   249  126  247 1    
@<TRIPOS>SUBSTRUCTURE
     1 UNK         1 GROUP             0       ****    0 ROOT    
