@<TRIPOS>MOLECULE
3R540
247   249    1
SMALL
USER_CHARGES


@<TRIPOS>ATOM
      1 CA          5.3147  -19.7923  -44.8191 C.3       0 UNK        -0.1800 
      2 C           4.6656  -18.4289  -45.0050 C.2       0 UNK         0.5000 
      3 O           3.7269  -18.0940  -44.2848 O.2       0 UNK        -0.5000 
      4 N           5.1634  -17.6364  -45.9617 N.am      1 UNK        -0.5000 
      5 CA          4.6587  -16.3099  -46.3386 C.3       1 UNK         0.1400 
      6 C6          5.0763  -15.9604  -47.7923 C.3       23 UNK        -0.0398 
      7 S7          3.8931  -14.8474  -48.6263 S.3       23 UNK        -0.2404 
      8 C8          3.8578  -15.5423  -50.3111 C.3       23 UNK        -0.0205 
      9 C9          2.9140  -16.7308  -50.4158 C.ar      23 UNK        -0.0193 
     10 C10         1.5728  -16.5300  -50.7547 C.ar      23 UNK        -0.1150 
     11 C11         0.6950  -17.6131  -50.8526 C.ar      23 UNK        -0.0193 
     12 C12         1.1638  -18.9030  -50.5870 C.ar      23 UNK        -0.1150 
     13 C13         2.5032  -19.1175  -50.2491 C.ar      23 UNK        -0.0193 
     14 C14         3.3769  -18.0301  -50.1872 C.ar      23 UNK        -0.1150 
     15 C15         3.0076  -20.5220  -49.9471 C.3       23 UNK        -0.0205 
     16 S16         3.4985  -20.7383  -48.2001 S.3       23 UNK        -0.2404 
     17 C17         1.9808  -20.2751  -47.2954 C.3       23 UNK        -0.0398 
     18 CA          1.0788  -21.4694  -46.9043 C.3       11 UNK         0.1400 
     19 N           0.0739  -21.0718  -45.9163 N.am      11 UNK        -0.5000 
     20 C          -0.7694  -21.9003  -45.2867 C.2       10 UNK         0.5000 
     21 O          -0.7410  -23.1242  -45.4072 O.2       10 UNK        -0.5000 
     22 CA         -1.8604  -21.2504  -44.4152 C.3       10 UNK         0.1400 
     23 CB         -1.3217  -20.9227  -43.0151 C.3       10 UNK        -0.1800 
     24 N          -2.4275  -20.0455  -45.0256 N.am      10 UNK        -0.5000 
     25 C          -3.1219  -20.0361  -46.1729 C.2       9 UNK         0.5000 
     26 O          -3.4025  -21.0533  -46.8055 O.2       9 UNK        -0.5000 
     27 CA         -3.5304  -18.6633  -46.7372 C.3       9 UNK         0.1400 
     28 CB         -4.7859  -18.1300  -46.0320 C.3       9 UNK        -0.1800 
     29 N          -2.4550  -17.6733  -46.6597 N.am      9 UNK        -0.5000 
     30 C          -1.2832  -17.7802  -47.3019 C.2       8 UNK         0.5000 
     31 O          -1.0118  -18.7106  -48.0595 O.2       8 UNK        -0.5000 
     32 CA         -0.2143  -16.7099  -46.9984 C.3       8 UNK         0.1400 
     33 CB         -0.4772  -15.4172  -47.7833 C.3       8 UNK        -0.1800 
     34 N          -0.1189  -16.4001  -45.5707 N.am      8 UNK        -0.5000 
     35 C           0.2016  -17.2927  -44.6231 C.2       7 UNK         0.5000 
     36 O           0.5095  -18.4589  -44.8612 O.2       7 UNK        -0.5000 
     37 CA          0.0770  -16.8260  -43.1635 C.3       7 UNK         0.1400 
     38 CB          1.2900  -15.9889  -42.7337 C.3       7 UNK        -0.1800 
     39 N          -1.1546  -16.0673  -42.9487 N.am      7 UNK        -0.5000 
     40 C          -2.3816  -16.6082  -42.9570 C.2       6 UNK         0.5000 
     41 O          -2.5961  -17.8106  -43.1051 O.2       6 UNK        -0.5000 
     42 CA         -3.5696  -15.6390  -42.8121 C.3       6 UNK         0.1400 
     43 CB         -3.8671  -15.3683  -41.3299 C.3       6 UNK        -0.1800 
     44 N          -3.3461  -14.3672  -43.5002 N.am      6 UNK        -0.5000 
     45 C          -3.2435  -14.2294  -44.8301 C.2       5 UNK         0.5000 
     46 O          -3.3833  -15.1568  -45.6250 O.2       5 UNK        -0.5000 
     47 CA         -2.8625  -12.8316  -45.3526 C.3       5 UNK         0.1400 
     48 CB         -4.1184  -11.9771  -45.5782 C.3       5 UNK        -0.1800 
     49 N          -1.9452  -12.1249  -44.4544 N.am      5 UNK        -0.5000 
     50 C          -0.7034  -12.5365  -44.1671 C.2       4 UNK         0.5000 
     51 O          -0.1888  -13.5472  -44.6527 O.2       4 UNK        -0.5000 
     52 CA          0.0417  -11.7306  -43.0899 C.3       4 UNK         0.1400 
     53 CB         -0.2533  -12.3120  -41.6982 C.3       4 UNK        -0.1800 
     54 N           1.4871  -11.7233  -43.2944 N.am      4 UNK        -0.5000 
     55 C           2.1294  -11.0920  -44.2814 C.2       3 UNK         0.5000 
     56 O           1.5569  -10.4352  -45.1525 O.2       3 UNK        -0.5000 
     57 CA          3.6697  -11.1743  -44.2944 C.3       3 UNK         0.1400 
     58 CB          4.2803  -10.0943  -43.3815 C.3       3 UNK        -0.1800 
     59 N           4.2492  -12.4930  -44.0024 N.am      3 UNK        -0.5000 
     60 C           4.2138  -13.2306  -42.8843 C.2       2 UNK         0.5000 
     61 O           3.5753  -12.9186  -41.8775 O.2       2 UNK        -0.5000 
     62 CA          5.0323  -14.5417  -42.9104 C.3       2 UNK         0.1400 
     63 CB          4.9050  -15.3537  -41.6088 C.3       2 UNK        -0.1800 
     64 N           4.6964  -15.4066  -44.0456 N.am      2 UNK        -0.5000 
     65 C           5.0792  -15.2254  -45.3155 C.2       1 UNK         0.5000 
     66 O           5.7543  -14.2571  -45.6718 O.2       1 UNK        -0.5000 
     67 C           0.4237  -22.1350  -48.1334 C.2       11 UNK         0.5000 
     68 O           0.8531  -23.2157  -48.5368 O.2       11 UNK        -0.5000 
     69 N          -0.6303  -21.5093  -48.6782 N.am      12 UNK        -0.5000 
     70 CA         -1.4316  -22.0518  -49.7765 C.3       12 UNK         0.1400 
     71 CB         -2.4354  -20.9995  -50.2680 C.3       12 UNK        -0.1800 
     72 C          -2.1314  -23.3734  -49.4121 C.2       12 UNK         0.5000 
     73 O          -2.0963  -24.3076  -50.2114 O.2       12 UNK        -0.5000 
     74 N          -2.6987  -23.4538  -48.2002 N.am      13 UNK        -0.5000 
     75 CA         -3.3032  -24.6684  -47.6495 C.3       13 UNK         0.1400 
     76 CB         -3.9695  -24.3579  -46.3003 C.3       13 UNK        -0.1800 
     77 C          -2.2922  -25.8218  -47.5033 C.2       13 UNK         0.5000 
     78 O          -2.5994  -26.9476  -47.8952 O.2       13 UNK        -0.5000 
     79 N          -1.0905  -25.5170  -46.9913 N.am      14 UNK        -0.5000 
     80 CA          0.0294  -26.4550  -46.8669 C.3       14 UNK         0.1400 
     81 CB          1.1520  -25.8080  -46.0419 C.3       14 UNK        -0.1800 
     82 C           0.5630  -26.9437  -48.2281 C.2       14 UNK         0.5000 
     83 O           0.9533  -28.1055  -48.3469 O.2       14 UNK        -0.5000 
     84 N           0.5284  -26.0646  -49.2381 N.am      15 UNK        -0.5000 
     85 CA          0.8500  -26.3629  -50.6357 C.3       15 UNK         0.1400 
     86 CB          1.1899  -25.0467  -51.3551 C.3       15 UNK        -0.1800 
     87 C          -0.2696  -27.1238  -51.3823 C.2       15 UNK         0.5000 
     88 O          -0.0680  -27.4918  -52.5404 O.2       15 UNK        -0.5000 
     89 N          -1.4180  -27.3412  -50.7224 N.am      16 UNK        -0.5000 
     90 CA         -2.6337  -27.9964  -51.2160 C.3       16 UNK         0.1400 
     91 CB         -2.3640  -29.4682  -51.5947 C.3       16 UNK        -0.1800 
     92 C          -3.3558  -27.2036  -52.3266 C.2       16 UNK         0.5000 
     93 O          -4.0528  -27.7965  -53.1528 O.2       16 UNK        -0.5000 
     94 N          -3.2015  -25.8751  -52.3111 N.am      17 UNK        -0.5000 
     95 CA         -3.9465  -24.9312  -53.1377 C.3       17 UNK         0.1400 
     96 CB         -3.0161  -23.7616  -53.5017 C.3       17 UNK        -0.1800 
     97 C          -5.1849  -24.4278  -52.3737 C.2       17 UNK         0.5000 
     98 O          -5.3156  -24.6602  -51.1683 O.2       17 UNK        -0.5000 
     99 N          -6.0737  -23.7265  -53.0880 N.am      18 UNK        -0.5000 
    100 CA        -7.2297  -23.0357  -52.5190 C.3       18 UNK         0.1400 
    101 CB        -8.1654  -22.5964  -53.6562 C.3       18 UNK        -0.1800 
    102 C         -6.7634  -21.8350  -51.6772 C.2       18 UNK         0.5000 
    103 O         -6.3079  -20.8393  -52.2422 O.2       18 UNK        -0.5000 
    104 N         -6.8570  -21.9645  -50.3480 N.am      19 UNK        -0.5000 
    105 CA        -6.3008  -21.0414  -49.3533 C.3       19 UNK         0.1400 
    106 CB        -6.6287  -21.5728  -47.9512 C.3       19 UNK        -0.1800 
    107 C         -6.7613  -19.5786  -49.4945 C.2       19 UNK         0.5000 
    108 O         -5.9734  -18.6661  -49.2508 O.2       19 UNK        -0.5000 
    109 N         -8.0209  -19.3851  -49.9036 N.am      20 UNK        -0.5000 
    110 CA        -8.6243  -18.0701  -50.1183 C.3       20 UNK         0.1400 
    111 CB       -10.1533  -18.2205  -50.0830 C.3       20 UNK        -0.1800 
    112 C         -8.1846  -17.3944  -51.4329 C.2       20 UNK         0.5000 
    113 O         -8.3068  -16.1735  -51.5423 O.2       20 UNK        -0.5000 
    114 N         -7.7159  -18.1839  -52.4091 N.am      21 UNK        -0.5000 
    115 CA        -7.3729  -17.7197  -53.7545 C.3       21 UNK         0.1400 
    116 CB        -8.0324  -18.6533  -54.7810 C.3       21 UNK        -0.1800 
    117 C         -5.8563  -17.6648  -53.9973 C.2       21 UNK         0.5000 
    118 O         -5.4131  -16.8512  -54.8092 O.2       21 UNK        -0.5000 
    119 N         -5.0913  -18.5418  -53.3325 N.am      22 UNK        -0.5000 
    120 CA        -3.6457  -18.7769  -53.5004 C.3       22 UNK         0.1400 
    121 C         -3.2777  -19.4526  -54.8559 C.2       22 UNK         0.5000 
    122 N         -3.7906  -18.9777  -55.9832 N.am      22 UNK        -0.7600 
    123 O         -2.5371  -20.4309  -54.8827 O.2       22 UNK        -0.5000 
    124 C124       -2.7920  -17.5083  -53.2197 C.3       23 UNK        -0.0398 
    125 S125       -1.0141  -17.8570  -52.9916 S.3       23 UNK        -0.2404 
    126 C126       -0.7553  -17.3936  -51.2539 C.3       23 UNK        -0.0205 
    127 H127        6.1133  -19.9633  -45.5414 H         1 UNK         0.0600 
    128 H128        4.5708  -20.5792  -44.9445 H         1 UNK         0.0600 
    129 H129        5.7354  -19.8746  -43.8171 H         1 UNK         0.0600 
    130 H130        5.9628  -17.9593  -46.4876 H         1 UNK         0.3000 
    131 H131        3.5676  -16.3650  -46.3087 H         1 UNK         0.0600 
    132 H132        6.0775  -15.5289  -47.8433 H         1 UNK         0.0800 
    133 H133        5.1431  -16.8761  -48.3745 H         1 UNK         0.0800 
    134 H134        4.8654  -15.8239  -50.6208 H         1 UNK         0.0800 
    135 H135        3.5394  -14.7608  -51.0026 H         1 UNK         0.0800 
    136 H136        1.2142  -15.5287  -50.9477 H         1 UNK         0.1150 
    137 H137        0.4825  -19.7390  -50.6492 H         1 UNK         0.1150 
    138 H138        4.4150  -18.2050  -49.9474 H         1 UNK         0.1150 
    139 H139        2.2566  -21.2682  -50.2093 H         1 UNK         0.0800 
    140 H140        3.8708  -20.7313  -50.5802 H         1 UNK         0.0800 
    141 H141        1.4213  -19.5228  -47.8473 H         1 UNK         0.0800 
    142 H142        2.3128  -19.7700  -46.3880 H         1 UNK         0.0800 
    143 H143        1.7082  -22.2213  -46.4238 H         1 UNK         0.0600 
    144 H144        0.0231  -20.0793  -45.7002 H         1 UNK         0.3000 
    145 H145       -2.6687  -21.9754  -44.3027 H         1 UNK         0.0600 
    146 H146       -2.1099  -20.5318  -42.3716 H         1 UNK         0.0600 
    147 H147       -0.9204  -21.8150  -42.5332 H         1 UNK         0.0600 
    148 H148       -0.5228  -20.1822  -43.0520 H         1 UNK         0.0600 
    149 H149       -2.2767  -19.1708  -44.5329 H         1 UNK         0.3000 
    150 H150       -3.7683  -18.8024  -47.7928 H         1 UNK         0.0600 
    151 H151       -5.6058  -18.8454  -46.0983 H         1 UNK         0.0600 
    152 H152       -5.1293  -17.2031  -46.4917 H         1 UNK         0.0600 
    153 H153       -4.6045  -17.9345  -44.9755 H         1 UNK         0.0600 
    154 H154       -2.6384  -16.8440  -46.1016 H         1 UNK         0.3000 
    155 H155        0.7518  -17.1071  -47.3177 H         1 UNK         0.0600 
    156 H156       -0.5263  -15.6133  -48.8534 H         1 UNK         0.0600 
    157 H157       -1.4188  -14.9522  -47.4934 H         1 UNK         0.0600 
    158 H158        0.3199  -14.6908  -47.6226 H         1 UNK         0.0600 
    159 H159       -0.3291  -15.4473  -45.2901 H         1 UNK         0.3000 
    160 H160        0.0432  -17.7144  -42.5291 H         1 UNK         0.0600 
    161 H161        1.1918  -15.6457  -41.7039 H         1 UNK         0.0600 
    162 H162        2.1973  -16.5881  -42.7872 H         1 UNK         0.0600 
    163 H163        1.4388  -15.1153  -43.3679 H         1 UNK         0.0600 
    164 H164       -1.0646  -15.0650  -42.8828 H         1 UNK         0.3000 
    165 H165       -4.4461  -16.1159  -43.2555 H         1 UNK         0.0600 
    166 H166       -4.7523  -14.7429  -41.2133 H         1 UNK         0.0600 
    167 H167       -4.0556  -16.2995  -40.7940 H         1 UNK         0.0600 
    168 H168       -3.0338  -14.8675  -40.8352 H         1 UNK         0.0600 
    169 H169       -3.2277  -13.5494  -42.9214 H         1 UNK         0.3000 
    170 H170       -2.3598  -12.9615  -46.3132 H         1 UNK         0.0600 
    171 H171       -4.8099  -12.4735  -46.2604 H         1 UNK         0.0600 
    172 H172       -4.6535  -11.7908  -44.6462 H         1 UNK         0.0600 
    173 H173       -3.8653  -11.0128  -46.0193 H         1 UNK         0.0600 
    174 H174       -2.3023  -11.2903  -44.0118 H         1 UNK         0.3000 
    175 H175       -0.3096  -10.6971  -43.1192 H         1 UNK         0.0600 
    176 H176        0.1085  -13.3364  -41.6047 H         1 UNK         0.0600 
    177 H177        0.2227  -11.7196  -40.9165 H         1 UNK         0.0600 
    178 H178       -1.3240  -12.3195  -41.4905 H         1 UNK         0.0600 
    179 H179        2.0550  -12.2419  -42.6290 H         1 UNK         0.3000 
    180 H180        3.9784  -10.9466  -45.3159 H         1 UNK         0.0600 
    181 H181        4.0219  -10.2532  -42.3341 H         1 UNK         0.0600 
    182 H182        3.9215   -9.1021  -43.6581 H         1 UNK         0.0600 
    183 H183        5.3673  -10.0799  -43.4605 H         1 UNK         0.0600 
    184 H184        4.7872  -12.8947  -44.7663 H         1 UNK         0.3000 
    185 H185        6.0806  -14.2512  -43.0052 H         1 UNK         0.0600 
    186 H186        3.8755  -15.6520  -41.4136 H         1 UNK         0.0600 
    187 H187        5.5146  -16.2567  -41.6452 H         1 UNK         0.0600 
    188 H188        5.2431  -14.7706  -40.7514 H         1 UNK         0.0600 
    189 H189        4.1662  -16.2485  -43.8401 H         1 UNK         0.3000 
    190 H190       -0.9045  -20.5995  -48.3152 H         1 UNK         0.3000 
    191 H191       -0.7526  -22.2694  -50.6033 H         1 UNK         0.0600 
    192 H192       -2.9749  -20.5400  -49.4411 H         1 UNK         0.0600 
    193 H193       -3.1705  -21.4327  -50.9477 H         1 UNK         0.0600 
    194 H194       -1.9252  -20.2068  -50.8114 H         1 UNK         0.0600 
    195 H195       -2.7359  -22.6194  -47.6197 H         1 UNK         0.3000 
    196 H196       -4.0800  -24.9901  -48.3467 H         1 UNK         0.0600 
    197 H197       -4.4993  -25.2315  -45.9191 H         1 UNK         0.0600 
    198 H198       -4.6946  -23.5504  -46.3887 H         1 UNK         0.0600 
    199 H199       -3.2396  -24.0647  -45.5465 H         1 UNK         0.0600 
    200 H200       -0.9316  -24.5737  -46.6463 H         1 UNK         0.3000 
    201 H201       -0.3303  -27.3299  -46.3216 H         1 UNK         0.0600 
    202 H202        0.8008  -25.5320  -45.0475 H         1 UNK         0.0600 
    203 H203        1.5372  -24.9078  -46.5213 H         1 UNK         0.0600 
    204 H204        1.9886  -26.4956  -45.9127 H         1 UNK         0.0600 
    205 H205        0.2575  -25.1077  -49.0342 H         1 UNK         0.3000 
    206 H206        1.7386  -26.9968  -50.6562 H         1 UNK         0.0600 
    207 H207        1.9995  -24.5182  -50.8512 H         1 UNK         0.0600 
    208 H208        1.5120  -25.2311  -52.3805 H         1 UNK         0.0600 
    209 H209        0.3302  -24.3783  -51.3980 H         1 UNK         0.0600 
    210 H210       -1.4904  -26.9744  -49.7813 H         1 UNK         0.3000 
    211 H211       -3.3236  -28.0046  -50.3714 H         1 UNK         0.0600 
    212 H212       -1.7495  -29.5521  -52.4912 H         1 UNK         0.0600 
    213 H213       -3.2969  -29.9981  -51.7900 H         1 UNK         0.0600 
    214 H214       -1.8562  -29.9960  -50.7875 H         1 UNK         0.0600 
    215 H215       -2.6825  -25.4564  -51.5415 H         1 UNK         0.3000 
    216 H216       -4.2776  -25.4151  -54.0588 H         1 UNK         0.0600 
    217 H217       -3.5102  -23.0554  -54.1698 H         1 UNK         0.0600 
    218 H218       -2.1204  -24.1156  -54.0123 H         1 UNK         0.0600 
    219 H219       -2.6975  -23.2063  -52.6198 H         1 UNK         0.0600 
    220 H220       -5.8893  -23.5545  -54.0655 H         1 UNK         0.3000 
    221 H221       -7.7779  -23.7303  -51.8789 H         1 UNK         0.0600 
    222 H222       -7.6441  -21.9879  -54.3952 H         1 UNK         0.0600 
    223 H223       -8.5844  -23.4594  -54.1738 H         1 UNK         0.0600 
    224 H224       -9.0013  -22.0091  -53.2737 H         1 UNK         0.0600 
    225 H225       -7.2197  -22.8334  -49.9827 H         1 UNK         0.3000 
    226 H226       -5.2180  -21.0558  -49.4736 H         1 UNK         0.0600 
    227 H227       -6.2511  -22.5861  -47.8197 H         1 UNK         0.0600 
    228 H228       -6.1708  -20.9541  -47.1794 H         1 UNK         0.0600 
    229 H229       -7.7035  -21.5889  -47.7666 H         1 UNK         0.0600 
    230 H230       -8.6005  -20.1917  -50.0842 H         1 UNK         0.3000 
    231 H231       -8.3296  -17.4128  -49.2972 H         1 UNK         0.0600 
    232 H232      -10.6446  -17.2544  -50.2070 H         1 UNK         0.0600 
    233 H233      -10.4876  -18.6328  -49.1308 H         1 UNK         0.0600 
    234 H234      -10.5119  -18.8753  -50.8783 H         1 UNK         0.0600 
    235 H235       -7.5793  -19.1692  -52.2203 H         1 UNK         0.3000 
    236 H236       -7.7654  -16.7147  -53.9230 H         1 UNK         0.0600 
    237 H237       -9.1141  -18.6844  -54.6497 H         1 UNK         0.0600 
    238 H238       -7.8377  -18.3147  -55.7995 H         1 UNK         0.0600 
    239 H239       -7.6536  -19.6715  -54.6969 H         1 UNK         0.0600 
    240 H240       -5.5637  -19.2428  -52.7672 H         1 UNK         0.3000 
    241 H241       -3.4028  -19.5044  -52.7253 H         1 UNK         0.0600 
    242 H242       -4.3932  -18.1636  -55.9486 H         1 UNK         0.3800 
    243 H243       -3.5651  -19.4111  -56.8644 H         1 UNK         0.3800 
    244 H244       -2.8909  -16.7878  -54.0326 H         1 UNK         0.0800 
    245 H245       -3.1695  -17.0042  -52.3291 H         1 UNK         0.0800 
    246 H246       -1.0356  -16.3482  -51.1183 H         1 UNK         0.0800 
    247 H247       -1.4134  -17.9760  -50.6094 H         1 UNK         0.0800 
@<TRIPOS>BOND
     1    1    2 1    
     2    1  127 1    
     3    1  128 1    
     4    1  129 1    
     5    2    3 2    
     6    2    4 am   BACKBONE|DICT|INTERRES
     7    4    5 1    
     8    4  130 1    
     9    5    6 1    
    10    5   65 1    
    11    5  131 1    
    12    6    7 1    
    13    6  132 1    
    14    6  133 1    
    15    7    8 1    
    16    8    9 1    
    17    8  134 1    
    18    8  135 1    
    19    9   10 ar   
    20    9   14 ar   
    21   10   11 ar   
    22   10  136 1    
    23   11   12 ar   
    24   11  126 1    
    25   12   13 ar   
    26   12  137 1    
    27   13   14 ar   
    28   13   15 1    
    29   14  138 1    
    30   15   16 1    
    31   15  139 1    
    32   15  140 1    
    33   16   17 1    
    34   17   18 1    
    35   17  141 1    
    36   17  142 1    
    37   18   19 1    
    38   18   67 1    
    39   18  143 1    
    40   19   20 am   BACKBONE|DICT|INTERRES
    41   19  144 1    
    42   20   21 2    
    43   20   22 1    
    44   22   23 1    
    45   22   24 1    
    46   22  145 1    
    47   23  146 1    
    48   23  147 1    
    49   23  148 1    
    50   24   25 am   BACKBONE|DICT|INTERRES
    51   24  149 1    
    52   25   26 2    
    53   25   27 1    
    54   27   28 1    
    55   27   29 1    
    56   27  150 1    
    57   28  151 1    
    58   28  152 1    
    59   28  153 1    
    60   29   30 am   BACKBONE|DICT|INTERRES
    61   29  154 1    
    62   30   31 2    
    63   30   32 1    
    64   32   33 1    
    65   32   34 1    
    66   32  155 1    
    67   33  156 1    
    68   33  157 1    
    69   33  158 1    
    70   34   35 am   BACKBONE|DICT|INTERRES
    71   34  159 1    
    72   35   36 2    
    73   35   37 1    
    74   37   38 1    
    75   37   39 1    
    76   37  160 1    
    77   38  161 1    
    78   38  162 1    
    79   38  163 1    
    80   39   40 am   BACKBONE|DICT|INTERRES
    81   39  164 1    
    82   40   41 2    
    83   40   42 1    
    84   42   43 1    
    85   42   44 1    
    86   42  165 1    
    87   43  166 1    
    88   43  167 1    
    89   43  168 1    
    90   44   45 am   BACKBONE|DICT|INTERRES
    91   44  169 1    
    92   45   46 2    
    93   45   47 1    
    94   47   48 1    
    95   47   49 1    
    96   47  170 1    
    97   48  171 1    
    98   48  172 1    
    99   48  173 1    
   100   49   50 am   BACKBONE|DICT|INTERRES
   101   49  174 1    
   102   50   51 2    
   103   50   52 1    
   104   52   53 1    
   105   52   54 1    
   106   52  175 1    
   107   53  176 1    
   108   53  177 1    
   109   53  178 1    
   110   54   55 am   BACKBONE|DICT|INTERRES
   111   54  179 1    
   112   55   56 2    
   113   55   57 1    
   114   57   58 1    
   115   57   59 1    
   116   57  180 1    
   117   58  181 1    
   118   58  182 1    
   119   58  183 1    
   120   59   60 am   BACKBONE|DICT|INTERRES
   121   59  184 1    
   122   60   61 2    
   123   60   62 1    
   124   62   63 1    
   125   62   64 1    
   126   62  185 1    
   127   63  186 1    
   128   63  187 1    
   129   63  188 1    
   130   64   65 am   BACKBONE|DICT|INTERRES
   131   64  189 1    
   132   65   66 2    
   133   67   68 2    
   134   67   69 am   BACKBONE|DICT|INTERRES
   135   69   70 1    
   136   69  190 1    
   137   70   71 1    
   138   70   72 1    
   139   70  191 1    
   140   71  192 1    
   141   71  193 1    
   142   71  194 1    
   143   72   73 2    
   144   72   74 am   BACKBONE|DICT|INTERRES
   145   74   75 1    
   146   74  195 1    
   147   75   76 1    
   148   75   77 1    
   149   75  196 1    
   150   76  197 1    
   151   76  198 1    
   152   76  199 1    
   153   77   78 2    
   154   77   79 am   BACKBONE|DICT|INTERRES
   155   79   80 1    
   156   79  200 1    
   157   80   81 1    
   158   80   82 1    
   159   80  201 1    
   160   81  202 1    
   161   81  203 1    
   162   81  204 1    
   163   82   83 2    
   164   82   84 am   BACKBONE|DICT|INTERRES
   165   84   85 1    
   166   84  205 1    
   167   85   86 1    
   168   85   87 1    
   169   85  206 1    
   170   86  207 1    
   171   86  208 1    
   172   86  209 1    
   173   87   88 2    
   174   87   89 am   BACKBONE|DICT|INTERRES
   175   89   90 1    
   176   89  210 1    
   177   90   91 1    
   178   90   92 1    
   179   90  211 1    
   180   91  212 1    
   181   91  213 1    
   182   91  214 1    
   183   92   93 2    
   184   92   94 am   BACKBONE|DICT|INTERRES
   185   94   95 1    
   186   94  215 1    
   187   95   96 1    
   188   95   97 1    
   189   95  216 1    
   190   96  217 1    
   191   96  218 1    
   192   96  219 1    
   193   97   98 2    
   194   97   99 am   BACKBONE|DICT|INTERRES
   195   99  100 1    
   196   99  220 1    
   197  100  101 1    
   198  100  102 1    
   199  100  221 1    
   200  101  222 1    
   201  101  223 1    
   202  101  224 1    
   203  102  103 2    
   204  102  104 am   BACKBONE|DICT|INTERRES
   205  104  105 1    
   206  104  225 1    
   207  105  106 1    
   208  105  107 1    
   209  105  226 1    
   210  106  227 1    
   211  106  228 1    
   212  106  229 1    
   213  107  108 2    
   214  107  109 am   BACKBONE|DICT|INTERRES
   215  109  110 1    
   216  109  230 1    
   217  110  111 1    
   218  110  112 1    
   219  110  231 1    
   220  111  232 1    
   221  111  233 1    
   222  111  234 1    
   223  112  113 2    
   224  112  114 am   BACKBONE|DICT|INTERRES
   225  114  115 1    
   226  114  235 1    
   227  115  116 1    
   228  115  117 1    
   229  115  236 1    
   230  116  237 1    
   231  116  238 1    
   232  116  239 1    
   233  117  118 2    
   234  117  119 am   BACKBONE|DICT|INTERRES
   235  119  120 1    
   236  119  240 1    
   237  120  121 1    
   238  120  124 1    
   239  120  241 1    
   240  121  122 am   BACKBONE|DICT|INTERRES
   241  121  123 2    
   242  122  242 1    
   243  122  243 1    
   244  124  125 1    
   245  124  244 1    
   246  124  245 1    
   247  125  126 1    
   248  126  246 1    
   249  126  247 1    
@<TRIPOS>SUBSTRUCTURE
     1 UNK         1 GROUP             0       ****    0 ROOT    
