@<TRIPOS>MOLECULE
3R540
247   249    1
SMALL
USER_CHARGES


@<TRIPOS>ATOM
      1 CA          3.8997   -9.7364  -48.7790 C.3       0 UNK        -0.1800 
      2 C           3.2625  -11.1184  -48.8145 C.2       0 UNK         0.5000 
      3 O           3.9515  -12.1047  -49.0751 O.2       0 UNK        -0.5000 
      4 N           1.9535  -11.1938  -48.5544 N.am      1 UNK        -0.5000 
      5 CA          1.1736  -12.4308  -48.5273 C.3       1 UNK         0.1400 
      6 C6          0.7782  -12.9223  -49.9457 C.3       23 UNK        -0.0398 
      7 S7          0.3804  -14.7049  -49.9778 S.3       23 UNK        -0.2404 
      8 C8          1.8370  -15.3682  -50.8398 C.3       23 UNK        -0.0205 
      9 C9          1.7028  -16.8620  -51.0888 C.ar      23 UNK        -0.0193 
     10 C10         0.8812  -17.3264  -52.1189 C.ar      23 UNK        -0.1150 
     11 C11         0.7757  -18.6943  -52.3839 C.ar      23 UNK        -0.0193 
     12 C12         1.4919  -19.6047  -51.6008 C.ar      23 UNK        -0.1150 
     13 C13         2.3176  -19.1526  -50.5657 C.ar      23 UNK        -0.0193 
     14 C14         2.4183  -17.7799  -50.3151 C.ar      23 UNK        -0.1150 
     15 C15         3.1340  -20.1413  -49.7438 C.3       23 UNK        -0.0205 
     16 S16         2.6838  -20.1233  -47.9802 S.3       23 UNK        -0.2404 
     17 C17         1.0275  -20.8852  -48.0068 C.3       23 UNK        -0.0398 
     18 CA          1.0329  -22.3475  -47.5014 C.3       11 UNK         0.1400 
     19 N           1.5288  -22.4540  -46.1297 N.am      11 UNK        -0.5000 
     20 C           1.8784  -23.5963  -45.5261 C.2       10 UNK         0.5000 
     21 O           1.8817  -24.6907  -46.0941 O.2       10 UNK        -0.5000 
     22 CA          2.2849  -23.4893  -44.0419 C.3       10 UNK         0.1400 
     23 CB          3.0009  -24.7484  -43.5098 C.3       10 UNK        -0.1800 
     24 N           3.0588  -22.2808  -43.7468 N.am      10 UNK        -0.5000 
     25 C           4.2659  -21.9358  -44.2204 C.2       9 UNK         0.5000 
     26 O           4.9316  -22.6410  -44.9799 O.2       9 UNK        -0.5000 
     27 CA          4.8379  -20.5723  -43.7732 C.3       9 UNK         0.1400 
     28 CB          4.9127  -19.5995  -44.9599 C.3       9 UNK        -0.1800 
     29 N           4.0726  -19.9375  -42.6980 N.am      9 UNK        -0.5000 
     30 C           4.0859  -20.3119  -41.4121 C.2       8 UNK         0.5000 
     31 O           4.8180  -21.1946  -40.9638 O.2       8 UNK        -0.5000 
     32 CA          3.0764  -19.6121  -40.4811 C.3       8 UNK         0.1400 
     33 CB          3.6618  -18.3044  -39.9275 C.3       8 UNK        -0.1800 
     34 N           1.7901  -19.3411  -41.1317 N.am      8 UNK        -0.5000 
     35 C           0.9444  -20.2869  -41.5680 C.2       7 UNK         0.5000 
     36 O           1.1468  -21.4937  -41.4372 O.2       7 UNK        -0.5000 
     37 CA         -0.3142  -19.8158  -42.3179 C.3       7 UNK         0.1400 
     38 CB         -1.4003  -19.3630  -41.3313 C.3       7 UNK        -0.1800 
     39 N          -0.0299  -18.7479  -43.2770 N.am      7 UNK        -0.5000 
     40 C           0.7250  -18.9004  -44.3752 C.2       6 UNK         0.5000 
     41 O           1.2068  -19.9783  -44.7214 O.2       6 UNK        -0.5000 
     42 CA          1.0339  -17.6342  -45.1977 C.3       6 UNK         0.1400 
     43 CB         -0.1121  -17.2899  -46.1611 C.3       6 UNK        -0.1800 
     44 N           1.3119  -16.4754  -44.3518 N.am      6 UNK        -0.5000 
     45 C           2.3465  -16.3758  -43.5071 C.2       5 UNK         0.5000 
     46 O           3.2118  -17.2402  -43.3768 O.2       5 UNK        -0.5000 
     47 CA          2.3874  -15.1215  -42.6197 C.3       5 UNK         0.1400 
     48 CB          2.9314  -13.9124  -43.3965 C.3       5 UNK        -0.1800 
     49 N           1.0699  -14.8062  -42.0666 N.am      5 UNK        -0.5000 
     50 C           0.4434  -15.5470  -41.1412 C.2       4 UNK         0.5000 
     51 O           0.9240  -16.5622  -40.6386 O.2       4 UNK        -0.5000 
     52 CA         -0.9714  -15.0967  -40.7344 C.3       4 UNK         0.1400 
     53 CB         -0.9031  -13.9952  -39.6663 C.3       4 UNK        -0.1800 
     54 N          -1.7613  -14.6223  -41.8713 N.am      4 UNK        -0.5000 
     55 C          -2.1861  -15.4034  -42.8743 C.2       3 UNK         0.5000 
     56 O          -1.9754  -16.6132  -42.9376 O.2       3 UNK        -0.5000 
     57 CA         -2.9230  -14.7021  -44.0296 C.3       3 UNK         0.1400 
     58 CB         -4.4111  -14.5232  -43.6948 C.3       3 UNK        -0.1800 
     59 N          -2.3415  -13.4056  -44.3937 N.am      3 UNK        -0.5000 
     60 C          -1.0823  -13.2369  -44.8167 C.2       2 UNK         0.5000 
     61 O          -0.2516  -14.1466  -44.8691 O.2       2 UNK        -0.5000 
     62 CA         -0.6629  -11.8119  -45.2175 C.3       2 UNK         0.1400 
     63 CB         -0.0239  -11.0863  -44.0234 C.3       2 UNK        -0.1800 
     64 N           0.2968  -11.8563  -46.3209 N.am      2 UNK        -0.5000 
     65 C          -0.0149  -12.2339  -47.5684 C.2       1 UNK         0.5000 
     66 O          -1.1738  -12.3872  -47.9590 O.2       1 UNK        -0.5000 
     67 C          -0.3898  -22.9297  -47.5909 C.2       11 UNK         0.5000 
     68 O          -1.2303  -22.6084  -46.7474 O.2       11 UNK        -0.5000 
     69 N          -0.6579  -23.7215  -48.6393 N.am      12 UNK        -0.5000 
     70 CA         -1.9701  -24.3200  -48.9148 C.3       12 UNK         0.1400 
     71 CB         -1.8644  -25.2303  -50.1478 C.3       12 UNK        -0.1800 
     72 C          -3.0841  -23.2758  -49.1163 C.2       12 UNK         0.5000 
     73 O          -4.2247  -23.5118  -48.7185 O.2       12 UNK        -0.5000 
     74 N          -2.7134  -22.1181  -49.6807 N.am      13 UNK        -0.5000 
     75 CA         -3.5870  -20.9694  -49.9145 C.3       13 UNK         0.1400 
     76 CB         -2.8076  -19.9080  -50.7065 C.3       13 UNK        -0.1800 
     77 C          -4.1807  -20.3602  -48.6289 C.2       13 UNK         0.5000 
     78 O          -5.2794  -19.8092  -48.6777 O.2       13 UNK        -0.5000 
     79 N          -3.4741  -20.4899  -47.4953 N.am      14 UNK        -0.5000 
     80 CA         -3.9425  -20.0189  -46.1899 C.3       14 UNK         0.1400 
     81 CB         -2.7684  -19.9929  -45.2015 C.3       14 UNK        -0.1800 
     82 C          -5.0937  -20.8772  -45.6354 C.2       14 UNK         0.5000 
     83 O          -5.9782  -20.3453  -44.9642 O.2       14 UNK        -0.5000 
     84 N          -5.0655  -22.1825  -45.9347 N.am      15 UNK        -0.5000 
     85 CA         -6.1029  -23.1376  -45.5544 C.3       15 UNK         0.1400 
     86 CB         -5.4830  -24.5398  -45.4454 C.3       15 UNK        -0.1800 
     87 C          -7.2678  -23.1333  -46.5578 C.2       15 UNK         0.5000 
     88 O          -8.4278  -23.1592  -46.1452 O.2       15 UNK        -0.5000 
     89 N          -6.9377  -23.1116  -47.8558 N.am      16 UNK        -0.5000 
     90 CA         -7.8965  -23.2028  -48.9559 C.3       16 UNK         0.1400 
     91 CB         -7.1406  -23.5986  -50.2322 C.3       16 UNK        -0.1800 
     92 C          -8.6856  -21.9078  -49.2122 C.2       16 UNK         0.5000 
     93 O          -9.7686  -21.9796  -49.7927 O.2       16 UNK        -0.5000 
     94 N          -8.1059  -20.7515  -48.8569 N.am      17 UNK        -0.5000 
     95 CA         -8.5396  -19.3735  -49.1436 C.3       17 UNK         0.1400 
     96 CB         -9.9580  -19.0895  -48.6126 C.3       17 UNK        -0.1800 
     97 C          -8.3935  -18.9662  -50.6271 C.2       17 UNK         0.5000 
     98 O          -8.0988  -17.8037  -50.9095 O.2       17 UNK        -0.5000 
     99 N          -8.5672  -19.9256  -51.5439 N.am      18 UNK        -0.5000 
    100 CA        -8.2102  -19.8481  -52.9590 C.3       18 UNK         0.1400 
    101 CB        -8.8749  -21.0321  -53.6819 C.3       18 UNK        -0.1800 
    102 C         -6.6803  -19.8739  -53.1649 C.2       18 UNK         0.5000 
    103 O         -5.9297  -20.1116  -52.2177 O.2       18 UNK        -0.5000 
    104 N         -6.2439  -19.6552  -54.4132 N.am      19 UNK        -0.5000 
    105 CA        -4.8331  -19.6242  -54.8197 C.3       19 UNK         0.1400 
    106 CB        -4.7523  -19.2149  -56.2976 C.3       19 UNK        -0.1800 
    107 C         -4.0684  -20.9427  -54.5749 C.2       19 UNK         0.5000 
    108 O         -2.8706  -20.8962  -54.2921 O.2       19 UNK        -0.5000 
    109 N         -4.7815  -22.0776  -54.6525 N.am      20 UNK        -0.5000 
    110 CA        -4.3380  -23.4376  -54.3308 C.3       20 UNK         0.1400 
    111 CB        -4.1830  -23.5934  -52.8027 C.3       20 UNK        -0.1800 
    112 C         -3.0813  -23.8648  -55.1161 C.2       20 UNK         0.5000 
    113 O         -3.2010  -24.2845  -56.2677 O.2       20 UNK        -0.5000 
    114 N         -1.9089  -23.7585  -54.4767 N.am      21 UNK        -0.5000 
    115 CA        -0.5989  -24.0549  -55.0540 C.3       21 UNK         0.1400 
    116 CB         0.4347  -24.1224  -53.9183 C.3       21 UNK        -0.1800 
    117 C         -0.1589  -23.0340  -56.1214 C.2       21 UNK         0.5000 
    118 O          0.6089  -23.3929  -57.0157 O.2       21 UNK        -0.5000 
    119 N         -0.6409  -21.7907  -56.0101 N.am      22 UNK        -0.5000 
    120 CA        -0.4063  -20.7174  -56.9829 C.3       22 UNK         0.1400 
    121 C         -1.3586  -20.8364  -58.2036 C.2       22 UNK         0.5000 
    122 N         -0.8951  -20.4805  -59.3939 N.am      22 UNK        -0.7600 
    123 O         -2.5235  -21.2069  -58.0808 O.2       22 UNK        -0.5000 
    124 C124       -0.5286  -19.3218  -56.3249 C.3       23 UNK        -0.0398 
    125 S125        0.7985  -19.0071  -55.1144 S.3       23 UNK        -0.2404 
    126 C126       -0.0910  -19.1746  -53.5361 C.3       23 UNK        -0.0205 
    127 H127        3.1729   -8.9604  -48.5374 H         1 UNK         0.0600 
    128 H128        4.3388   -9.5008  -49.7484 H         1 UNK         0.0600 
    129 H129        4.6903   -9.7070  -48.0291 H         1 UNK         0.0600 
    130 H130        1.4352  -10.3534  -48.3345 H         1 UNK         0.3000 
    131 H131        1.7969  -13.2010  -48.0665 H         1 UNK         0.0600 
    132 H132       -0.0673  -12.3572  -50.3413 H         1 UNK         0.0800 
    133 H133        1.5955  -12.7407  -50.6444 H         1 UNK         0.0800 
    134 H134        2.7319  -15.1535  -50.2530 H         1 UNK         0.0800 
    135 H135        1.9616  -14.8557  -51.7950 H         1 UNK         0.0800 
    136 H136        0.3344  -16.6192  -52.7270 H         1 UNK         0.1150 
    137 H137        1.4207  -20.6625  -51.8118 H         1 UNK         0.1150 
    138 H138        3.0616  -17.4285  -49.5205 H         1 UNK         0.1150 
    139 H139        3.0310  -21.1561  -50.1310 H         1 UNK         0.0800 
    140 H140        4.1902  -19.8850  -49.8365 H         1 UNK         0.0800 
    141 H141        0.6215  -20.8270  -49.0177 H         1 UNK         0.0800 
    142 H142        0.3716  -20.2746  -47.3854 H         1 UNK         0.0800 
    143 H143        1.6937  -22.9314  -48.1457 H         1 UNK         0.0600 
    144 H144        1.5233  -21.5916  -45.5887 H         1 UNK         0.3000 
    145 H145        1.3513  -23.3884  -43.4870 H         1 UNK         0.0600 
    146 H146        3.2585  -24.6383  -42.4564 H         1 UNK         0.0600 
    147 H147        2.3607  -25.6270  -43.5961 H         1 UNK         0.0600 
    148 H148        3.9182  -24.9582  -44.0603 H         1 UNK         0.0600 
    149 H149        2.5934  -21.6185  -43.1396 H         1 UNK         0.3000 
    150 H150        5.8541  -20.7502  -43.4157 H         1 UNK         0.0600 
    151 H151        5.4745  -20.0284  -45.7905 H         1 UNK         0.0600 
    152 H152        5.4073  -18.6701  -44.6772 H         1 UNK         0.0600 
    153 H153        3.9189  -19.3481  -45.3302 H         1 UNK         0.0600 
    154 H154        3.4948  -19.1458  -42.9657 H         1 UNK         0.3000 
    155 H155        2.8878  -20.2808  -39.6387 H         1 UNK         0.0600 
    156 H156        4.6120  -18.4838  -39.4232 H         1 UNK         0.0600 
    157 H157        2.9892  -17.8487  -39.2007 H         1 UNK         0.0600 
    158 H158        3.8418  -17.5765  -40.7188 H         1 UNK         0.0600 
    159 H159        1.5303  -18.3645  -41.2320 H         1 UNK         0.3000 
    160 H160       -0.7039  -20.6692  -42.8770 H         1 UNK         0.0600 
    161 H161       -1.0938  -18.4796  -40.7711 H         1 UNK         0.0600 
    162 H162       -1.6251  -20.1491  -40.6094 H         1 UNK         0.0600 
    163 H163       -2.3289  -19.1247  -41.8497 H         1 UNK         0.0600 
    164 H164       -0.4558  -17.8451  -43.0907 H         1 UNK         0.3000 
    165 H165        1.9272  -17.8349  -45.7925 H         1 UNK         0.0600 
    166 H166        0.1332  -16.4167  -46.7665 H         1 UNK         0.0600 
    167 H167       -0.3109  -18.1107  -46.8493 H         1 UNK         0.0600 
    168 H168       -1.0367  -17.0731  -45.6253 H         1 UNK         0.0600 
    169 H169        0.6656  -15.6926  -44.4246 H         1 UNK         0.3000 
    170 H170        3.0662  -15.3216  -41.7880 H         1 UNK         0.0600 
    171 H171        3.9352  -14.1140  -43.7725 H         1 UNK         0.0600 
    172 H172        2.3068  -13.6640  -44.2546 H         1 UNK         0.0600 
    173 H173        2.9947  -13.0300  -42.7596 H         1 UNK         0.0600 
    174 H174        0.5797  -14.0253  -42.4756 H         1 UNK         0.3000 
    175 H175       -1.4831  -15.9591  -40.3020 H         1 UNK         0.0600 
    176 H176       -0.3323  -14.3288  -38.7986 H         1 UNK         0.0600 
    177 H177       -0.4246  -13.0918  -40.0467 H         1 UNK         0.0600 
    178 H178       -1.8989  -13.7254  -39.3143 H         1 UNK         0.0600 
    179 H179       -1.9745  -13.6365  -41.9037 H         1 UNK         0.3000 
    180 H180       -2.8487  -15.3520  -44.9042 H         1 UNK         0.0600 
    181 H181       -4.8704  -15.4785  -43.4367 H         1 UNK         0.0600 
    182 H182       -4.5569  -13.8496  -42.8495 H         1 UNK         0.0600 
    183 H183       -4.9610  -14.1198  -44.5452 H         1 UNK         0.0600 
    184 H184       -2.9625  -12.6096  -44.3662 H         1 UNK         0.3000 
    185 H185       -1.5452  -11.2546  -45.5393 H         1 UNK         0.0600 
    186 H186       -0.7213  -11.0186  -43.1875 H         1 UNK         0.0600 
    187 H187        0.8680  -11.6017  -43.6657 H         1 UNK         0.0600 
    188 H188        0.2621  -10.0684  -44.2890 H         1 UNK         0.0600 
    189 H189        1.2708  -11.7565  -46.0753 H         1 UNK         0.3000 
    190 H190        0.0836  -23.9527  -49.2847 H         1 UNK         0.3000 
    191 H191       -2.2463  -24.9333  -48.0545 H         1 UNK         0.0600 
    192 H192       -1.5624  -24.6748  -51.0365 H         1 UNK         0.0600 
    193 H193       -2.8227  -25.7037  -50.3662 H         1 UNK         0.0600 
    194 H194       -1.1393  -26.0285  -49.9881 H         1 UNK         0.0600 
    195 H195       -1.7523  -22.0172  -49.9677 H         1 UNK         0.3000 
    196 H196       -4.4209  -21.3170  -50.5252 H         1 UNK         0.0600 
    197 H197       -3.4448  -19.0547  -50.9430 H         1 UNK         0.0600 
    198 H198       -2.4462  -20.3093  -51.6529 H         1 UNK         0.0600 
    199 H199       -1.9479  -19.5345  -50.1485 H         1 UNK         0.0600 
    200 H200       -2.6056  -21.0089  -47.5065 H         1 UNK         0.3000 
    201 H201       -4.3091  -18.9966  -46.3065 H         1 UNK         0.0600 
    202 H202       -3.0598  -19.5211  -44.2624 H         1 UNK         0.0600 
    203 H203       -2.4094  -20.9955  -44.9674 H         1 UNK         0.0600 
    204 H204       -1.9318  -19.4263  -45.6035 H         1 UNK         0.0600 
    205 H205       -4.3177  -22.5300  -46.5191 H         1 UNK         0.3000 
    206 H206       -6.5000  -22.8690  -44.5730 H         1 UNK         0.0600 
    207 H207       -4.6927  -24.5626  -44.6949 H         1 UNK         0.0600 
    208 H208       -6.2325  -25.2755  -45.1510 H         1 UNK         0.0600 
    209 H209       -5.0538  -24.8691  -46.3925 H         1 UNK         0.0600 
    210 H210       -5.9539  -23.1408  -48.1130 H         1 UNK         0.3000 
    211 H211       -8.6155  -23.9915  -48.7245 H         1 UNK         0.0600 
    212 H212       -7.8240  -23.7336  -51.0715 H         1 UNK         0.0600 
    213 H213       -6.5968  -24.5342  -50.0998 H         1 UNK         0.0600 
    214 H214       -6.4222  -22.8281  -50.5130 H         1 UNK         0.0600 
    215 H215       -7.1733  -20.8065  -48.4641 H         1 UNK         0.3000 
    216 H216       -7.8530  -18.7366  -48.5839 H         1 UNK         0.0600 
    217 H217      -10.1942  -18.0281  -48.6951 H         1 UNK         0.0600 
    218 H218      -10.0476  -19.3623  -47.5611 H         1 UNK         0.0600 
    219 H219      -10.7220  -19.6328  -49.1688 H         1 UNK         0.0600 
    220 H220       -8.8514  -20.8346  -51.2010 H         1 UNK         0.3000 
    221 H221       -8.5985  -18.9131  -53.3676 H         1 UNK         0.0600 
    222 H222       -8.4922  -21.9881  -53.3215 H         1 UNK         0.0600 
    223 H223       -9.9549  -21.0279  -53.5326 H         1 UNK         0.0600 
    224 H224       -8.7007  -20.9921  -54.7576 H         1 UNK         0.0600 
    225 H225       -6.9207  -19.4736  -55.1403 H         1 UNK         0.3000 
    226 H226       -4.3390  -18.8526  -54.2256 H         1 UNK         0.0600 
    227 H227       -3.7171  -19.1273  -56.6256 H         1 UNK         0.0600 
    228 H228       -5.2374  -19.9467  -56.9448 H         1 UNK         0.0600 
    229 H229       -5.2255  -18.2477  -56.4676 H         1 UNK         0.0600 
    230 H230       -5.7490  -21.9927  -54.9266 H         1 UNK         0.3000 
    231 H231       -5.1391  -24.1077  -54.6467 H         1 UNK         0.0600 
    232 H232       -5.1345  -23.4184  -52.3055 H         1 UNK         0.0600 
    233 H233       -3.4629  -22.8903  -52.3844 H         1 UNK         0.0600 
    234 H234       -3.8626  -24.6016  -52.5376 H         1 UNK         0.0600 
    235 H235       -1.9136  -23.3630  -53.5487 H         1 UNK         0.3000 
    236 H236       -0.6499  -25.0352  -55.5325 H         1 UNK         0.0600 
    237 H237        0.1712  -24.8886  -53.1888 H         1 UNK         0.0600 
    238 H238        1.4239  -24.3702  -54.3053 H         1 UNK         0.0600 
    239 H239        0.5175  -23.1702  -53.3924 H         1 UNK         0.0600 
    240 H240       -1.3277  -21.5910  -55.2894 H         1 UNK         0.3000 
    241 H241        0.6156  -20.8160  -57.3555 H         1 UNK         0.0600 
    242 H242        0.0548  -20.1662  -59.5221 H         1 UNK         0.3800 
    243 H243       -1.5070  -20.5389  -60.1933 H         1 UNK         0.3800 
    244 H244       -0.4591  -18.5378  -57.0811 H         1 UNK         0.0800 
    245 H245       -1.5022  -19.1960  -55.8518 H         1 UNK         0.0800 
    246 H246       -0.3800  -20.2164  -53.3910 H         1 UNK         0.0800 
    247 H247       -1.0155  -18.5957  -53.5642 H         1 UNK         0.0800 
@<TRIPOS>BOND
     1    1    2 1    
     2    1  127 1    
     3    1  128 1    
     4    1  129 1    
     5    2    3 2    
     6    2    4 am   BACKBONE|DICT|INTERRES
     7    4    5 1    
     8    4  130 1    
     9    5    6 1    
    10    5   65 1    
    11    5  131 1    
    12    6    7 1    
    13    6  132 1    
    14    6  133 1    
    15    7    8 1    
    16    8    9 1    
    17    8  134 1    
    18    8  135 1    
    19    9   10 ar   
    20    9   14 ar   
    21   10   11 ar   
    22   10  136 1    
    23   11   12 ar   
    24   11  126 1    
    25   12   13 ar   
    26   12  137 1    
    27   13   14 ar   
    28   13   15 1    
    29   14  138 1    
    30   15   16 1    
    31   15  139 1    
    32   15  140 1    
    33   16   17 1    
    34   17   18 1    
    35   17  141 1    
    36   17  142 1    
    37   18   19 1    
    38   18   67 1    
    39   18  143 1    
    40   19   20 am   BACKBONE|DICT|INTERRES
    41   19  144 1    
    42   20   21 2    
    43   20   22 1    
    44   22   23 1    
    45   22   24 1    
    46   22  145 1    
    47   23  146 1    
    48   23  147 1    
    49   23  148 1    
    50   24   25 am   BACKBONE|DICT|INTERRES
    51   24  149 1    
    52   25   26 2    
    53   25   27 1    
    54   27   28 1    
    55   27   29 1    
    56   27  150 1    
    57   28  151 1    
    58   28  152 1    
    59   28  153 1    
    60   29   30 am   BACKBONE|DICT|INTERRES
    61   29  154 1    
    62   30   31 2    
    63   30   32 1    
    64   32   33 1    
    65   32   34 1    
    66   32  155 1    
    67   33  156 1    
    68   33  157 1    
    69   33  158 1    
    70   34   35 am   BACKBONE|DICT|INTERRES
    71   34  159 1    
    72   35   36 2    
    73   35   37 1    
    74   37   38 1    
    75   37   39 1    
    76   37  160 1    
    77   38  161 1    
    78   38  162 1    
    79   38  163 1    
    80   39   40 am   BACKBONE|DICT|INTERRES
    81   39  164 1    
    82   40   41 2    
    83   40   42 1    
    84   42   43 1    
    85   42   44 1    
    86   42  165 1    
    87   43  166 1    
    88   43  167 1    
    89   43  168 1    
    90   44   45 am   BACKBONE|DICT|INTERRES
    91   44  169 1    
    92   45   46 2    
    93   45   47 1    
    94   47   48 1    
    95   47   49 1    
    96   47  170 1    
    97   48  171 1    
    98   48  172 1    
    99   48  173 1    
   100   49   50 am   BACKBONE|DICT|INTERRES
   101   49  174 1    
   102   50   51 2    
   103   50   52 1    
   104   52   53 1    
   105   52   54 1    
   106   52  175 1    
   107   53  176 1    
   108   53  177 1    
   109   53  178 1    
   110   54   55 am   BACKBONE|DICT|INTERRES
   111   54  179 1    
   112   55   56 2    
   113   55   57 1    
   114   57   58 1    
   115   57   59 1    
   116   57  180 1    
   117   58  181 1    
   118   58  182 1    
   119   58  183 1    
   120   59   60 am   BACKBONE|DICT|INTERRES
   121   59  184 1    
   122   60   61 2    
   123   60   62 1    
   124   62   63 1    
   125   62   64 1    
   126   62  185 1    
   127   63  186 1    
   128   63  187 1    
   129   63  188 1    
   130   64   65 am   BACKBONE|DICT|INTERRES
   131   64  189 1    
   132   65   66 2    
   133   67   68 2    
   134   67   69 am   BACKBONE|DICT|INTERRES
   135   69   70 1    
   136   69  190 1    
   137   70   71 1    
   138   70   72 1    
   139   70  191 1    
   140   71  192 1    
   141   71  193 1    
   142   71  194 1    
   143   72   73 2    
   144   72   74 am   BACKBONE|DICT|INTERRES
   145   74   75 1    
   146   74  195 1    
   147   75   76 1    
   148   75   77 1    
   149   75  196 1    
   150   76  197 1    
   151   76  198 1    
   152   76  199 1    
   153   77   78 2    
   154   77   79 am   BACKBONE|DICT|INTERRES
   155   79   80 1    
   156   79  200 1    
   157   80   81 1    
   158   80   82 1    
   159   80  201 1    
   160   81  202 1    
   161   81  203 1    
   162   81  204 1    
   163   82   83 2    
   164   82   84 am   BACKBONE|DICT|INTERRES
   165   84   85 1    
   166   84  205 1    
   167   85   86 1    
   168   85   87 1    
   169   85  206 1    
   170   86  207 1    
   171   86  208 1    
   172   86  209 1    
   173   87   88 2    
   174   87   89 am   BACKBONE|DICT|INTERRES
   175   89   90 1    
   176   89  210 1    
   177   90   91 1    
   178   90   92 1    
   179   90  211 1    
   180   91  212 1    
   181   91  213 1    
   182   91  214 1    
   183   92   93 2    
   184   92   94 am   BACKBONE|DICT|INTERRES
   185   94   95 1    
   186   94  215 1    
   187   95   96 1    
   188   95   97 1    
   189   95  216 1    
   190   96  217 1    
   191   96  218 1    
   192   96  219 1    
   193   97   98 2    
   194   97   99 am   BACKBONE|DICT|INTERRES
   195   99  100 1    
   196   99  220 1    
   197  100  101 1    
   198  100  102 1    
   199  100  221 1    
   200  101  222 1    
   201  101  223 1    
   202  101  224 1    
   203  102  103 2    
   204  102  104 am   BACKBONE|DICT|INTERRES
   205  104  105 1    
   206  104  225 1    
   207  105  106 1    
   208  105  107 1    
   209  105  226 1    
   210  106  227 1    
   211  106  228 1    
   212  106  229 1    
   213  107  108 2    
   214  107  109 am   BACKBONE|DICT|INTERRES
   215  109  110 1    
   216  109  230 1    
   217  110  111 1    
   218  110  112 1    
   219  110  231 1    
   220  111  232 1    
   221  111  233 1    
   222  111  234 1    
   223  112  113 2    
   224  112  114 am   BACKBONE|DICT|INTERRES
   225  114  115 1    
   226  114  235 1    
   227  115  116 1    
   228  115  117 1    
   229  115  236 1    
   230  116  237 1    
   231  116  238 1    
   232  116  239 1    
   233  117  118 2    
   234  117  119 am   BACKBONE|DICT|INTERRES
   235  119  120 1    
   236  119  240 1    
   237  120  121 1    
   238  120  124 1    
   239  120  241 1    
   240  121  122 am   BACKBONE|DICT|INTERRES
   241  121  123 2    
   242  122  242 1    
   243  122  243 1    
   244  124  125 1    
   245  124  244 1    
   246  124  245 1    
   247  125  126 1    
   248  126  246 1    
   249  126  247 1    
@<TRIPOS>SUBSTRUCTURE
     1 UNK         1 GROUP             0       ****    0 ROOT    
