@<TRIPOS>MOLECULE
3R540
247   249    1
SMALL
USER_CHARGES


@<TRIPOS>ATOM
      1 CA          3.0342  -14.0865  -42.6984 C.3       0 UNK        -0.1800 
      2 C           2.7134  -13.9123  -44.1753 C.2       0 UNK         0.5000 
      3 O           1.6663  -14.3737  -44.6250 O.2       0 UNK        -0.5000 
      4 N           3.6127  -13.2623  -44.9185 N.am      1 UNK        -0.5000 
      5 CA          3.4478  -12.8785  -46.3202 C.3       1 UNK         0.1400 
      6 C6          4.2455  -13.7855  -47.2927 C.3       23 UNK        -0.0398 
      7 S7          3.4680  -15.4130  -47.5419 S.3       23 UNK        -0.2404 
      8 C8          4.7947  -16.2608  -48.4506 C.3       23 UNK        -0.0205 
      9 C9          4.3256  -17.5762  -49.0549 C.ar      23 UNK        -0.0193 
     10 C10         3.5520  -17.5701  -50.2194 C.ar      23 UNK        -0.1150 
     11 C11         3.1529  -18.7693  -50.8163 C.ar      23 UNK        -0.0193 
     12 C12         3.5555  -19.9824  -50.2505 C.ar      23 UNK        -0.1150 
     13 C13         4.3154  -20.0050  -49.0772 C.ar      23 UNK        -0.0193 
     14 C14         4.6931  -18.7974  -48.4802 C.ar      23 UNK        -0.1150 
     15 C15         4.7525  -21.3340  -48.4750 C.3       23 UNK        -0.0205 
     16 S16         3.5704  -21.9648  -47.2410 S.3       23 UNK        -0.2404 
     17 C17         2.1409  -22.3848  -48.2926 C.3       23 UNK        -0.0398 
     18 CA          1.0876  -23.2500  -47.5592 C.3       11 UNK         0.1400 
     19 N           0.3873  -22.5178  -46.4968 N.am      11 UNK        -0.5000 
     20 C          -0.4930  -23.0611  -45.6431 C.2       10 UNK         0.5000 
     21 O          -0.7727  -24.2597  -45.6234 O.2       10 UNK        -0.5000 
     22 CA         -1.2177  -22.1089  -44.6740 C.3       10 UNK         0.1400 
     23 CB         -0.3246  -21.7567  -43.4754 C.3       10 UNK        -0.1800 
     24 N          -1.6903  -20.8857  -45.3235 N.am      10 UNK        -0.5000 
     25 C          -2.6321  -20.8498  -46.2781 C.2       9 UNK         0.5000 
     26 O          -3.2317  -21.8445  -46.6841 O.2       9 UNK        -0.5000 
     27 CA         -2.9256  -19.4810  -46.9197 C.3       9 UNK         0.1400 
     28 CB         -3.8299  -18.6324  -46.0140 C.3       9 UNK        -0.1800 
     29 N          -1.7136  -18.7258  -47.2303 N.am      9 UNK        -0.5000 
     30 C          -0.7250  -19.1506  -48.0306 C.2       8 UNK         0.5000 
     31 O          -0.7358  -20.2247  -48.6301 O.2       8 UNK        -0.5000 
     32 CA          0.5191  -18.2488  -48.1020 C.3       8 UNK         0.1400 
     33 CB          0.2519  -17.0083  -48.9697 C.3       8 UNK        -0.1800 
     34 N           0.9666  -17.8348  -46.7709 N.am      8 UNK        -0.5000 
     35 C           1.3638  -18.6810  -45.8096 C.2       7 UNK         0.5000 
     36 O           1.4252  -19.8991  -45.9530 O.2       7 UNK        -0.5000 
     37 CA          1.6662  -18.0793  -44.4293 C.3       7 UNK         0.1400 
     38 CB          3.1016  -17.5421  -44.3517 C.3       7 UNK        -0.1800 
     39 N           0.7001  -17.0397  -44.0710 N.am      7 UNK        -0.5000 
     40 C          -0.5701  -17.3088  -43.7356 C.2       6 UNK         0.5000 
     41 O          -1.0276  -18.4497  -43.6655 O.2       6 UNK        -0.5000 
     42 CA         -1.4965  -16.1123  -43.4568 C.3       6 UNK         0.1400 
     43 CB         -1.3475  -15.6436  -42.0016 C.3       6 UNK        -0.1800 
     44 N          -1.2739  -14.9756  -44.3476 N.am      6 UNK        -0.5000 
     45 C          -1.4305  -14.9791  -45.6779 C.2       5 UNK         0.5000 
     46 O          -1.7755  -15.9734  -46.3177 O.2       5 UNK        -0.5000 
     47 CA         -1.1774  -13.6387  -46.3954 C.3       5 UNK         0.1400 
     48 CB         -1.9133  -13.5427  -47.7435 C.3       5 UNK        -0.1800 
     49 N          -1.5982  -12.5224  -45.5447 N.am      5 UNK        -0.5000 
     50 C          -0.8041  -11.5409  -45.1078 C.2       4 UNK         0.5000 
     51 O           0.3928  -11.4404  -45.3891 O.2       4 UNK        -0.5000 
     52 CA         -1.4517  -10.5206  -44.1576 C.3       4 UNK         0.1400 
     53 CB         -1.4111  -11.0448  -42.7129 C.3       4 UNK        -0.1800 
     54 N          -0.7053   -9.2686  -44.2245 N.am      4 UNK        -0.5000 
     55 C          -1.0705   -8.1826  -44.9165 C.2       3 UNK         0.5000 
     56 O          -2.1779   -8.0335  -45.4345 O.2       3 UNK        -0.5000 
     57 CA          0.0059   -7.0903  -45.0844 C.3       3 UNK         0.1400 
     58 CB         -0.0780   -6.0655  -43.9429 C.3       3 UNK        -0.1800 
     59 N           1.3617   -7.6479  -45.1350 N.am      3 UNK        -0.5000 
     60 C           1.8376   -8.3922  -46.1438 C.2       2 UNK         0.5000 
     61 O           1.2218   -8.5871  -47.1934 O.2       2 UNK        -0.5000 
     62 CA          3.2066   -9.0630  -45.9486 C.3       2 UNK         0.1400 
     63 CB          3.9348   -8.6786  -44.6420 C.3       2 UNK        -0.1800 
     64 N           2.9986  -10.5062  -45.9942 N.am      2 UNK        -0.5000 
     65 C           3.8932  -11.4094  -46.4014 C.2       1 UNK         0.5000 
     66 O           5.0370  -11.1261  -46.7638 O.2       1 UNK        -0.5000 
     67 C           0.1009  -23.8647  -48.5721 C.2       11 UNK         0.5000 
     68 O           0.2426  -25.0378  -48.9184 O.2       11 UNK        -0.5000 
     69 N          -0.8987  -23.0816  -48.9997 N.am      12 UNK        -0.5000 
     70 CA         -1.9693  -23.5297  -49.8872 C.3       12 UNK         0.1400 
     71 CB         -2.8054  -22.3288  -50.3342 C.3       12 UNK        -0.1800 
     72 C          -2.8538  -24.6136  -49.2506 C.2       12 UNK         0.5000 
     73 O          -3.1299  -25.6175  -49.9051 O.2       12 UNK        -0.5000 
     74 N          -3.2358  -24.4285  -47.9790 N.am      13 UNK        -0.5000 
     75 CA         -4.0018  -25.4025  -47.1996 C.3       13 UNK         0.1400 
     76 CB         -4.3896  -24.7976  -45.8424 C.3       13 UNK        -0.1800 
     77 C          -3.2556  -26.7370  -47.0133 C.2       13 UNK         0.5000 
     78 O          -3.8641  -27.7953  -47.1724 O.2       13 UNK        -0.5000 
     79 N          -1.9445  -26.6696  -46.7386 N.am      14 UNK        -0.5000 
     80 CA         -1.0506  -27.8276  -46.6439 C.3       14 UNK         0.1400 
     81 CB          0.3163  -27.3768  -46.1073 C.3       14 UNK        -0.1800 
     82 C          -0.8908  -28.5808  -47.9799 C.2       14 UNK         0.5000 
     83 O          -0.7732  -29.8065  -47.9762 O.2       14 UNK        -0.5000 
     84 N          -0.9290  -27.8418  -49.0965 N.am      15 UNK        -0.5000 
     85 CA         -0.9266  -28.3706  -50.4625 C.3       15 UNK         0.1400 
     86 CB         -0.4027  -27.2794  -51.4112 C.3       15 UNK        -0.1800 
     87 C          -2.3075  -28.8848  -50.9288 C.2       15 UNK         0.5000 
     88 O          -2.4015  -29.4134  -52.0374 O.2       15 UNK        -0.5000 
     89 N          -3.3459  -28.7163  -50.0951 N.am      16 UNK        -0.5000 
     90 CA         -4.7553  -29.0495  -50.3304 C.3       16 UNK         0.1400 
     91 CB         -4.9467  -30.5680  -50.5288 C.3       16 UNK        -0.1800 
     92 C          -5.4124  -28.2016  -51.4421 C.2       16 UNK         0.5000 
     93 O          -6.3555  -28.6588  -52.0913 O.2       16 UNK        -0.5000 
     94 N          -4.9192  -26.9721  -51.6247 N.am      17 UNK        -0.5000 
     95 CA         -5.4938  -25.9436  -52.4860 C.3       17 UNK         0.1400 
     96 CB         -4.3401  -25.1696  -53.1475 C.3       17 UNK        -0.1800 
     97 C          -6.3869  -25.0013  -51.6563 C.2       17 UNK         0.5000 
     98 O          -6.4176  -25.0909  -50.4253 O.2       17 UNK        -0.5000 
     99 N          -7.0996  -24.1005  -52.3452 N.am      18 UNK        -0.5000 
    100 CA        -7.8961  -23.0380  -51.7297 C.3       18 UNK         0.1400 
    101 CB        -8.7473  -22.3486  -52.8074 C.3       18 UNK        -0.1800 
    102 C         -6.9893  -22.0194  -51.0151 C.2       18 UNK         0.5000 
    103 O         -6.0457  -21.5159  -51.6250 O.2       18 UNK        -0.5000 
    104 N         -7.2982  -21.7267  -49.7474 N.am      19 UNK        -0.5000 
    105 CA        -6.4837  -20.9109  -48.8414 C.3       19 UNK         0.1400 
    106 CB        -6.7694  -21.3589  -47.3976 C.3       19 UNK        -0.1800 
    107 C         -6.6552  -19.3857  -49.0231 C.2       19 UNK         0.5000 
    108 O         -6.3563  -18.6253  -48.1010 O.2       19 UNK        -0.5000 
    109 N         -7.1162  -18.9429  -50.2001 N.am      20 UNK        -0.5000 
    110 CA        -7.1956  -17.5387  -50.6084 C.3       20 UNK         0.1400 
    111 CB        -8.2281  -17.4139  -51.7427 C.3       20 UNK        -0.1800 
    112 C         -5.7959  -17.0378  -51.0186 C.2       20 UNK         0.5000 
    113 O         -5.5226  -16.8545  -52.2079 O.2       20 UNK        -0.5000 
    114 N         -4.9066  -16.9233  -50.0203 N.am      21 UNK        -0.5000 
    115 CA        -3.4491  -16.8462  -50.1589 C.3       21 UNK         0.1400 
    116 CB        -3.0170  -15.4937  -50.7691 C.3       21 UNK        -0.1800 
    117 C         -2.9466  -18.0918  -50.9213 C.2       21 UNK         0.5000 
    118 O         -3.3378  -19.1977  -50.5514 O.2       21 UNK        -0.5000 
    119 N         -2.1599  -17.8963  -51.9843 N.am      22 UNK        -0.5000 
    120 CA        -1.8066  -18.9370  -52.9662 C.3       22 UNK         0.1400 
    121 C         -2.6374  -18.8197  -54.2805 C.2       22 UNK         0.5000 
    122 N         -3.7328  -18.0679  -54.3210 N.am      22 UNK        -0.7600 
    123 O         -2.2941  -19.4302  -55.2893 O.2       22 UNK        -0.5000 
    124 C124       -0.2780  -18.9875  -53.2339 C.3       23 UNK        -0.0398 
    125 S125        0.6506  -19.4792  -51.7441 S.3       23 UNK        -0.2404 
    126 C126        2.2875  -18.7548  -52.0685 C.3       23 UNK        -0.0205 
    127 H127        2.4926  -13.3455  -42.1106 H         1 UNK         0.0600 
    128 H128        4.1003  -13.9715  -42.5021 H         1 UNK         0.0600 
    129 H129        2.7318  -15.0766  -42.3578 H         1 UNK         0.0600 
    130 H130        4.4474  -12.8996  -44.4791 H         1 UNK         0.3000 
    131 H131        2.3935  -12.9100  -46.6044 H         1 UNK         0.0600 
    132 H132        5.2683  -13.9238  -46.9379 H         1 UNK         0.0800 
    133 H133        4.3212  -13.3176  -48.2760 H         1 UNK         0.0800 
    134 H134        5.1591  -15.6129  -49.2493 H         1 UNK         0.0800 
    135 H135        5.6385  -16.4263  -47.7791 H         1 UNK         0.0800 
    136 H136        3.2589  -16.6261  -50.6570 H         1 UNK         0.1150 
    137 H137        3.2589  -20.9108  -50.7179 H         1 UNK         0.1150 
    138 H138        5.2879  -18.8097  -47.5777 H         1 UNK         0.1150 
    139 H139        4.8941  -22.0782  -49.2601 H         1 UNK         0.0800 
    140 H140        5.7252  -21.2150  -47.9957 H         1 UNK         0.0800 
    141 H141        2.5224  -22.9100  -49.1704 H         1 UNK         0.0800 
    142 H142        1.6881  -21.4612  -48.6563 H         1 UNK         0.0800 
    143 H143        1.6084  -24.0839  -47.0837 H         1 UNK         0.0600 
    144 H144        0.6094  -21.5280  -46.4124 H         1 UNK         0.3000 
    145 H145       -2.0943  -22.6354  -44.2912 H         1 UNK         0.0600 
    146 H146       -0.8610  -21.1435  -42.7510 H         1 UNK         0.0600 
    147 H147        0.0054  -22.6582  -42.9579 H         1 UNK         0.0600 
    148 H148        0.5670  -21.2100  -43.7810 H         1 UNK         0.0600 
    149 H149       -1.2670  -20.0162  -45.0182 H         1 UNK         0.3000 
    150 H150       -3.4532  -19.6612  -47.8580 H         1 UNK         0.0600 
    151 H151       -4.7490  -19.1631  -45.7663 H         1 UNK         0.0600 
    152 H152       -4.1153  -17.7020  -46.5053 H         1 UNK         0.0600 
    153 H153       -3.3380  -18.3770  -45.0760 H         1 UNK         0.0600 
    154 H154       -1.6240  -17.8136  -46.7896 H         1 UNK         0.3000 
    155 H155        1.3250  -18.8252  -48.5594 H         1 UNK         0.0600 
    156 H156        1.1435  -16.3921  -49.0699 H         1 UNK         0.0600 
    157 H157       -0.0550  -17.2926  -49.9749 H         1 UNK         0.0600 
    158 H158       -0.5381  -16.3863  -48.5555 H         1 UNK         0.0600 
    159 H159        0.9301  -16.8484  -46.5614 H         1 UNK         0.3000 
    160 H160        1.5844  -18.8857  -43.6973 H         1 UNK         0.0600 
    161 H161        3.2505  -16.6892  -45.0096 H         1 UNK         0.0600 
    162 H162        3.8201  -18.3088  -44.6447 H         1 UNK         0.0600 
    163 H163        3.3522  -17.2335  -43.3373 H         1 UNK         0.0600 
    164 H164        0.9941  -16.0708  -44.1724 H         1 UNK         0.3000 
    165 H165       -2.5243  -16.4502  -43.6038 H         1 UNK         0.0600 
    166 H166       -2.0640  -14.8568  -41.7648 H         1 UNK         0.0600 
    167 H167       -1.5261  -16.4650  -41.3063 H         1 UNK         0.0600 
    168 H168       -0.3465  -15.2573  -41.8045 H         1 UNK         0.0600 
    169 H169       -0.9242  -14.1301  -43.9222 H         1 UNK         0.3000 
    170 H170       -0.1048  -13.5916  -46.5928 H         1 UNK         0.0600 
    171 H171       -1.5580  -14.3020  -48.4386 H         1 UNK         0.0600 
    172 H172       -2.9891  -13.6783  -47.6263 H         1 UNK         0.0600 
    173 H173       -1.7460  -12.5742  -48.2147 H         1 UNK         0.0600 
    174 H174       -2.5614  -12.5455  -45.2389 H         1 UNK         0.3000 
    175 H175       -2.4920  -10.3659  -44.4517 H         1 UNK         0.0600 
    176 H176       -1.9803  -11.9699  -42.6139 H         1 UNK         0.0600 
    177 H177       -0.3908  -11.2502  -42.3858 H         1 UNK         0.0600 
    178 H178       -1.8448  -10.3225  -42.0211 H         1 UNK         0.0600 
    179 H179        0.2470   -9.3149  -43.8941 H         1 UNK         0.3000 
    180 H180       -0.1887   -6.5716  -46.0255 H         1 UNK         0.0600 
    181 H181        0.1222   -6.5235  -42.9734 H         1 UNK         0.0600 
    182 H182       -1.0708   -5.6163  -43.8950 H         1 UNK         0.0600 
    183 H183        0.6373   -5.2555  -44.0866 H         1 UNK         0.0600 
    184 H184        1.9361   -7.5198  -44.3145 H         1 UNK         0.3000 
    185 H185        3.8256   -8.7583  -46.7950 H         1 UNK         0.0600 
    186 H186        4.0878   -7.6007  -44.5753 H         1 UNK         0.0600 
    187 H187        3.3833   -9.0001  -43.7576 H         1 UNK         0.0600 
    188 H188        4.9213   -9.1402  -44.5964 H         1 UNK         0.0600 
    189 H189        2.0609  -10.8247  -45.7459 H         1 UNK         0.3000 
    190 H190       -0.9267  -22.1071  -48.7055 H         1 UNK         0.3000 
    191 H191       -1.5059  -23.9629  -50.7758 H         1 UNK         0.0600 
    192 H192       -3.2239  -21.7932  -49.4826 H         1 UNK         0.0600 
    193 H193       -3.6334  -22.6352  -50.9737 H         1 UNK         0.0600 
    194 H194       -2.1965  -21.6248  -50.9002 H         1 UNK         0.0600 
    195 H195       -3.0076  -23.5527  -47.5153 H         1 UNK         0.3000 
    196 H196       -4.9207  -25.6121  -47.7517 H         1 UNK         0.0600 
    197 H197       -4.9765  -25.5033  -45.2533 H         1 UNK         0.0600 
    198 H198       -4.9937  -23.8994  -45.9697 H         1 UNK         0.0600 
    199 H199       -3.5113  -24.5289  -45.2554 H         1 UNK         0.0600 
    200 H200       -1.5257  -25.7579  -46.5722 H         1 UNK         0.3000 
    201 H201       -1.4845  -28.5241  -45.9236 H         1 UNK         0.0600 
    202 H202        0.2207  -26.9160  -45.1240 H         1 UNK         0.0600 
    203 H203        0.7902  -26.6527  -46.7704 H         1 UNK         0.0600 
    204 H204        0.9956  -28.2239  -46.0053 H         1 UNK         0.0600 
    205 H205       -0.9788  -26.8332  -49.0067 H         1 UNK         0.3000 
    206 H206       -0.2363  -29.2152  -50.5079 H         1 UNK         0.0600 
    207 H207       -1.0655  -26.4145  -51.4359 H         1 UNK         0.0600 
    208 H208       -0.3158  -27.6540  -52.4317 H         1 UNK         0.0600 
    209 H209        0.5858  -26.9341  -51.1077 H         1 UNK         0.0600 
    210 H210       -3.1636  -28.2505  -49.2148 H         1 UNK         0.3000 
    211 H211       -5.2765  -28.7775  -49.4117 H         1 UNK         0.0600 
    212 H212       -4.5274  -30.9113  -51.4747 H         1 UNK         0.0600 
    213 H213       -6.0050  -30.8312  -50.5282 H         1 UNK         0.0600 
    214 H214       -4.4734  -31.1330  -49.7257 H         1 UNK         0.0600 
    215 H215       -4.1983  -26.6414  -50.9855 H         1 UNK         0.3000 
    216 H216       -6.1043  -26.4005  -53.2673 H         1 UNK         0.0600 
    217 H217       -3.7246  -24.6539  -52.4105 H         1 UNK         0.0600 
    218 H218       -4.7129  -24.4192  -53.8453 H         1 UNK         0.0600 
    219 H219       -3.6907  -25.8400  -53.7109 H         1 UNK         0.0600 
    220 H220       -7.0061  -24.0643  -53.3496 H         1 UNK         0.3000 
    221 H221       -8.5692  -23.4945  -51.0007 H         1 UNK         0.0600 
    222 H222       -9.4188  -23.0569  -53.2930 H         1 UNK         0.0600 
    223 H223       -8.1275  -21.8899  -53.5791 H         1 UNK         0.0600 
    224 H224       -9.3649  -21.5618  -52.3723 H         1 UNK         0.0600 
    225 H225       -8.1128  -22.1585  -49.3353 H         1 UNK         0.3000 
    226 H226       -5.4325  -21.1230  -49.0441 H         1 UNK         0.0600 
    227 H227       -6.6122  -22.4313  -47.2810 H         1 UNK         0.0600 
    228 H228       -6.1039  -20.8642  -46.6906 H         1 UNK         0.0600 
    229 H229       -7.7943  -21.1327  -47.1014 H         1 UNK         0.0600 
    230 H230       -7.2554  -19.6289  -50.9284 H         1 UNK         0.3000 
    231 H231       -7.5408  -16.9324  -49.7683 H         1 UNK         0.0600 
    232 H232       -7.9562  -18.0218  -52.6067 H         1 UNK         0.0600 
    233 H233       -8.3129  -16.3803  -52.0805 H         1 UNK         0.0600 
    234 H234       -9.2173  -17.7293  -51.4103 H         1 UNK         0.0600 
    235 H235       -5.2362  -17.1946  -49.1000 H         1 UNK         0.3000 
    236 H236       -3.0357  -16.9079  -49.1512 H         1 UNK         0.0600 
    237 H237       -3.4260  -14.6626  -50.1946 H         1 UNK         0.0600 
    238 H238       -1.9319  -15.3859  -50.7579 H         1 UNK         0.0600 
    239 H239       -3.3536  -15.3742  -51.7992 H         1 UNK         0.0600 
    240 H240       -1.9138  -16.9516  -52.2401 H         1 UNK         0.3000 
    241 H241       -2.0837  -19.9154  -52.5715 H         1 UNK         0.0600 
    242 H242       -4.2527  -18.0116  -55.1821 H         1 UNK         0.3800 
    243 H243       -4.0986  -17.6085  -53.4943 H         1 UNK         0.3800 
    244 H244        0.0750  -18.0190  -53.5906 H         1 UNK         0.0800 
    245 H245       -0.0387  -19.7117  -54.0142 H         1 UNK         0.0800 
    246 H246        2.7825  -19.3154  -52.8625 H         1 UNK         0.0800 
    247 H247        2.1662  -17.7338  -52.4332 H         1 UNK         0.0800 
@<TRIPOS>BOND
     1    1    2 1    
     2    1  127 1    
     3    1  128 1    
     4    1  129 1    
     5    2    3 2    
     6    2    4 am   BACKBONE|DICT|INTERRES
     7    4    5 1    
     8    4  130 1    
     9    5    6 1    
    10    5   65 1    
    11    5  131 1    
    12    6    7 1    
    13    6  132 1    
    14    6  133 1    
    15    7    8 1    
    16    8    9 1    
    17    8  134 1    
    18    8  135 1    
    19    9   10 ar   
    20    9   14 ar   
    21   10   11 ar   
    22   10  136 1    
    23   11   12 ar   
    24   11  126 1    
    25   12   13 ar   
    26   12  137 1    
    27   13   14 ar   
    28   13   15 1    
    29   14  138 1    
    30   15   16 1    
    31   15  139 1    
    32   15  140 1    
    33   16   17 1    
    34   17   18 1    
    35   17  141 1    
    36   17  142 1    
    37   18   19 1    
    38   18   67 1    
    39   18  143 1    
    40   19   20 am   BACKBONE|DICT|INTERRES
    41   19  144 1    
    42   20   21 2    
    43   20   22 1    
    44   22   23 1    
    45   22   24 1    
    46   22  145 1    
    47   23  146 1    
    48   23  147 1    
    49   23  148 1    
    50   24   25 am   BACKBONE|DICT|INTERRES
    51   24  149 1    
    52   25   26 2    
    53   25   27 1    
    54   27   28 1    
    55   27   29 1    
    56   27  150 1    
    57   28  151 1    
    58   28  152 1    
    59   28  153 1    
    60   29   30 am   BACKBONE|DICT|INTERRES
    61   29  154 1    
    62   30   31 2    
    63   30   32 1    
    64   32   33 1    
    65   32   34 1    
    66   32  155 1    
    67   33  156 1    
    68   33  157 1    
    69   33  158 1    
    70   34   35 am   BACKBONE|DICT|INTERRES
    71   34  159 1    
    72   35   36 2    
    73   35   37 1    
    74   37   38 1    
    75   37   39 1    
    76   37  160 1    
    77   38  161 1    
    78   38  162 1    
    79   38  163 1    
    80   39   40 am   BACKBONE|DICT|INTERRES
    81   39  164 1    
    82   40   41 2    
    83   40   42 1    
    84   42   43 1    
    85   42   44 1    
    86   42  165 1    
    87   43  166 1    
    88   43  167 1    
    89   43  168 1    
    90   44   45 am   BACKBONE|DICT|INTERRES
    91   44  169 1    
    92   45   46 2    
    93   45   47 1    
    94   47   48 1    
    95   47   49 1    
    96   47  170 1    
    97   48  171 1    
    98   48  172 1    
    99   48  173 1    
   100   49   50 am   BACKBONE|DICT|INTERRES
   101   49  174 1    
   102   50   51 2    
   103   50   52 1    
   104   52   53 1    
   105   52   54 1    
   106   52  175 1    
   107   53  176 1    
   108   53  177 1    
   109   53  178 1    
   110   54   55 am   BACKBONE|DICT|INTERRES
   111   54  179 1    
   112   55   56 2    
   113   55   57 1    
   114   57   58 1    
   115   57   59 1    
   116   57  180 1    
   117   58  181 1    
   118   58  182 1    
   119   58  183 1    
   120   59   60 am   BACKBONE|DICT|INTERRES
   121   59  184 1    
   122   60   61 2    
   123   60   62 1    
   124   62   63 1    
   125   62   64 1    
   126   62  185 1    
   127   63  186 1    
   128   63  187 1    
   129   63  188 1    
   130   64   65 am   BACKBONE|DICT|INTERRES
   131   64  189 1    
   132   65   66 2    
   133   67   68 2    
   134   67   69 am   BACKBONE|DICT|INTERRES
   135   69   70 1    
   136   69  190 1    
   137   70   71 1    
   138   70   72 1    
   139   70  191 1    
   140   71  192 1    
   141   71  193 1    
   142   71  194 1    
   143   72   73 2    
   144   72   74 am   BACKBONE|DICT|INTERRES
   145   74   75 1    
   146   74  195 1    
   147   75   76 1    
   148   75   77 1    
   149   75  196 1    
   150   76  197 1    
   151   76  198 1    
   152   76  199 1    
   153   77   78 2    
   154   77   79 am   BACKBONE|DICT|INTERRES
   155   79   80 1    
   156   79  200 1    
   157   80   81 1    
   158   80   82 1    
   159   80  201 1    
   160   81  202 1    
   161   81  203 1    
   162   81  204 1    
   163   82   83 2    
   164   82   84 am   BACKBONE|DICT|INTERRES
   165   84   85 1    
   166   84  205 1    
   167   85   86 1    
   168   85   87 1    
   169   85  206 1    
   170   86  207 1    
   171   86  208 1    
   172   86  209 1    
   173   87   88 2    
   174   87   89 am   BACKBONE|DICT|INTERRES
   175   89   90 1    
   176   89  210 1    
   177   90   91 1    
   178   90   92 1    
   179   90  211 1    
   180   91  212 1    
   181   91  213 1    
   182   91  214 1    
   183   92   93 2    
   184   92   94 am   BACKBONE|DICT|INTERRES
   185   94   95 1    
   186   94  215 1    
   187   95   96 1    
   188   95   97 1    
   189   95  216 1    
   190   96  217 1    
   191   96  218 1    
   192   96  219 1    
   193   97   98 2    
   194   97   99 am   BACKBONE|DICT|INTERRES
   195   99  100 1    
   196   99  220 1    
   197  100  101 1    
   198  100  102 1    
   199  100  221 1    
   200  101  222 1    
   201  101  223 1    
   202  101  224 1    
   203  102  103 2    
   204  102  104 am   BACKBONE|DICT|INTERRES
   205  104  105 1    
   206  104  225 1    
   207  105  106 1    
   208  105  107 1    
   209  105  226 1    
   210  106  227 1    
   211  106  228 1    
   212  106  229 1    
   213  107  108 2    
   214  107  109 am   BACKBONE|DICT|INTERRES
   215  109  110 1    
   216  109  230 1    
   217  110  111 1    
   218  110  112 1    
   219  110  231 1    
   220  111  232 1    
   221  111  233 1    
   222  111  234 1    
   223  112  113 2    
   224  112  114 am   BACKBONE|DICT|INTERRES
   225  114  115 1    
   226  114  235 1    
   227  115  116 1    
   228  115  117 1    
   229  115  236 1    
   230  116  237 1    
   231  116  238 1    
   232  116  239 1    
   233  117  118 2    
   234  117  119 am   BACKBONE|DICT|INTERRES
   235  119  120 1    
   236  119  240 1    
   237  120  121 1    
   238  120  124 1    
   239  120  241 1    
   240  121  122 am   BACKBONE|DICT|INTERRES
   241  121  123 2    
   242  122  242 1    
   243  122  243 1    
   244  124  125 1    
   245  124  244 1    
   246  124  245 1    
   247  125  126 1    
   248  126  246 1    
   249  126  247 1    
@<TRIPOS>SUBSTRUCTURE
     1 UNK         1 GROUP             0       ****    0 ROOT    
