@<TRIPOS>MOLECULE
3R540
247   249    1
SMALL
USER_CHARGES


@<TRIPOS>ATOM
      1 CA          0.5155  -18.1954  -48.6680 C.3       0 UNK        -0.1800 
      2 C           1.4208  -16.9786  -48.5540 C.2       0 UNK         0.5000 
      3 O           1.5465  -16.3994  -47.4798 O.2       0 UNK        -0.5000 
      4 N           1.9956  -16.5348  -49.6763 N.am      1 UNK        -0.5000 
      5 CA          2.8646  -15.3555  -49.8454 C.3       1 UNK         0.1400 
      6 C6          4.1422  -15.3629  -48.9527 C.3       23 UNK        -0.0398 
      7 S7          5.2549  -16.8189  -48.9653 S.3       23 UNK        -0.2404 
      8 C8          5.2284  -17.5080  -50.6556 C.3       23 UNK        -0.0205 
      9 C9          4.2692  -18.6842  -50.7693 C.ar      23 UNK        -0.0193 
     10 C10         3.1973  -18.6393  -51.6619 C.ar      23 UNK        -0.1150 
     11 C11         2.2518  -19.6697  -51.6938 C.ar      23 UNK        -0.0193 
     12 C12         2.4233  -20.7834  -50.8632 C.ar      23 UNK        -0.1150 
     13 C13         3.5264  -20.8680  -50.0053 C.ar      23 UNK        -0.0193 
     14 C14         4.4444  -19.8155  -49.9670 C.ar      23 UNK        -0.1150 
     15 C15         3.7436  -22.1038  -49.1390 C.3       23 UNK        -0.0205 
     16 S16         3.8284  -21.7530  -47.3462 S.3       23 UNK        -0.2404 
     17 C17         2.1947  -21.0308  -46.9714 C.3       23 UNK        -0.0398 
     18 CA          1.0963  -22.0998  -46.7248 C.3       11 UNK         0.1400 
     19 N           0.2708  -21.8318  -45.5376 N.am      11 UNK        -0.5000 
     20 C          -0.5233  -22.7606  -44.9814 C.2       10 UNK         0.5000 
     21 O          -0.6383  -23.9063  -45.4180 O.2       10 UNK        -0.5000 
     22 CA         -1.3523  -22.3420  -43.7564 C.3       10 UNK         0.1400 
     23 CB         -0.4659  -22.2208  -42.5069 C.3       10 UNK        -0.1800 
     24 N          -2.1000  -21.1006  -43.9555 N.am      10 UNK        -0.5000 
     25 C          -3.0923  -20.9322  -44.8415 C.2       9 UNK         0.5000 
     26 O          -3.4295  -21.7823  -45.6630 O.2       9 UNK        -0.5000 
     27 CA         -3.8141  -19.5740  -44.8164 C.3       9 UNK         0.1400 
     28 CB         -4.8291  -19.5097  -43.6662 C.3       9 UNK        -0.1800 
     29 N          -2.8605  -18.4766  -44.6862 N.am      9 UNK        -0.5000 
     30 C          -2.1267  -18.0072  -45.7025 C.2       8 UNK         0.5000 
     31 O          -2.3334  -18.2983  -46.8805 O.2       8 UNK        -0.5000 
     32 CA         -0.9508  -17.0804  -45.3536 C.3       8 UNK         0.1400 
     33 CB         -1.2644  -15.6257  -45.7338 C.3       8 UNK        -0.1800 
     34 N          -0.5290  -17.1811  -43.9538 N.am      8 UNK        -0.5000 
     35 C           0.1325  -18.2404  -43.4550 C.2       7 UNK         0.5000 
     36 O           0.4554  -19.2128  -44.1412 O.2       7 UNK        -0.5000 
     37 CA          0.4525  -18.2585  -41.9462 C.3       7 UNK         0.1400 
     38 CB          1.9653  -18.2990  -41.6838 C.3       7 UNK        -0.1800 
     39 N          -0.1349  -17.1351  -41.2173 N.am      7 UNK        -0.5000 
     40 C          -1.4037  -17.0959  -40.7872 C.2       6 UNK         0.5000 
     41 O          -2.2022  -18.0208  -40.9423 O.2       6 UNK        -0.5000 
     42 CA         -1.8716  -15.7884  -40.1160 C.3       6 UNK         0.1400 
     43 CB         -1.6504  -15.8537  -38.5976 C.3       6 UNK        -0.1800 
     44 N          -1.2148  -14.5894  -40.6471 N.am      6 UNK        -0.5000 
     45 C          -1.2936  -14.1783  -41.9200 C.2       5 UNK         0.5000 
     46 O          -1.9497  -14.7701  -42.7754 O.2       5 UNK        -0.5000 
     47 CA         -0.4882  -12.9295  -42.3303 C.3       5 UNK         0.1400 
     48 CB          0.0089  -12.0814  -41.1383 C.3       5 UNK        -0.1800 
     49 N           0.6290  -13.2694  -43.2180 N.am      5 UNK        -0.5000 
     50 C           1.6530  -14.0982  -42.9558 C.2       4 UNK         0.5000 
     51 O           1.7472  -14.7538  -41.9166 O.2       4 UNK        -0.5000 
     52 CA          2.7653  -14.2260  -44.0211 C.3       4 UNK         0.1400 
     53 CB          2.8315  -15.6542  -44.5801 C.3       4 UNK        -0.1800 
     54 N           2.6337  -13.2927  -45.1430 N.am      4 UNK        -0.5000 
     55 C           2.9128  -11.9820  -45.0948 C.2       3 UNK         0.5000 
     56 O           3.3078  -11.4115  -44.0776 O.2       3 UNK        -0.5000 
     57 CA          2.7254  -11.1642  -46.3909 C.3       3 UNK         0.1400 
     58 CB          4.0902  -10.7675  -46.9754 C.3       3 UNK        -0.1800 
     59 N           1.9585  -11.8487  -47.4344 N.am      3 UNK        -0.5000 
     60 C           0.6556  -12.1505  -47.3892 C.2       2 UNK         0.5000 
     61 O          -0.0665  -11.8959  -46.4252 O.2       2 UNK        -0.5000 
     62 CA          0.0755  -12.9122  -48.5974 C.3       2 UNK         0.1400 
     63 CB         -0.2946  -11.9584  -49.7481 C.3       2 UNK        -0.1800 
     64 N           0.9285  -14.0195  -49.0512 N.am      2 UNK        -0.5000 
     65 C           2.1265  -14.0027  -49.6562 C.2       1 UNK         0.5000 
     66 O           2.6823  -12.9655  -50.0189 O.2       1 UNK        -0.5000 
     67 C           0.2263  -22.3174  -47.9794 C.2       11 UNK         0.5000 
     68 O           0.5358  -23.1859  -48.7925 O.2       11 UNK        -0.5000 
     69 N          -0.8765  -21.5643  -48.0927 N.am      12 UNK        -0.5000 
     70 CA         -1.8540  -21.7106  -49.1691 C.3       12 UNK         0.1400 
     71 CB         -2.8508  -20.5514  -49.1028 C.3       12 UNK        -0.1800 
     72 C          -2.5722  -23.0721  -49.1291 C.2       12 UNK         0.5000 
     73 O          -2.7275  -23.7022  -50.1743 O.2       12 UNK        -0.5000 
     74 N          -2.9444  -23.5296  -47.9249 N.am      13 UNK        -0.5000 
     75 CA         -3.5085  -24.8579  -47.6849 C.3       13 UNK         0.1400 
     76 CB         -4.0182  -24.9563  -46.2395 C.3       13 UNK        -0.1800 
     77 C          -2.5099  -25.9880  -47.9941 C.2       13 UNK         0.5000 
     78 O          -2.8969  -26.9759  -48.6179 O.2       13 UNK        -0.5000 
     79 N          -1.2393  -25.8076  -47.6029 N.am      14 UNK        -0.5000 
     80 CA         -0.1377  -26.7286  -47.9025 C.3       14 UNK         0.1400 
     81 CB          1.1170  -26.3047  -47.1244 C.3       14 UNK        -0.1800 
     82 C           0.1635  -26.8353  -49.4110 C.2       14 UNK         0.5000 
     83 O           0.4437  -27.9299  -49.9006 O.2       14 UNK        -0.5000 
     84 N           0.0568  -25.7065  -50.1245 N.am      15 UNK        -0.5000 
     85 CA          0.1629  -25.6093  -51.5822 C.3       15 UNK         0.1400 
     86 CB          0.4790  -24.1520  -51.9552 C.3       15 UNK        -0.1800 
     87 C          -1.0934  -26.1051  -52.3318 C.2       15 UNK         0.5000 
     88 O          -1.0554  -26.2012  -53.5593 O.2       15 UNK        -0.5000 
     89 N          -2.1725  -26.4055  -51.5937 N.am      16 UNK        -0.5000 
     90 CA         -3.4854  -26.8592  -52.0595 C.3       16 UNK         0.1400 
     91 CB         -3.3860  -28.2447  -52.7320 C.3       16 UNK        -0.1800 
     92 C          -4.2195  -25.8102  -52.9209 C.2       16 UNK         0.5000 
     93 O          -4.8871  -26.1652  -53.8952 O.2       16 UNK        -0.5000 
     94 N          -4.0941  -24.5320  -52.5400 N.am      17 UNK        -0.5000 
     95 CA         -4.8305  -23.4151  -53.1292 C.3       17 UNK         0.1400 
     96 CB         -4.1631  -22.0989  -52.7057 C.3       17 UNK        -0.1800 
     97 C          -6.3129  -23.4270  -52.7068 C.2       17 UNK         0.5000 
     98 O          -6.6674  -24.0194  -51.6839 O.2       17 UNK        -0.5000 
     99 N          -7.1525  -22.7499  -53.4991 N.am      18 UNK        -0.5000 
    100 CA        -8.6017  -22.6625  -53.2965 C.3       18 UNK         0.1400 
    101 CB        -9.2498  -22.1598  -54.5964 C.3       18 UNK        -0.1800 
    102 C         -9.0246  -21.7729  -52.1090 C.2       18 UNK         0.5000 
    103 O        -10.1568  -21.8986  -51.6397 O.2       18 UNK        -0.5000 
    104 N         -8.1314  -20.8890  -51.6518 N.am      19 UNK        -0.5000 
    105 CA        -8.3442  -19.9511  -50.5551 C.3       19 UNK         0.1400 
    106 CB        -9.1239  -18.7248  -51.0681 C.3       19 UNK        -0.1800 
    107 C         -6.9841  -19.5392  -49.9739 C.2       19 UNK         0.5000 
    108 O         -5.9452  -19.8413  -50.5677 O.2       19 UNK        -0.5000 
    109 N         -7.0187  -18.8352  -48.8345 N.am      20 UNK        -0.5000 
    110 CA        -5.8565  -18.2199  -48.1891 C.3       20 UNK         0.1400 
    111 CB        -6.2939  -17.6142  -46.8461 C.3       20 UNK        -0.1800 
    112 C         -5.1909  -17.1469  -49.0732 C.2       20 UNK         0.5000 
    113 O         -5.8466  -16.5781  -49.9501 O.2       20 UNK        -0.5000 
    114 N         -3.8962  -16.8996  -48.8273 N.am      21 UNK        -0.5000 
    115 CA        -3.0274  -15.9906  -49.5875 C.3       21 UNK         0.1400 
    116 CB        -3.4662  -14.5215  -49.4150 C.3       21 UNK        -0.1800 
    117 C         -2.8691  -16.4167  -51.0641 C.2       21 UNK         0.5000 
    118 O         -2.7443  -15.5692  -51.9491 O.2       21 UNK        -0.5000 
    119 N         -2.8673  -17.7393  -51.2810 N.am      22 UNK        -0.5000 
    120 CA        -2.6891  -18.4324  -52.5697 C.3       22 UNK         0.1400 
    121 C         -3.9154  -18.3369  -53.5281 C.2       22 UNK         0.5000 
    122 N         -5.0831  -17.8974  -53.0737 N.am      22 UNK        -0.7600 
    123 O         -3.8178  -18.6931  -54.6991 O.2       22 UNK        -0.5000 
    124 C124       -1.3498  -18.0944  -53.2921 C.3       23 UNK        -0.0398 
    125 S125        0.0937  -18.0379  -52.1760 S.3       23 UNK        -0.2404 
    126 C126        1.0267  -19.5447  -52.5915 C.3       23 UNK        -0.0205 
    127 H127        0.9121  -18.9184  -49.3764 H         1 UNK         0.0600 
    128 H128       -0.4756  -17.8970  -49.0053 H         1 UNK         0.0600 
    129 H129        0.4062  -18.6925  -47.7067 H         1 UNK         0.0600 
    130 H130        1.8197  -17.0531  -50.5271 H         1 UNK         0.3000 
    131 H131        3.1802  -15.3706  -50.8885 H         1 UNK         0.0600 
    132 H132        3.8655  -15.1994  -47.9099 H         1 UNK         0.0800 
    133 H133        4.7700  -14.5098  -49.2165 H         1 UNK         0.0800 
    134 H134        6.2312  -17.8622  -50.8975 H         1 UNK         0.0800 
    135 H135        5.0026  -16.7269  -51.3818 H         1 UNK         0.0800 
    136 H136        3.0658  -17.7756  -52.2985 H         1 UNK         0.1150 
    137 H137        1.6955  -21.5816  -50.8801 H         1 UNK         0.1150 
    138 H138        5.2868  -19.8662  -49.2913 H         1 UNK         0.1150 
    139 H139        2.9787  -22.8553  -49.3289 H         1 UNK         0.0800 
    140 H140        4.6854  -22.5653  -49.4381 H         1 UNK         0.0800 
    141 H141        1.9349  -20.3367  -47.7669 H         1 UNK         0.0800 
    142 H142        2.3266  -20.4125  -46.0821 H         1 UNK         0.0800 
    143 H143        1.5947  -23.0517  -46.5288 H         1 UNK         0.0600 
    144 H144        0.3278  -20.9082  -45.1159 H         1 UNK         0.3000 
    145 H145       -2.0819  -23.1333  -43.5708 H         1 UNK         0.0600 
    146 H146       -1.0567  -21.9740  -41.6246 H         1 UNK         0.0600 
    147 H147        0.3011  -21.4552  -42.6234 H         1 UNK         0.0600 
    148 H148        0.0445  -23.1626  -42.3017 H         1 UNK         0.0600 
    149 H149       -1.8670  -20.3353  -43.3428 H         1 UNK         0.3000 
    150 H150       -4.3599  -19.4720  -45.7551 H         1 UNK         0.0600 
    151 H151       -5.5540  -20.3214  -43.7399 H         1 UNK         0.0600 
    152 H152       -5.3871  -18.5734  -43.6880 H         1 UNK         0.0600 
    153 H153       -4.3445  -19.5873  -42.6919 H         1 UNK         0.0600 
    154 H154       -2.6542  -18.1519  -43.7524 H         1 UNK         0.3000 
    155 H155       -0.1074  -17.4081  -45.9534 H         1 UNK         0.0600 
    156 H156       -2.1881  -15.2750  -45.2743 H         1 UNK         0.0600 
    157 H157       -1.3865  -15.5295  -46.8126 H         1 UNK         0.0600 
    158 H158       -0.4588  -14.9530  -45.4405 H         1 UNK         0.0600 
    159 H159       -0.8114  -16.4247  -43.3410 H         1 UNK         0.3000 
    160 H160        0.0341  -19.1879  -41.5548 H         1 UNK         0.0600 
    161 H161        2.4452  -17.3537  -41.9285 H         1 UNK         0.0600 
    162 H162        2.4510  -19.0805  -42.2696 H         1 UNK         0.0600 
    163 H163        2.1709  -18.5083  -40.6340 H         1 UNK         0.0600 
    164 H164        0.4485  -16.3126  -41.1077 H         1 UNK         0.3000 
    165 H165       -2.9432  -15.6906  -40.3019 H         1 UNK         0.0600 
    166 H166       -2.0559  -14.9719  -38.1012 H         1 UNK         0.0600 
    167 H167       -2.1472  -16.7245  -38.1676 H         1 UNK         0.0600 
    168 H168       -0.5908  -15.9233  -38.3480 H         1 UNK         0.0600 
    169 H169       -0.6317  -14.0688  -40.0081 H         1 UNK         0.3000 
    170 H170       -1.1686  -12.3084  -42.9147 H         1 UNK         0.0600 
    171 H171       -0.8199  -11.7817  -40.4956 H         1 UNK         0.0600 
    172 H172        0.7345  -12.6131  -40.5220 H         1 UNK         0.0600 
    173 H173        0.4876  -11.1669  -41.4890 H         1 UNK         0.0600 
    174 H174        0.6181  -12.8142  -44.1207 H         1 UNK         0.3000 
    175 H175        3.7136  -14.0189  -43.5211 H         1 UNK         0.0600 
    176 H176        1.8618  -15.9828  -44.9506 H         1 UNK         0.0600 
    177 H177        3.5479  -15.7334  -45.3979 H         1 UNK         0.0600 
    178 H178        3.1469  -16.3603  -43.8143 H         1 UNK         0.0600 
    179 H179        2.3079  -13.6814  -46.0156 H         1 UNK         0.3000 
    180 H180        2.1882  -10.2524  -46.1223 H         1 UNK         0.0600 
    181 H181        3.9739  -10.1216  -47.8459 H         1 UNK         0.0600 
    182 H182        4.6649  -11.6428  -47.2813 H         1 UNK         0.0600 
    183 H183        4.6875  -10.2204  -46.2447 H         1 UNK         0.0600 
    184 H184        2.4586  -12.0944  -48.2834 H         1 UNK         0.3000 
    185 H185       -0.8480  -13.3794  -48.2528 H         1 UNK         0.0600 
    186 H186        0.5663  -11.3948  -50.1082 H         1 UNK         0.0600 
    187 H187       -0.7150  -12.5039  -50.5930 H         1 UNK         0.0600 
    188 H188       -1.0423  -11.2340  -49.4232 H         1 UNK         0.0600 
    189 H189        0.6484  -14.9293  -48.7083 H         1 UNK         0.3000 
    190 H190       -1.0928  -20.8958  -47.3681 H         1 UNK         0.3000 
    191 H191       -1.3203  -21.6427  -50.1196 H         1 UNK         0.0600 
    192 H192       -2.3373  -19.5949  -49.1814 H         1 UNK         0.0600 
    193 H193       -3.4105  -20.5612  -48.1679 H         1 UNK         0.0600 
    194 H194       -3.5677  -20.6050  -49.9189 H         1 UNK         0.0600 
    195 H195       -2.8406  -22.9297  -47.1117 H         1 UNK         0.3000 
    196 H196       -4.3637  -24.9808  -48.3529 H         1 UNK         0.0600 
    197 H197       -4.7951  -24.2166  -46.0459 H         1 UNK         0.0600 
    198 H198       -3.2179  -24.7963  -45.5166 H         1 UNK         0.0600 
    199 H199       -4.4485  -25.9389  -46.0424 H         1 UNK         0.0600 
    200 H200       -1.0117  -24.9893  -47.0461 H         1 UNK         0.3000 
    201 H201       -0.4326  -27.7202  -47.5534 H         1 UNK         0.0600 
    202 H202        0.9228  -26.2644  -46.0525 H         1 UNK         0.0600 
    203 H203        1.4742  -25.3240  -47.4374 H         1 UNK         0.0600 
    204 H204        1.9305  -27.0138  -47.2818 H         1 UNK         0.0600 
    205 H205       -0.0970  -24.8337  -49.6275 H         1 UNK         0.3000 
    206 H206        0.9987  -26.2307  -51.9096 H         1 UNK         0.0600 
    207 H207       -0.3093  -23.4732  -51.6282 H         1 UNK         0.0600 
    208 H208        1.4138  -23.8291  -51.4977 H         1 UNK         0.0600 
    209 H209        0.5890  -24.0339  -53.0337 H         1 UNK         0.0600 
    210 H210       -2.1001  -26.2727  -50.5932 H         1 UNK         0.3000 
    211 H211       -4.0934  -26.9792  -51.1619 H         1 UNK         0.0600 
    212 H212       -2.8458  -28.2005  -53.6779 H         1 UNK         0.0600 
    213 H213       -4.3771  -28.6486  -52.9413 H         1 UNK         0.0600 
    214 H214       -2.8756  -28.9594  -52.0863 H         1 UNK         0.0600 
    215 H215       -3.5533  -24.3206  -51.7037 H         1 UNK         0.3000 
    216 H216       -4.7744  -23.5004  -54.2164 H         1 UNK         0.0600 
    217 H217       -4.6259  -21.2478  -53.2054 H         1 UNK         0.0600 
    218 H218       -3.1021  -22.0895  -52.9560 H         1 UNK         0.0600 
    219 H219       -4.2591  -21.9371  -51.6330 H         1 UNK         0.0600 
    220 H220       -6.7862  -22.2771  -54.3130 H         1 UNK         0.3000 
    221 H221       -8.9785  -23.6680  -53.0973 H         1 UNK         0.0600 
    222 H222       -8.9014  -21.1600  -54.8587 H         1 UNK         0.0600 
    223 H223       -9.0277  -22.8242  -55.4317 H         1 UNK         0.0600 
    224 H224      -10.3355  -22.1139  -54.5007 H         1 UNK         0.0600 
    225 H225       -7.1939  -20.8764  -52.0330 H         1 UNK         0.3000 
    226 H226       -8.9118  -20.4445  -49.7635 H         1 UNK         0.0600 
    227 H227      -10.0949  -19.0108  -51.4726 H         1 UNK         0.0600 
    228 H228       -9.3092  -18.0080  -50.2675 H         1 UNK         0.0600 
    229 H229       -8.5748  -18.2039  -51.8536 H         1 UNK         0.0600 
    230 H230       -7.9172  -18.6085  -48.4348 H         1 UNK         0.3000 
    231 H231       -5.1276  -19.0074  -47.9978 H         1 UNK         0.0600 
    232 H232       -5.4459  -17.1756  -46.3179 H         1 UNK         0.0600 
    233 H233       -6.7248  -18.3721  -46.1916 H         1 UNK         0.0600 
    234 H234       -7.0362  -16.8269  -46.9835 H         1 UNK         0.0600 
    235 H235       -3.4288  -17.4253  -48.0905 H         1 UNK         0.3000 
    236 H236       -2.0345  -16.0815  -49.1468 H         1 UNK         0.0600 
    237 H237       -4.4382  -14.3299  -49.8697 H         1 UNK         0.0600 
    238 H238       -3.5285  -14.2508  -48.3610 H         1 UNK         0.0600 
    239 H239       -2.7527  -13.8431  -49.8826 H         1 UNK         0.0600 
    240 H240       -3.0210  -18.3413  -50.4871 H         1 UNK         0.3000 
    241 H241       -2.6369  -19.4883  -52.3035 H         1 UNK         0.0600 
    242 H242       -5.8687  -17.8433  -53.7010 H         1 UNK         0.3800 
    243 H243       -5.1900  -17.6254  -52.1071 H         1 UNK         0.3800 
    244 H244       -1.4224  -17.1202  -53.7780 H         1 UNK         0.0800 
    245 H245       -1.1571  -18.8129  -54.0903 H         1 UNK         0.0800 
    246 H246        1.3432  -19.5067  -53.6346 H         1 UNK         0.0800 
    247 H247        0.3746  -20.4131  -52.4847 H         1 UNK         0.0800 
@<TRIPOS>BOND
     1    1    2 1    
     2    1  127 1    
     3    1  128 1    
     4    1  129 1    
     5    2    3 2    
     6    2    4 am   BACKBONE|DICT|INTERRES
     7    4    5 1    
     8    4  130 1    
     9    5    6 1    
    10    5   65 1    
    11    5  131 1    
    12    6    7 1    
    13    6  132 1    
    14    6  133 1    
    15    7    8 1    
    16    8    9 1    
    17    8  134 1    
    18    8  135 1    
    19    9   10 ar   
    20    9   14 ar   
    21   10   11 ar   
    22   10  136 1    
    23   11   12 ar   
    24   11  126 1    
    25   12   13 ar   
    26   12  137 1    
    27   13   14 ar   
    28   13   15 1    
    29   14  138 1    
    30   15   16 1    
    31   15  139 1    
    32   15  140 1    
    33   16   17 1    
    34   17   18 1    
    35   17  141 1    
    36   17  142 1    
    37   18   19 1    
    38   18   67 1    
    39   18  143 1    
    40   19   20 am   BACKBONE|DICT|INTERRES
    41   19  144 1    
    42   20   21 2    
    43   20   22 1    
    44   22   23 1    
    45   22   24 1    
    46   22  145 1    
    47   23  146 1    
    48   23  147 1    
    49   23  148 1    
    50   24   25 am   BACKBONE|DICT|INTERRES
    51   24  149 1    
    52   25   26 2    
    53   25   27 1    
    54   27   28 1    
    55   27   29 1    
    56   27  150 1    
    57   28  151 1    
    58   28  152 1    
    59   28  153 1    
    60   29   30 am   BACKBONE|DICT|INTERRES
    61   29  154 1    
    62   30   31 2    
    63   30   32 1    
    64   32   33 1    
    65   32   34 1    
    66   32  155 1    
    67   33  156 1    
    68   33  157 1    
    69   33  158 1    
    70   34   35 am   BACKBONE|DICT|INTERRES
    71   34  159 1    
    72   35   36 2    
    73   35   37 1    
    74   37   38 1    
    75   37   39 1    
    76   37  160 1    
    77   38  161 1    
    78   38  162 1    
    79   38  163 1    
    80   39   40 am   BACKBONE|DICT|INTERRES
    81   39  164 1    
    82   40   41 2    
    83   40   42 1    
    84   42   43 1    
    85   42   44 1    
    86   42  165 1    
    87   43  166 1    
    88   43  167 1    
    89   43  168 1    
    90   44   45 am   BACKBONE|DICT|INTERRES
    91   44  169 1    
    92   45   46 2    
    93   45   47 1    
    94   47   48 1    
    95   47   49 1    
    96   47  170 1    
    97   48  171 1    
    98   48  172 1    
    99   48  173 1    
   100   49   50 am   BACKBONE|DICT|INTERRES
   101   49  174 1    
   102   50   51 2    
   103   50   52 1    
   104   52   53 1    
   105   52   54 1    
   106   52  175 1    
   107   53  176 1    
   108   53  177 1    
   109   53  178 1    
   110   54   55 am   BACKBONE|DICT|INTERRES
   111   54  179 1    
   112   55   56 2    
   113   55   57 1    
   114   57   58 1    
   115   57   59 1    
   116   57  180 1    
   117   58  181 1    
   118   58  182 1    
   119   58  183 1    
   120   59   60 am   BACKBONE|DICT|INTERRES
   121   59  184 1    
   122   60   61 2    
   123   60   62 1    
   124   62   63 1    
   125   62   64 1    
   126   62  185 1    
   127   63  186 1    
   128   63  187 1    
   129   63  188 1    
   130   64   65 am   BACKBONE|DICT|INTERRES
   131   64  189 1    
   132   65   66 2    
   133   67   68 2    
   134   67   69 am   BACKBONE|DICT|INTERRES
   135   69   70 1    
   136   69  190 1    
   137   70   71 1    
   138   70   72 1    
   139   70  191 1    
   140   71  192 1    
   141   71  193 1    
   142   71  194 1    
   143   72   73 2    
   144   72   74 am   BACKBONE|DICT|INTERRES
   145   74   75 1    
   146   74  195 1    
   147   75   76 1    
   148   75   77 1    
   149   75  196 1    
   150   76  197 1    
   151   76  198 1    
   152   76  199 1    
   153   77   78 2    
   154   77   79 am   BACKBONE|DICT|INTERRES
   155   79   80 1    
   156   79  200 1    
   157   80   81 1    
   158   80   82 1    
   159   80  201 1    
   160   81  202 1    
   161   81  203 1    
   162   81  204 1    
   163   82   83 2    
   164   82   84 am   BACKBONE|DICT|INTERRES
   165   84   85 1    
   166   84  205 1    
   167   85   86 1    
   168   85   87 1    
   169   85  206 1    
   170   86  207 1    
   171   86  208 1    
   172   86  209 1    
   173   87   88 2    
   174   87   89 am   BACKBONE|DICT|INTERRES
   175   89   90 1    
   176   89  210 1    
   177   90   91 1    
   178   90   92 1    
   179   90  211 1    
   180   91  212 1    
   181   91  213 1    
   182   91  214 1    
   183   92   93 2    
   184   92   94 am   BACKBONE|DICT|INTERRES
   185   94   95 1    
   186   94  215 1    
   187   95   96 1    
   188   95   97 1    
   189   95  216 1    
   190   96  217 1    
   191   96  218 1    
   192   96  219 1    
   193   97   98 2    
   194   97   99 am   BACKBONE|DICT|INTERRES
   195   99  100 1    
   196   99  220 1    
   197  100  101 1    
   198  100  102 1    
   199  100  221 1    
   200  101  222 1    
   201  101  223 1    
   202  101  224 1    
   203  102  103 2    
   204  102  104 am   BACKBONE|DICT|INTERRES
   205  104  105 1    
   206  104  225 1    
   207  105  106 1    
   208  105  107 1    
   209  105  226 1    
   210  106  227 1    
   211  106  228 1    
   212  106  229 1    
   213  107  108 2    
   214  107  109 am   BACKBONE|DICT|INTERRES
   215  109  110 1    
   216  109  230 1    
   217  110  111 1    
   218  110  112 1    
   219  110  231 1    
   220  111  232 1    
   221  111  233 1    
   222  111  234 1    
   223  112  113 2    
   224  112  114 am   BACKBONE|DICT|INTERRES
   225  114  115 1    
   226  114  235 1    
   227  115  116 1    
   228  115  117 1    
   229  115  236 1    
   230  116  237 1    
   231  116  238 1    
   232  116  239 1    
   233  117  118 2    
   234  117  119 am   BACKBONE|DICT|INTERRES
   235  119  120 1    
   236  119  240 1    
   237  120  121 1    
   238  120  124 1    
   239  120  241 1    
   240  121  122 am   BACKBONE|DICT|INTERRES
   241  121  123 2    
   242  122  242 1    
   243  122  243 1    
   244  124  125 1    
   245  124  244 1    
   246  124  245 1    
   247  125  126 1    
   248  126  246 1    
   249  126  247 1    
@<TRIPOS>SUBSTRUCTURE
     1 UNK         1 GROUP             0       ****    0 ROOT    
