@<TRIPOS>MOLECULE
3R540
247   249    1
SMALL
USER_CHARGES


@<TRIPOS>ATOM
      1 CA         -0.6639   -7.9210  -47.3003 C.3       0 UNK        -0.1800 
      2 C           0.1003   -9.2316  -47.1934 C.2       0 UNK         0.5000 
      3 O           1.1797   -9.2665  -46.6020 O.2       0 UNK        -0.5000 
      4 N          -0.4582  -10.3189  -47.7412 N.am      1 UNK        -0.5000 
      5 CA          0.1377  -11.6624  -47.7473 C.3       1 UNK         0.1400 
      6 C6         -0.6626  -12.6622  -48.6180 C.3       23 UNK        -0.0398 
      7 S7         -2.4218  -12.8269  -48.1482 S.3       23 UNK        -0.2404 
      8 C8         -3.0610  -13.8373  -49.5221 C.3       23 UNK        -0.0205 
      9 C9         -2.4365  -15.2244  -49.5444 C.ar      23 UNK        -0.0193 
     10 C10        -1.4949  -15.5623  -50.5214 C.ar      23 UNK        -0.1150 
     11 C11        -0.9071  -16.8312  -50.5326 C.ar      23 UNK        -0.0193 
     12 C12        -1.2631  -17.7612  -49.5512 C.ar      23 UNK        -0.1150 
     13 C13        -2.2053  -17.4342  -48.5717 C.ar      23 UNK        -0.0193 
     14 C14        -2.7942  -16.1677  -48.5776 C.ar      23 UNK        -0.1150 
     15 C15        -2.5551  -18.4353  -47.4856 C.3       23 UNK        -0.0205 
     16 S16        -3.7970  -19.6355  -48.0372 S.3       23 UNK        -0.2404 
     17 C17        -3.8803  -20.7587  -46.6010 C.3       23 UNK        -0.0398 
     18 CA         -2.8132  -21.8800  -46.6824 C.3       11 UNK         0.1400 
     19 N          -1.5127  -21.4655  -46.1421 N.am      11 UNK        -0.5000 
     20 C          -0.3653  -22.1123  -46.3918 C.2       10 UNK         0.5000 
     21 O          -0.2937  -23.1268  -47.0841 O.2       10 UNK        -0.5000 
     22 CA          0.9086  -21.5680  -45.7243 C.3       10 UNK         0.1400 
     23 CB          1.4028  -20.3036  -46.4420 C.3       10 UNK        -0.1800 
     24 N           0.7450  -21.2949  -44.2962 N.am      10 UNK        -0.5000 
     25 C           0.4407  -22.2145  -43.3694 C.2       9 UNK         0.5000 
     26 O           0.2016  -23.3932  -43.6287 O.2       9 UNK        -0.5000 
     27 CA          0.3738  -21.7348  -41.9112 C.3       9 UNK         0.1400 
     28 CB          1.7827  -21.6121  -41.3102 C.3       9 UNK        -0.1800 
     29 N          -0.3155  -20.4509  -41.8123 N.am      9 UNK        -0.5000 
     30 C          -1.6468  -20.3170  -41.7421 C.2       8 UNK         0.5000 
     31 O          -2.4270  -21.2664  -41.6734 O.2       8 UNK        -0.5000 
     32 CA         -2.2083  -18.8814  -41.7791 C.3       8 UNK         0.1400 
     33 CB         -2.3321  -18.3148  -40.3568 C.3       8 UNK        -0.1800 
     34 N          -1.4150  -17.9595  -42.5953 N.am      8 UNK        -0.5000 
     35 C          -1.2048  -18.0974  -43.9114 C.2       7 UNK         0.5000 
     36 O          -1.6529  -19.0281  -44.5799 O.2       7 UNK        -0.5000 
     37 CA         -0.2843  -17.0574  -44.5773 C.3       7 UNK         0.1400 
     38 CB         -1.0737  -15.7954  -44.9550 C.3       7 UNK        -0.1800 
     39 N           0.8788  -16.6810  -43.7668 N.am      7 UNK        -0.5000 
     40 C           1.7758  -17.5224  -43.2341 C.2       6 UNK         0.5000 
     41 O           1.6913  -18.7490  -43.3182 O.2       6 UNK        -0.5000 
     42 CA          2.9746  -16.8752  -42.5108 C.3       6 UNK         0.1400 
     43 CB          3.8301  -17.9068  -41.7532 C.3       6 UNK        -0.1800 
     44 N           3.8290  -16.1543  -43.4554 N.am      6 UNK        -0.5000 
     45 C           3.5562  -14.9524  -43.9768 C.2       5 UNK         0.5000 
     46 O           2.5676  -14.2872  -43.6603 O.2       5 UNK        -0.5000 
     47 CA          4.5315  -14.4405  -45.0465 C.3       5 UNK         0.1400 
     48 CB          4.4051  -15.2601  -46.3442 C.3       5 UNK        -0.1800 
     49 N           4.2623  -13.0373  -45.3434 N.am      5 UNK        -0.5000 
     50 C           5.1790  -12.1406  -45.7236 C.2       4 UNK         0.5000 
     51 O           6.3788  -12.3977  -45.8352 O.2       4 UNK        -0.5000 
     52 CA          4.6846  -10.7180  -46.0482 C.3       4 UNK         0.1400 
     53 CB          4.2901  -10.6160  -47.5293 C.3       4 UNK        -0.1800 
     54 N           3.5567  -10.2820  -45.2259 N.am      4 UNK        -0.5000 
     55 C           3.6234   -9.9988  -43.9172 C.2       3 UNK         0.5000 
     56 O           4.6537  -10.0851  -43.2482 O.2       3 UNK        -0.5000 
     57 CA          2.3166   -9.5481  -43.2430 C.3       3 UNK         0.1400 
     58 CB          2.0683   -8.0488  -43.4731 C.3       3 UNK        -0.1800 
     59 N           1.1846  -10.3180  -43.7567 N.am      3 UNK        -0.5000 
     60 C           0.7220  -11.4398  -43.1884 C.2       2 UNK         0.5000 
     61 O           1.0976  -11.8474  -42.0886 O.2       2 UNK        -0.5000 
     62 CA         -0.3438  -12.2448  -43.9587 C.3       2 UNK         0.1400 
     63 CB         -1.7228  -12.0981  -43.2976 C.3       2 UNK        -0.1800 
     64 N          -0.4600  -11.8765  -45.3707 N.am      2 UNK        -0.5000 
     65 C           0.4077  -12.2210  -46.3327 C.2       1 UNK         0.5000 
     66 O           1.4123  -12.9018  -46.1375 O.2       1 UNK        -0.5000 
     67 C          -3.3108  -23.1927  -46.0430 C.2       11 UNK         0.5000 
     68 O          -3.9882  -23.9650  -46.7229 O.2       11 UNK        -0.5000 
     69 N          -2.9407  -23.4477  -44.7788 N.am      12 UNK        -0.5000 
     70 CA         -3.2211  -24.7036  -44.0825 C.3       12 UNK         0.1400 
     71 CB         -2.9916  -24.5339  -42.5736 C.3       12 UNK        -0.1800 
     72 C          -2.3895  -25.8691  -44.6465 C.2       12 UNK         0.5000 
     73 O          -2.9462  -26.9349  -44.9081 O.2       12 UNK        -0.5000 
     74 N          -1.0891  -25.6340  -44.8756 N.am      13 UNK        -0.5000 
     75 CA         -0.1615  -26.5840  -45.4978 C.3       13 UNK         0.1400 
     76 CB          1.2693  -26.0322  -45.4088 C.3       13 UNK        -0.1800 
     77 C          -0.5305  -26.9104  -46.9579 C.2       13 UNK         0.5000 
     78 O          -0.4203  -28.0635  -47.3747 O.2       13 UNK        -0.5000 
     79 N          -1.0051  -25.8948  -47.6904 N.am      14 UNK        -0.5000 
     80 CA         -1.5450  -26.0010  -49.0471 C.3       14 UNK         0.1400 
     81 CB         -1.5719  -24.5923  -49.6562 C.3       14 UNK        -0.1800 
     82 C          -2.9529  -26.6320  -49.1112 C.2       14 UNK         0.5000 
     83 O          -3.4418  -26.8934  -50.2130 O.2       14 UNK        -0.5000 
     84 N          -3.5912  -26.8231  -47.9448 N.am      15 UNK        -0.5000 
     85 CA         -4.9436  -27.3490  -47.7293 C.3       15 UNK         0.1400 
     86 CB         -4.9865  -28.8547  -48.0600 C.3       15 UNK        -0.1800 
     87 C          -6.0286  -26.5424  -48.4729 C.2       15 UNK         0.5000 
     88 O          -6.9990  -27.1220  -48.9638 O.2       15 UNK        -0.5000 
     89 N          -5.8073  -25.2244  -48.5953 N.am      16 UNK        -0.5000 
     90 CA         -6.5413  -24.2186  -49.3762 C.3       16 UNK         0.1400 
     91 CB         -7.9782  -24.0501  -48.8504 C.3       16 UNK        -0.1800 
     92 C          -6.5354  -24.4373  -50.9069 C.2       16 UNK         0.5000 
     93 O          -6.4942  -23.4582  -51.6508 O.2       16 UNK        -0.5000 
     94 N          -6.5698  -25.6966  -51.3571 N.am      17 UNK        -0.5000 
     95 CA         -6.6310  -26.1182  -52.7545 C.3       17 UNK         0.1400 
     96 CB         -6.8150  -27.6424  -52.8125 C.3       17 UNK        -0.1800 
     97 C          -5.4096  -25.6848  -53.5812 C.2       17 UNK         0.5000 
     98 O          -5.5825  -25.1312  -54.6675 O.2       17 UNK        -0.5000 
     99 N          -4.1983  -25.9132  -53.0522 N.am      18 UNK        -0.5000 
    100 CA        -2.9502  -25.5427  -53.7282 C.3       18 UNK         0.1400 
    101 CB        -1.7954  -26.4105  -53.2050 C.3       18 UNK        -0.1800 
    102 C         -2.6296  -24.0388  -53.6166 C.2       18 UNK         0.5000 
    103 O         -1.8313  -23.5313  -54.4046 O.2       18 UNK        -0.5000 
    104 N         -3.2804  -23.3394  -52.6747 N.am      19 UNK        -0.5000 
    105 CA        -3.1531  -21.8944  -52.4716 C.3       19 UNK         0.1400 
    106 CB        -3.6340  -21.5225  -51.0630 C.3       19 UNK        -0.1800 
    107 C         -3.8857  -21.0620  -53.5415 C.2       19 UNK         0.5000 
    108 O         -3.6696  -19.8534  -53.6098 O.2       19 UNK        -0.5000 
    109 N         -4.6953  -21.7072  -54.3963 N.am      20 UNK        -0.5000 
    110 CA        -5.3372  -21.1004  -55.5676 C.3       20 UNK         0.1400 
    111 CB        -6.2325  -22.1462  -56.2472 C.3       20 UNK        -0.1800 
    112 C         -4.3319  -20.5077  -56.5788 C.2       20 UNK         0.5000 
    113 O         -4.6660  -19.5527  -57.2818 O.2       20 UNK        -0.5000 
    114 N         -3.1001  -21.0405  -56.5870 N.am      21 UNK        -0.5000 
    115 CA        -1.9526  -20.5337  -57.3418 C.3       21 UNK         0.1400 
    116 CB        -0.7836  -21.5169  -57.1784 C.3       21 UNK        -0.1800 
    117 C         -1.5158  -19.1069  -56.9433 C.2       21 UNK         0.5000 
    118 O         -0.8653  -18.4368  -57.7465 O.2       21 UNK        -0.5000 
    119 N         -1.8880  -18.6568  -55.7362 N.am      22 UNK        -0.5000 
    120 CA        -1.6928  -17.2776  -55.2608 C.3       22 UNK         0.1400 
    121 C         -2.6661  -16.2437  -55.9047 C.2       22 UNK         0.5000 
    122 N         -3.6960  -16.6508  -56.6401 N.am      22 UNK        -0.7600 
    123 O         -2.4769  -15.0416  -55.7405 O.2       22 UNK        -0.5000 
    124 C124       -1.7461  -17.1799  -53.7133 C.3       23 UNK        -0.0398 
    125 S125       -0.5554  -18.2850  -52.8752 S.3       23 UNK        -0.2404 
    126 C126        0.1288  -17.1924  -51.5886 C.3       23 UNK        -0.0205 
    127 H127       -0.8761   -7.5297  -46.3054 H         1 UNK         0.0600 
    128 H128       -1.6101   -8.0452  -47.8275 H         1 UNK         0.0600 
    129 H129       -0.0678   -7.1837  -47.8378 H         1 UNK         0.0600 
    130 H130       -1.3569  -10.2412  -48.1965 H         1 UNK         0.3000 
    131 H131        1.1172  -11.5555  -48.2174 H         1 UNK         0.0600 
    132 H132       -0.1946  -13.6483  -48.5911 H         1 UNK         0.0800 
    133 H133       -0.6186  -12.3435  -49.6603 H         1 UNK         0.0800 
    134 H134       -2.8901  -13.3173  -50.4660 H         1 UNK         0.0800 
    135 H135       -4.1427  -13.9324  -49.4175 H         1 UNK         0.0800 
    136 H136       -1.2145  -14.8343  -51.2696 H         1 UNK         0.1150 
    137 H137       -0.8063  -18.7411  -49.5504 H         1 UNK         0.1150 
    138 H138       -3.5175  -15.9060  -47.8180 H         1 UNK         0.1150 
    139 H139       -1.6480  -18.9590  -47.1877 H         1 UNK         0.0800 
    140 H140       -2.9333  -17.9212  -46.6022 H         1 UNK         0.0800 
    141 H141       -4.8893  -21.1759  -46.6095 H         1 UNK         0.0800 
    142 H142       -3.8018  -20.1959  -45.6699 H         1 UNK         0.0800 
    143 H143       -2.6626  -22.1132  -47.7378 H         1 UNK         0.0600 
    144 H144       -1.5024  -20.6404  -45.5464 H         1 UNK         0.3000 
    145 H145        1.6822  -22.3326  -45.8207 H         1 UNK         0.0600 
    146 H146        2.3242  -19.9287  -45.9959 H         1 UNK         0.0600 
    147 H147        1.6081  -20.5079  -47.4935 H         1 UNK         0.0600 
    148 H148        0.6629  -19.5061  -46.4040 H         1 UNK         0.0600 
    149 H149        0.9581  -20.3502  -43.9871 H         1 UNK         0.3000 
    150 H150       -0.1710  -22.4848  -41.3335 H         1 UNK         0.0600 
    151 H151        2.3028  -22.5703  -41.3426 H         1 UNK         0.0600 
    152 H152        1.7395  -21.3007  -40.2665 H         1 UNK         0.0600 
    153 H153        2.3956  -20.8896  -41.8497 H         1 UNK         0.0600 
    154 H154        0.2525  -19.6238  -41.9424 H         1 UNK         0.3000 
    155 H155       -3.2081  -18.9331  -42.2153 H         1 UNK         0.0600 
    156 H156       -1.3573  -18.2109  -39.8787 H         1 UNK         0.0600 
    157 H157       -2.9385  -18.9679  -39.7278 H         1 UNK         0.0600 
    158 H158       -2.8107  -17.3353  -40.3621 H         1 UNK         0.0600 
    159 H159       -0.9918  -17.1764  -42.1198 H         1 UNK         0.3000 
    160 H160        0.0958  -17.4973  -45.4995 H         1 UNK         0.0600 
    161 H161       -1.4383  -15.2696  -44.0722 H         1 UNK         0.0600 
    162 H162       -1.9405  -16.0378  -45.5692 H         1 UNK         0.0600 
    163 H163       -0.4578  -15.1059  -45.5322 H         1 UNK         0.0600 
    164 H164        1.0817  -15.6894  -43.6929 H         1 UNK         0.3000 
    165 H165        2.5764  -16.1707  -41.7774 H         1 UNK         0.0600 
    166 H166        4.6398  -17.4222  -41.2073 H         1 UNK         0.0600 
    167 H167        3.2296  -18.4523  -41.0241 H         1 UNK         0.0600 
    168 H168        4.2728  -18.6402  -42.4285 H         1 UNK         0.0600 
    169 H169        4.6420  -16.6542  -43.7852 H         1 UNK         0.3000 
    170 H170        5.5418  -14.5451  -44.6456 H         1 UNK         0.0600 
    171 H171        4.6129  -16.3165  -46.1715 H         1 UNK         0.0600 
    172 H172        3.4008  -15.1861  -46.7644 H         1 UNK         0.0600 
    173 H173        5.1093  -14.9133  -47.1006 H         1 UNK         0.0600 
    174 H174        3.2838  -12.7709  -45.2762 H         1 UNK         0.3000 
    175 H175        5.5143  -10.0306  -45.8704 H         1 UNK         0.0600 
    176 H176        3.4683  -11.2904  -47.7709 H         1 UNK         0.0600 
    177 H177        3.9805   -9.6032  -47.7882 H         1 UNK         0.0600 
    178 H178        5.1290  -10.8763  -48.1759 H         1 UNK         0.0600 
    179 H179        2.6812  -10.1187  -45.7130 H         1 UNK         0.3000 
    180 H180        2.4218   -9.7042  -42.1673 H         1 UNK         0.0600 
    181 H181        1.1519   -7.7223  -42.9814 H         1 UNK         0.0600 
    182 H182        1.9845   -7.8051  -44.5323 H         1 UNK         0.0600 
    183 H183        2.8861   -7.4535  -43.0653 H         1 UNK         0.0600 
    184 H184        0.8412  -10.0554  -44.6720 H         1 UNK         0.3000 
    185 H185       -0.0464  -13.2925  -43.8993 H         1 UNK         0.0600 
    186 H186       -2.4656  -12.7238  -43.7930 H         1 UNK         0.0600 
    187 H187       -1.6898  -12.4029  -42.2508 H         1 UNK         0.0600 
    188 H188       -2.0758  -11.0666  -43.3289 H         1 UNK         0.0600 
    189 H189       -1.2551  -11.3102  -45.6286 H         1 UNK         0.3000 
    190 H190       -2.3614  -22.7772  -44.2944 H         1 UNK         0.3000 
    191 H191       -4.2754  -24.9465  -44.2327 H         1 UNK         0.0600 
    192 H192       -3.2103  -25.4595  -42.0399 H         1 UNK         0.0600 
    193 H193       -3.6418  -23.7616  -42.1626 H         1 UNK         0.0600 
    194 H194       -1.9623  -24.2595  -42.3444 H         1 UNK         0.0600 
    195 H195       -0.6937  -24.7424  -44.5861 H         1 UNK         0.3000 
    196 H196       -0.2045  -27.5147  -44.9286 H         1 UNK         0.0600 
    197 H197        1.3670  -25.0808  -45.9329 H         1 UNK         0.0600 
    198 H198        1.5657  -25.8729  -44.3719 H         1 UNK         0.0600 
    199 H199        1.9853  -26.7268  -45.8496 H         1 UNK         0.0600 
    200 H200       -0.9764  -24.9603  -47.2927 H         1 UNK         0.3000 
    201 H201       -0.8766  -26.6257  -49.6427 H         1 UNK         0.0600 
    202 H202       -2.2135  -23.9286  -49.0793 H         1 UNK         0.0600 
    203 H203       -1.9532  -24.6029  -50.6739 H         1 UNK         0.0600 
    204 H204       -0.5746  -24.1536  -49.6886 H         1 UNK         0.0600 
    205 H205       -3.1035  -26.5575  -47.0990 H         1 UNK         0.3000 
    206 H206       -5.1539  -27.2336  -46.6654 H         1 UNK         0.0600 
    207 H207       -4.2169  -29.3989  -47.5124 H         1 UNK         0.0600 
    208 H208       -5.9478  -29.2902  -47.7852 H         1 UNK         0.0600 
    209 H209       -4.8347  -29.0388  -49.1242 H         1 UNK         0.0600 
    210 H210       -4.9977  -24.8594  -48.0990 H         1 UNK         0.3000 
    211 H211       -6.0164  -23.2784  -49.1990 H         1 UNK         0.0600 
    212 H212       -8.4847  -23.2300  -49.3609 H         1 UNK         0.0600 
    213 H213       -7.9828  -23.8217  -47.7846 H         1 UNK         0.0600 
    214 H214       -8.5771  -24.9480  -49.0045 H         1 UNK         0.0600 
    215 H215       -6.6381  -26.4290  -50.6560 H         1 UNK         0.3000 
    216 H216       -7.5124  -25.6523  -53.1996 H         1 UNK         0.0600 
    217 H217       -5.9879  -28.1664  -52.3314 H         1 UNK         0.0600 
    218 H218       -6.8718  -27.9915  -53.8444 H         1 UNK         0.0600 
    219 H219       -7.7364  -27.9464  -52.3155 H         1 UNK         0.0600 
    220 H220       -4.1193  -26.3514  -52.1395 H         1 UNK         0.3000 
    221 H221       -3.0561  -25.7611  -54.7932 H         1 UNK         0.0600 
    222 H222       -1.9887  -27.4679  -53.3861 H         1 UNK         0.0600 
    223 H223       -1.6339  -26.2836  -52.1371 H         1 UNK         0.0600 
    224 H224       -0.8605  -26.1617  -53.7087 H         1 UNK         0.0600 
    225 H225       -3.9633  -23.8190  -52.1065 H         1 UNK         0.3000 
    226 H226       -2.0945  -21.6339  -52.5376 H         1 UNK         0.0600 
    227 H227       -4.6975  -21.7137  -50.9283 H         1 UNK         0.0600 
    228 H228       -3.0894  -22.0712  -50.2964 H         1 UNK         0.0600 
    229 H229       -3.4701  -20.4607  -50.8753 H         1 UNK         0.0600 
    230 H230       -4.8418  -22.6986  -54.2643 H         1 UNK         0.3000 
    231 H231       -5.9681  -20.2827  -55.2137 H         1 UNK         0.0600 
    232 H232       -5.6528  -22.9962  -56.6094 H         1 UNK         0.0600 
    233 H233       -6.7569  -21.7167  -57.1018 H         1 UNK         0.0600 
    234 H234       -6.9881  -22.5261  -55.5591 H         1 UNK         0.0600 
    235 H235       -2.9136  -21.8143  -55.9637 H         1 UNK         0.3000 
    236 H236       -2.2349  -20.5058  -58.3960 H         1 UNK         0.0600 
    237 H237       -1.0541  -22.5145  -57.5250 H         1 UNK         0.0600 
    238 H238        0.0831  -21.1958  -57.7577 H         1 UNK         0.0600 
    239 H239       -0.4712  -21.5977  -56.1362 H         1 UNK         0.0600 
    240 H240       -2.4298  -19.2547  -55.1222 H         1 UNK         0.3000 
    241 H241       -0.6909  -16.9686  -55.5648 H         1 UNK         0.0600 
    242 H242       -4.3090  -15.9646  -57.0512 H         1 UNK         0.3800 
    243 H243       -3.8755  -17.6353  -56.7954 H         1 UNK         0.3800 
    244 H244       -2.7464  -17.4123  -53.3455 H         1 UNK         0.0800 
    245 H245       -1.5463  -16.1530  -53.4046 H         1 UNK         0.0800 
    246 H246        0.5416  -16.2954  -52.0527 H         1 UNK         0.0800 
    247 H247        0.9678  -17.6984  -51.1090 H         1 UNK         0.0800 
@<TRIPOS>BOND
     1    1    2 1    
     2    1  127 1    
     3    1  128 1    
     4    1  129 1    
     5    2    3 2    
     6    2    4 am   BACKBONE|DICT|INTERRES
     7    4    5 1    
     8    4  130 1    
     9    5    6 1    
    10    5   65 1    
    11    5  131 1    
    12    6    7 1    
    13    6  132 1    
    14    6  133 1    
    15    7    8 1    
    16    8    9 1    
    17    8  134 1    
    18    8  135 1    
    19    9   10 ar   
    20    9   14 ar   
    21   10   11 ar   
    22   10  136 1    
    23   11   12 ar   
    24   11  126 1    
    25   12   13 ar   
    26   12  137 1    
    27   13   14 ar   
    28   13   15 1    
    29   14  138 1    
    30   15   16 1    
    31   15  139 1    
    32   15  140 1    
    33   16   17 1    
    34   17   18 1    
    35   17  141 1    
    36   17  142 1    
    37   18   19 1    
    38   18   67 1    
    39   18  143 1    
    40   19   20 am   BACKBONE|DICT|INTERRES
    41   19  144 1    
    42   20   21 2    
    43   20   22 1    
    44   22   23 1    
    45   22   24 1    
    46   22  145 1    
    47   23  146 1    
    48   23  147 1    
    49   23  148 1    
    50   24   25 am   BACKBONE|DICT|INTERRES
    51   24  149 1    
    52   25   26 2    
    53   25   27 1    
    54   27   28 1    
    55   27   29 1    
    56   27  150 1    
    57   28  151 1    
    58   28  152 1    
    59   28  153 1    
    60   29   30 am   BACKBONE|DICT|INTERRES
    61   29  154 1    
    62   30   31 2    
    63   30   32 1    
    64   32   33 1    
    65   32   34 1    
    66   32  155 1    
    67   33  156 1    
    68   33  157 1    
    69   33  158 1    
    70   34   35 am   BACKBONE|DICT|INTERRES
    71   34  159 1    
    72   35   36 2    
    73   35   37 1    
    74   37   38 1    
    75   37   39 1    
    76   37  160 1    
    77   38  161 1    
    78   38  162 1    
    79   38  163 1    
    80   39   40 am   BACKBONE|DICT|INTERRES
    81   39  164 1    
    82   40   41 2    
    83   40   42 1    
    84   42   43 1    
    85   42   44 1    
    86   42  165 1    
    87   43  166 1    
    88   43  167 1    
    89   43  168 1    
    90   44   45 am   BACKBONE|DICT|INTERRES
    91   44  169 1    
    92   45   46 2    
    93   45   47 1    
    94   47   48 1    
    95   47   49 1    
    96   47  170 1    
    97   48  171 1    
    98   48  172 1    
    99   48  173 1    
   100   49   50 am   BACKBONE|DICT|INTERRES
   101   49  174 1    
   102   50   51 2    
   103   50   52 1    
   104   52   53 1    
   105   52   54 1    
   106   52  175 1    
   107   53  176 1    
   108   53  177 1    
   109   53  178 1    
   110   54   55 am   BACKBONE|DICT|INTERRES
   111   54  179 1    
   112   55   56 2    
   113   55   57 1    
   114   57   58 1    
   115   57   59 1    
   116   57  180 1    
   117   58  181 1    
   118   58  182 1    
   119   58  183 1    
   120   59   60 am   BACKBONE|DICT|INTERRES
   121   59  184 1    
   122   60   61 2    
   123   60   62 1    
   124   62   63 1    
   125   62   64 1    
   126   62  185 1    
   127   63  186 1    
   128   63  187 1    
   129   63  188 1    
   130   64   65 am   BACKBONE|DICT|INTERRES
   131   64  189 1    
   132   65   66 2    
   133   67   68 2    
   134   67   69 am   BACKBONE|DICT|INTERRES
   135   69   70 1    
   136   69  190 1    
   137   70   71 1    
   138   70   72 1    
   139   70  191 1    
   140   71  192 1    
   141   71  193 1    
   142   71  194 1    
   143   72   73 2    
   144   72   74 am   BACKBONE|DICT|INTERRES
   145   74   75 1    
   146   74  195 1    
   147   75   76 1    
   148   75   77 1    
   149   75  196 1    
   150   76  197 1    
   151   76  198 1    
   152   76  199 1    
   153   77   78 2    
   154   77   79 am   BACKBONE|DICT|INTERRES
   155   79   80 1    
   156   79  200 1    
   157   80   81 1    
   158   80   82 1    
   159   80  201 1    
   160   81  202 1    
   161   81  203 1    
   162   81  204 1    
   163   82   83 2    
   164   82   84 am   BACKBONE|DICT|INTERRES
   165   84   85 1    
   166   84  205 1    
   167   85   86 1    
   168   85   87 1    
   169   85  206 1    
   170   86  207 1    
   171   86  208 1    
   172   86  209 1    
   173   87   88 2    
   174   87   89 am   BACKBONE|DICT|INTERRES
   175   89   90 1    
   176   89  210 1    
   177   90   91 1    
   178   90   92 1    
   179   90  211 1    
   180   91  212 1    
   181   91  213 1    
   182   91  214 1    
   183   92   93 2    
   184   92   94 am   BACKBONE|DICT|INTERRES
   185   94   95 1    
   186   94  215 1    
   187   95   96 1    
   188   95   97 1    
   189   95  216 1    
   190   96  217 1    
   191   96  218 1    
   192   96  219 1    
   193   97   98 2    
   194   97   99 am   BACKBONE|DICT|INTERRES
   195   99  100 1    
   196   99  220 1    
   197  100  101 1    
   198  100  102 1    
   199  100  221 1    
   200  101  222 1    
   201  101  223 1    
   202  101  224 1    
   203  102  103 2    
   204  102  104 am   BACKBONE|DICT|INTERRES
   205  104  105 1    
   206  104  225 1    
   207  105  106 1    
   208  105  107 1    
   209  105  226 1    
   210  106  227 1    
   211  106  228 1    
   212  106  229 1    
   213  107  108 2    
   214  107  109 am   BACKBONE|DICT|INTERRES
   215  109  110 1    
   216  109  230 1    
   217  110  111 1    
   218  110  112 1    
   219  110  231 1    
   220  111  232 1    
   221  111  233 1    
   222  111  234 1    
   223  112  113 2    
   224  112  114 am   BACKBONE|DICT|INTERRES
   225  114  115 1    
   226  114  235 1    
   227  115  116 1    
   228  115  117 1    
   229  115  236 1    
   230  116  237 1    
   231  116  238 1    
   232  116  239 1    
   233  117  118 2    
   234  117  119 am   BACKBONE|DICT|INTERRES
   235  119  120 1    
   236  119  240 1    
   237  120  121 1    
   238  120  124 1    
   239  120  241 1    
   240  121  122 am   BACKBONE|DICT|INTERRES
   241  121  123 2    
   242  122  242 1    
   243  122  243 1    
   244  124  125 1    
   245  124  244 1    
   246  124  245 1    
   247  125  126 1    
   248  126  246 1    
   249  126  247 1    
@<TRIPOS>SUBSTRUCTURE
     1 UNK         1 GROUP             0       ****    0 ROOT    
