@<TRIPOS>MOLECULE
3R540
247   249    1
SMALL
USER_CHARGES


@<TRIPOS>ATOM
      1 CA          4.4835  -10.9069  -49.1540 C.3       0 UNK        -0.1800 
      2 C           3.5591  -11.6577  -48.2066 C.2       0 UNK         0.5000 
      3 O           3.9452  -11.9517  -47.0744 O.2       0 UNK        -0.5000 
      4 N           2.3343  -11.9596  -48.6543 N.am      1 UNK        -0.5000 
      5 CA          1.3039  -12.6992  -47.9134 C.3       1 UNK         0.1400 
      6 C6          0.2900  -13.3905  -48.8625 C.3       23 UNK        -0.0398 
      7 S7          1.0945  -14.5506  -50.0139 S.3       23 UNK        -0.2404 
      8 C8          0.8342  -16.1191  -49.1376 C.3       23 UNK        -0.0205 
      9 C9          1.6505  -17.2296  -49.7714 C.ar      23 UNK        -0.0193 
     10 C10         1.1249  -17.9695  -50.8332 C.ar      23 UNK        -0.1150 
     11 C11         1.8756  -18.9898  -51.4221 C.ar      23 UNK        -0.0193 
     12 C12         3.1556  -19.2725  -50.9389 C.ar      23 UNK        -0.1150 
     13 C13         3.6901  -18.5406  -49.8756 C.ar      23 UNK        -0.0193 
     14 C14         2.9337  -17.5176  -49.2967 C.ar      23 UNK        -0.1150 
     15 C15         5.0872  -18.8517  -49.3604 C.3       23 UNK        -0.0205 
     16 S16         5.0532  -19.7374  -47.7716 S.3       23 UNK        -0.2404 
     17 C17         4.1796  -21.2756  -48.2235 C.3       23 UNK        -0.0398 
     18 CA          4.2882  -22.3534  -47.1156 C.3       11 UNK         0.1400 
     19 N           3.6937  -21.8956  -45.8553 N.am      11 UNK        -0.5000 
     20 C           4.1778  -22.1159  -44.6268 C.2       10 UNK         0.5000 
     21 O           5.2405  -22.6965  -44.4051 O.2       10 UNK        -0.5000 
     22 CA          3.3081  -21.6483  -43.4393 C.3       10 UNK         0.1400 
     23 CB          3.8051  -20.3009  -42.8947 C.3       10 UNK        -0.1800 
     24 N           1.8825  -21.5425  -43.7659 N.am      10 UNK        -0.5000 
     25 C           1.0959  -22.5810  -44.0850 C.2       9 UNK         0.5000 
     26 O           1.4796  -23.7506  -44.0846 O.2       9 UNK        -0.5000 
     27 CA         -0.3354  -22.2548  -44.5490 C.3       9 UNK         0.1400 
     28 CB         -1.2609  -22.0949  -43.3335 C.3       9 UNK        -0.1800 
     29 N          -0.4057  -21.0584  -45.3941 N.am      9 UNK        -0.5000 
     30 C           0.2319  -20.9080  -46.5648 C.2       8 UNK         0.5000 
     31 O           0.9296  -21.7872  -47.0689 O.2       8 UNK        -0.5000 
     32 CA          0.1135  -19.5409  -47.2661 C.3       8 UNK         0.1400 
     33 CB         -1.2024  -19.4239  -48.0470 C.3       8 UNK        -0.1800 
     34 N           0.2258  -18.4227  -46.3288 N.am      8 UNK        -0.5000 
     35 C           1.3425  -18.1257  -45.6489 C.2       7 UNK         0.5000 
     36 O           2.4058  -18.7260  -45.7867 O.2       7 UNK        -0.5000 
     37 CA          1.2381  -17.0111  -44.5937 C.3       7 UNK         0.1400 
     38 CB          1.3938  -15.6172  -45.2243 C.3       7 UNK        -0.1800 
     39 N          -0.0184  -17.0967  -43.8485 N.am      7 UNK        -0.5000 
     40 C          -0.2904  -18.0638  -42.9593 C.2       6 UNK         0.5000 
     41 O           0.5220  -18.9243  -42.6187 O.2       6 UNK        -0.5000 
     42 CA         -1.7222  -18.1121  -42.3942 C.3       6 UNK         0.1400 
     43 CB         -1.8325  -17.3190  -41.0858 C.3       6 UNK        -0.1800 
     44 N          -2.7213  -17.6332  -43.3518 N.am      6 UNK        -0.5000 
     45 C          -3.0855  -18.3266  -44.4398 C.2       5 UNK         0.5000 
     46 O          -2.6070  -19.4191  -44.7341 O.2       5 UNK        -0.5000 
     47 CA         -4.1137  -17.6837  -45.3857 C.3       5 UNK         0.1400 
     48 CB         -5.5429  -17.9941  -44.9185 C.3       5 UNK        -0.1800 
     49 N          -3.9571  -16.2371  -45.5210 N.am      5 UNK        -0.5000 
     50 C          -2.8599  -15.6097  -45.9644 C.2       4 UNK         0.5000 
     51 O          -1.8390  -16.1952  -46.3312 O.2       4 UNK        -0.5000 
     52 CA         -2.8929  -14.0675  -45.9710 C.3       4 UNK         0.1400 
     53 CB         -4.3047  -13.4671  -45.7904 C.3       4 UNK        -0.1800 
     54 N          -1.9749  -13.4805  -44.9898 N.am      4 UNK        -0.5000 
     55 C          -1.9093  -13.7300  -43.6709 C.2       3 UNK         0.5000 
     56 O          -2.6050  -14.5740  -43.1042 O.2       3 UNK        -0.5000 
     57 CA         -0.8994  -12.9082  -42.8394 C.3       3 UNK         0.1400 
     58 CB         -0.0770  -13.7974  -41.8916 C.3       3 UNK        -0.1800 
     59 N           0.0205  -12.1408  -43.6822 N.am      3 UNK        -0.5000 
     60 C          -0.0892  -10.8326  -43.9483 C.2       2 UNK         0.5000 
     61 O          -0.9576  -10.1024  -43.4699 O.2       2 UNK        -0.5000 
     62 CA          0.9300  -10.2464  -44.9451 C.3       2 UNK         0.1400 
     63 CB          2.1555   -9.6949  -44.2014 C.3       2 UNK        -0.1800 
     64 N           1.3805  -11.1969  -45.9674 N.am      2 UNK        -0.5000 
     65 C           0.5997  -11.7935  -46.8777 C.2       1 UNK         0.5000 
     66 O          -0.6227  -11.6462  -46.9136 O.2       1 UNK        -0.5000 
     67 C           3.6848  -23.7058  -47.5714 C.2       11 UNK         0.5000 
     68 O           3.9675  -24.1433  -48.6875 O.2       11 UNK        -0.5000 
     69 N           2.8894  -24.3545  -46.7046 N.am      12 UNK        -0.5000 
     70 CA          2.2523  -25.6651  -46.8703 C.3       12 UNK         0.1400 
     71 CB          3.3061  -26.7806  -47.0395 C.3       12 UNK        -0.1800 
     72 C           1.1471  -25.7031  -47.9473 C.2       12 UNK         0.5000 
     73 O           0.9125  -26.7536  -48.5487 O.2       12 UNK        -0.5000 
     74 N           0.4597  -24.5725  -48.1546 N.am      13 UNK        -0.5000 
     75 CA         -0.7434  -24.4761  -48.9843 C.3       13 UNK         0.1400 
     76 CB         -1.0375  -22.9905  -49.2291 C.3       13 UNK        -0.1800 
     77 C          -1.9654  -25.1206  -48.3024 C.2       13 UNK         0.5000 
     78 O          -1.9429  -25.3682  -47.0936 O.2       13 UNK        -0.5000 
     79 N          -3.0533  -25.2886  -49.0691 N.am      14 UNK        -0.5000 
     80 CA         -4.3757  -25.6312  -48.5292 C.3       14 UNK         0.1400 
     81 CB         -5.2677  -26.1821  -49.6533 C.3       14 UNK        -0.1800 
     82 C          -5.0474  -24.4484  -47.7921 C.2       14 UNK         0.5000 
     83 O          -6.0088  -24.6645  -47.0548 O.2       14 UNK        -0.5000 
     84 N          -4.5170  -23.2302  -47.9941 N.am      15 UNK        -0.5000 
     85 CA         -4.7491  -21.9644  -47.2822 C.3       15 UNK         0.1400 
     86 CB         -4.3620  -22.1102  -45.8012 C.3       15 UNK        -0.1800 
     87 C          -6.1479  -21.3318  -47.4183 C.2       15 UNK         0.5000 
     88 O          -6.2476  -20.1056  -47.3915 O.2       15 UNK        -0.5000 
     89 N          -7.1924  -22.1531  -47.5753 N.am      16 UNK        -0.5000 
     90 CA         -8.6093  -21.7688  -47.5848 C.3       16 UNK         0.1400 
     91 CB         -9.4583  -23.0462  -47.6761 C.3       16 UNK        -0.1800 
     92 C          -9.0210  -20.7743  -48.6907 C.2       16 UNK         0.5000 
     93 O         -10.0396  -20.0969  -48.5456 O.2       16 UNK        -0.5000 
     94 N          -8.2288  -20.7027  -49.7641 N.am      17 UNK        -0.5000 
     95 CA         -8.4010  -19.7915  -50.8909 C.3       17 UNK         0.1400 
     96 CB         -9.1991  -20.4938  -52.0061 C.3       17 UNK        -0.1800 
     97 C          -7.0219  -19.2963  -51.3535 C.2       17 UNK         0.5000 
     98 O          -6.6921  -19.3941  -52.5355 O.2       17 UNK        -0.5000 
     99 N          -6.1976  -18.8327  -50.4041 N.am      18 UNK        -0.5000 
    100 CA        -4.8658  -18.2798  -50.6641 C.3       18 UNK         0.1400 
    101 CB        -4.2080  -17.9216  -49.3237 C.3       18 UNK        -0.1800 
    102 C         -4.9156  -17.0385  -51.5889 C.2       18 UNK         0.5000 
    103 O         -5.8483  -16.2441  -51.4641 O.2       18 UNK        -0.5000 
    104 N         -3.9466  -16.8257  -52.4913 N.am      19 UNK        -0.5000 
    105 CA        -2.7528  -17.6357  -52.7577 C.3       19 UNK         0.1400 
    106 CB        -1.6598  -16.7051  -53.3074 C.3       19 UNK        -0.1800 
    107 C         -2.9960  -18.8070  -53.7340 C.2       19 UNK         0.5000 
    108 O         -2.1012  -19.6340  -53.9024 O.2       19 UNK        -0.5000 
    109 N         -4.1837  -18.8820  -54.3550 N.am      20 UNK        -0.5000 
    110 CA        -4.5573  -19.9218  -55.3259 C.3       20 UNK         0.1400 
    111 CB        -5.9284  -19.5903  -55.9339 C.3       20 UNK        -0.1800 
    112 C         -4.5462  -21.3502  -54.7429 C.2       20 UNK         0.5000 
    113 O         -4.2227  -22.3018  -55.4554 O.2       20 UNK        -0.5000 
    114 N         -4.8293  -21.4619  -53.4385 N.am      21 UNK        -0.5000 
    115 CA        -4.7544  -22.6799  -52.6262 C.3       21 UNK         0.1400 
    116 CB        -5.3514  -22.3827  -51.2447 C.3       21 UNK        -0.1800 
    117 C         -3.3488  -23.3102  -52.4960 C.2       21 UNK         0.5000 
    118 O         -3.2335  -24.3954  -51.9218 O.2       21 UNK        -0.5000 
    119 N         -2.3099  -22.6460  -53.0179 N.am      22 UNK        -0.5000 
    120 CA        -0.9921  -23.2478  -53.2753 C.3       22 UNK         0.1400 
    121 C         -0.9770  -24.2224  -54.4911 C.2       22 UNK         0.5000 
    122 N         -1.9713  -24.2156  -55.3731 N.am      22 UNK        -0.7600 
    123 O         -0.0441  -25.0078  -54.6330 O.2       22 UNK        -0.5000 
    124 C124        0.1101  -22.1742  -53.4401 C.3       23 UNK        -0.0398 
    125 S125        0.3381  -21.1919  -51.9274 S.3       23 UNK        -0.2404 
    126 C126        1.3027  -19.8002  -52.5696 C.3       23 UNK        -0.0205 
    127 H127        4.7700   -9.9498  -48.7182 H         1 UNK         0.0600 
    128 H128        4.0083  -10.7147  -50.1162 H         1 UNK         0.0600 
    129 H129        5.3890  -11.4870  -49.3317 H         1 UNK         0.0600 
    130 H130        2.0729  -11.6793  -49.5888 H         1 UNK         0.3000 
    131 H131        1.7986  -13.4881  -47.3433 H         1 UNK         0.0600 
    132 H132       -0.2495  -12.6480  -49.4530 H         1 UNK         0.0800 
    133 H133       -0.4668  -13.9328  -48.2929 H         1 UNK         0.0800 
    134 H134        1.1172  -16.0069  -48.0917 H         1 UNK         0.0800 
    135 H135       -0.2271  -16.3713  -49.1465 H         1 UNK         0.0800 
    136 H136        0.1319  -17.7531  -51.1990 H         1 UNK         0.1150 
    137 H137        3.7332  -20.0681  -51.3882 H         1 UNK         0.1150 
    138 H138        3.3436  -16.9511  -48.4723 H         1 UNK         0.1150 
    139 H139        5.6478  -19.4394  -50.0890 H         1 UNK         0.0800 
    140 H140        5.6390  -17.9194  -49.2322 H         1 UNK         0.0800 
    141 H141        3.1347  -21.0392  -48.4306 H         1 UNK         0.0800 
    142 H142        4.6064  -21.6396  -49.1595 H         1 UNK         0.0800 
    143 H143        5.3512  -22.5448  -46.9561 H         1 UNK         0.0600 
    144 H144        2.8096  -21.4110  -45.9474 H         1 UNK         0.3000 
    145 H145        3.4123  -22.3920  -42.6467 H         1 UNK         0.0600 
    146 H146        3.2256  -19.9875  -42.0260 H         1 UNK         0.0600 
    147 H147        3.7371  -19.5128  -43.6443 H         1 UNK         0.0600 
    148 H148        4.8485  -20.3670  -42.5839 H         1 UNK         0.0600 
    149 H149        1.4830  -20.6116  -43.7628 H         1 UNK         0.3000 
    150 H150       -0.6941  -23.0974  -45.1444 H         1 UNK         0.0600 
    151 H151       -1.2711  -23.0041  -42.7312 H         1 UNK         0.0600 
    152 H152       -2.2887  -21.8948  -43.6328 H         1 UNK         0.0600 
    153 H153       -0.9367  -21.2796  -42.6875 H         1 UNK         0.0600 
    154 H154       -1.0308  -20.3197  -45.0797 H         1 UNK         0.3000 
    155 H155        0.9367  -19.4637  -47.9794 H         1 UNK         0.0600 
    156 H156       -1.2463  -20.1563  -48.8525 H         1 UNK         0.0600 
    157 H157       -1.2948  -18.4408  -48.5054 H         1 UNK         0.0600 
    158 H158       -2.0697  -19.5788  -47.4055 H         1 UNK         0.0600 
    159 H159       -0.6016  -17.8549  -46.1831 H         1 UNK         0.3000 
    160 H160        2.0633  -17.1497  -43.8915 H         1 UNK         0.0600 
    161 H161        0.5442  -15.3515  -45.8511 H         1 UNK         0.0600 
    162 H162        2.2893  -15.5709  -45.8457 H         1 UNK         0.0600 
    163 H163        1.4982  -14.8490  -44.4601 H         1 UNK         0.0600 
    164 H164       -0.7622  -16.4711  -44.1232 H         1 UNK         0.3000 
    165 H165       -1.9465  -19.1553  -42.1635 H         1 UNK         0.0600 
    166 H166       -2.8175  -17.4402  -40.6348 H         1 UNK         0.0600 
    167 H167       -1.0961  -17.6606  -40.3572 H         1 UNK         0.0600 
    168 H168       -1.6684  -16.2559  -41.2459 H         1 UNK         0.0600 
    169 H169       -3.0929  -16.7016  -43.2043 H         1 UNK         0.3000 
    170 H170       -3.9723  -18.1291  -46.3715 H         1 UNK         0.0600 
    171 H171       -5.6923  -19.0677  -44.7992 H         1 UNK         0.0600 
    172 H172       -5.7662  -17.5234  -43.9603 H         1 UNK         0.0600 
    173 H173       -6.2777  -17.6475  -45.6454 H         1 UNK         0.0600 
    174 H174       -4.7345  -15.6715  -45.2137 H         1 UNK         0.3000 
    175 H175       -2.5332  -13.7640  -46.9547 H         1 UNK         0.0600 
    176 H176       -4.7197  -13.6744  -44.8033 H         1 UNK         0.0600 
    177 H177       -4.2803  -12.3840  -45.9122 H         1 UNK         0.0600 
    178 H178       -4.9992  -13.8548  -46.5370 H         1 UNK         0.0600 
    179 H179       -1.3688  -12.7609  -45.3665 H         1 UNK         0.3000 
    180 H180       -1.4869  -12.2283  -42.2193 H         1 UNK         0.0600 
    181 H181       -0.7086  -14.2067  -41.1039 H         1 UNK         0.0600 
    182 H182        0.7105  -13.2273  -41.3982 H         1 UNK         0.0600 
    183 H183        0.3897  -14.6334  -42.4107 H         1 UNK         0.0600 
    184 H184        0.7725  -12.6532  -44.1185 H         1 UNK         0.3000 
    185 H185        0.4413   -9.4169  -45.4603 H         1 UNK         0.0600 
    186 H186        1.8602   -8.9626  -43.4487 H         1 UNK         0.0600 
    187 H187        2.7064  -10.4866  -43.6920 H         1 UNK         0.0600 
    188 H188        2.8414   -9.1965  -44.8867 H         1 UNK         0.0600 
    189 H189        2.3807  -11.3632  -46.0331 H         1 UNK         0.3000 
    190 H190        2.6867  -23.8990  -45.8226 H         1 UNK         0.3000 
    191 H191        1.7380  -25.8564  -45.9276 H         1 UNK         0.0600 
    192 H192        2.8438  -27.7667  -46.9825 H         1 UNK         0.0600 
    193 H193        4.0606  -26.7332  -46.2543 H         1 UNK         0.0600 
    194 H194        3.8159  -26.7163  -48.0009 H         1 UNK         0.0600 
    195 H195        0.7155  -23.7384  -47.6364 H         1 UNK         0.3000 
    196 H196       -0.5564  -24.9707  -49.9397 H         1 UNK         0.0600 
    197 H197       -1.4683  -22.5172  -48.3464 H         1 UNK         0.0600 
    198 H198       -0.1271  -22.4493  -49.4793 H         1 UNK         0.0600 
    199 H199       -1.7383  -22.8514  -50.0509 H         1 UNK         0.0600 
    200 H200       -3.0125  -25.0703  -50.0617 H         1 UNK         0.3000 
    201 H201       -4.2508  -26.4278  -47.7926 H         1 UNK         0.0600 
    202 H202       -6.2639  -26.4245  -49.2808 H         1 UNK         0.0600 
    203 H203       -4.8474  -27.0983  -50.0682 H         1 UNK         0.0600 
    204 H204       -5.3868  -25.4762  -50.4730 H         1 UNK         0.0600 
    205 H205       -3.7624  -23.1966  -48.6619 H         1 UNK         0.3000 
    206 H206       -4.0551  -21.2496  -47.7271 H         1 UNK         0.0600 
    207 H207       -3.3197  -22.4123  -45.7027 H         1 UNK         0.0600 
    208 H208       -4.4816  -21.1675  -45.2686 H         1 UNK         0.0600 
    209 H209       -4.9771  -22.8496  -45.2879 H         1 UNK         0.0600 
    210 H210       -6.9933  -23.1489  -47.5299 H         1 UNK         0.3000 
    211 H211       -8.8198  -21.2860  -46.6285 H         1 UNK         0.0600 
    212 H212       -9.2627  -23.5912  -48.6004 H         1 UNK         0.0600 
    213 H213      -10.5237  -22.8136  -47.6498 H         1 UNK         0.0600 
    214 H214       -9.2528  -23.7171  -46.8415 H         1 UNK         0.0600 
    215 H215       -7.3997  -21.2780  -49.7763 H         1 UNK         0.3000 
    216 H216       -8.9552  -18.9057  -50.5739 H         1 UNK         0.0600 
    217 H217      -10.1822  -20.8036  -51.6514 H         1 UNK         0.0600 
    218 H218       -8.6809  -21.3802  -52.3739 H         1 UNK         0.0600 
    219 H219       -9.3560  -19.8271  -52.8549 H         1 UNK         0.0600 
    220 H220       -6.5191  -18.8104  -49.4452 H         1 UNK         0.3000 
    221 H221       -4.2873  -19.0749  -51.1334 H         1 UNK         0.0600 
    222 H222       -3.2262  -17.4719  -49.4734 H         1 UNK         0.0600 
    223 H223       -4.8092  -17.2088  -48.7578 H         1 UNK         0.0600 
    224 H224       -4.0728  -18.8093  -48.7070 H         1 UNK         0.0600 
    225 H225       -4.0291  -16.0007  -53.0672 H         1 UNK         0.3000 
    226 H226       -2.3770  -18.0585  -51.8246 H         1 UNK         0.0600 
    227 H227       -0.7416  -17.2529  -53.5205 H         1 UNK         0.0600 
    228 H228       -1.9714  -16.2208  -54.2337 H         1 UNK         0.0600 
    229 H229       -1.4079  -15.9251  -52.5883 H         1 UNK         0.0600 
    230 H230       -4.8889  -18.1914  -54.1401 H         1 UNK         0.3000 
    231 H231       -3.8183  -19.8976  -56.1294 H         1 UNK         0.0600 
    232 H232       -6.2070  -20.3255  -56.6899 H         1 UNK         0.0600 
    233 H233       -5.9195  -18.6143  -56.4193 H         1 UNK         0.0600 
    234 H234       -6.7156  -19.5833  -55.1799 H         1 UNK         0.0600 
    235 H235       -5.1800  -20.6294  -52.9780 H         1 UNK         0.3000 
    236 H236       -5.3817  -23.4319  -53.1087 H         1 UNK         0.0600 
    237 H237       -4.8328  -21.5646  -50.7440 H         1 UNK         0.0600 
    238 H238       -6.4050  -22.1273  -51.3344 H         1 UNK         0.0600 
    239 H239       -5.2995  -23.2525  -50.5962 H         1 UNK         0.0600 
    240 H240       -2.4578  -21.7272  -53.4172 H         1 UNK         0.3000 
    241 H241       -0.7280  -23.8536  -52.4063 H         1 UNK         0.0600 
    242 H242       -2.7429  -23.5594  -55.2971 H         1 UNK         0.3800 
    243 H243       -1.9440  -24.8573  -56.1494 H         1 UNK         0.3800 
    244 H244       -0.1279  -21.5080  -54.2711 H         1 UNK         0.0800 
    245 H245        1.0705  -22.6359  -53.6769 H         1 UNK         0.0800 
    246 H246        2.1075  -20.1721  -53.2056 H         1 UNK         0.0800 
    247 H247        0.6681  -19.1772  -53.2006 H         1 UNK         0.0800 
@<TRIPOS>BOND
     1    1    2 1    
     2    1  127 1    
     3    1  128 1    
     4    1  129 1    
     5    2    3 2    
     6    2    4 am   BACKBONE|DICT|INTERRES
     7    4    5 1    
     8    4  130 1    
     9    5    6 1    
    10    5   65 1    
    11    5  131 1    
    12    6    7 1    
    13    6  132 1    
    14    6  133 1    
    15    7    8 1    
    16    8    9 1    
    17    8  134 1    
    18    8  135 1    
    19    9   10 ar   
    20    9   14 ar   
    21   10   11 ar   
    22   10  136 1    
    23   11   12 ar   
    24   11  126 1    
    25   12   13 ar   
    26   12  137 1    
    27   13   14 ar   
    28   13   15 1    
    29   14  138 1    
    30   15   16 1    
    31   15  139 1    
    32   15  140 1    
    33   16   17 1    
    34   17   18 1    
    35   17  141 1    
    36   17  142 1    
    37   18   19 1    
    38   18   67 1    
    39   18  143 1    
    40   19   20 am   BACKBONE|DICT|INTERRES
    41   19  144 1    
    42   20   21 2    
    43   20   22 1    
    44   22   23 1    
    45   22   24 1    
    46   22  145 1    
    47   23  146 1    
    48   23  147 1    
    49   23  148 1    
    50   24   25 am   BACKBONE|DICT|INTERRES
    51   24  149 1    
    52   25   26 2    
    53   25   27 1    
    54   27   28 1    
    55   27   29 1    
    56   27  150 1    
    57   28  151 1    
    58   28  152 1    
    59   28  153 1    
    60   29   30 am   BACKBONE|DICT|INTERRES
    61   29  154 1    
    62   30   31 2    
    63   30   32 1    
    64   32   33 1    
    65   32   34 1    
    66   32  155 1    
    67   33  156 1    
    68   33  157 1    
    69   33  158 1    
    70   34   35 am   BACKBONE|DICT|INTERRES
    71   34  159 1    
    72   35   36 2    
    73   35   37 1    
    74   37   38 1    
    75   37   39 1    
    76   37  160 1    
    77   38  161 1    
    78   38  162 1    
    79   38  163 1    
    80   39   40 am   BACKBONE|DICT|INTERRES
    81   39  164 1    
    82   40   41 2    
    83   40   42 1    
    84   42   43 1    
    85   42   44 1    
    86   42  165 1    
    87   43  166 1    
    88   43  167 1    
    89   43  168 1    
    90   44   45 am   BACKBONE|DICT|INTERRES
    91   44  169 1    
    92   45   46 2    
    93   45   47 1    
    94   47   48 1    
    95   47   49 1    
    96   47  170 1    
    97   48  171 1    
    98   48  172 1    
    99   48  173 1    
   100   49   50 am   BACKBONE|DICT|INTERRES
   101   49  174 1    
   102   50   51 2    
   103   50   52 1    
   104   52   53 1    
   105   52   54 1    
   106   52  175 1    
   107   53  176 1    
   108   53  177 1    
   109   53  178 1    
   110   54   55 am   BACKBONE|DICT|INTERRES
   111   54  179 1    
   112   55   56 2    
   113   55   57 1    
   114   57   58 1    
   115   57   59 1    
   116   57  180 1    
   117   58  181 1    
   118   58  182 1    
   119   58  183 1    
   120   59   60 am   BACKBONE|DICT|INTERRES
   121   59  184 1    
   122   60   61 2    
   123   60   62 1    
   124   62   63 1    
   125   62   64 1    
   126   62  185 1    
   127   63  186 1    
   128   63  187 1    
   129   63  188 1    
   130   64   65 am   BACKBONE|DICT|INTERRES
   131   64  189 1    
   132   65   66 2    
   133   67   68 2    
   134   67   69 am   BACKBONE|DICT|INTERRES
   135   69   70 1    
   136   69  190 1    
   137   70   71 1    
   138   70   72 1    
   139   70  191 1    
   140   71  192 1    
   141   71  193 1    
   142   71  194 1    
   143   72   73 2    
   144   72   74 am   BACKBONE|DICT|INTERRES
   145   74   75 1    
   146   74  195 1    
   147   75   76 1    
   148   75   77 1    
   149   75  196 1    
   150   76  197 1    
   151   76  198 1    
   152   76  199 1    
   153   77   78 2    
   154   77   79 am   BACKBONE|DICT|INTERRES
   155   79   80 1    
   156   79  200 1    
   157   80   81 1    
   158   80   82 1    
   159   80  201 1    
   160   81  202 1    
   161   81  203 1    
   162   81  204 1    
   163   82   83 2    
   164   82   84 am   BACKBONE|DICT|INTERRES
   165   84   85 1    
   166   84  205 1    
   167   85   86 1    
   168   85   87 1    
   169   85  206 1    
   170   86  207 1    
   171   86  208 1    
   172   86  209 1    
   173   87   88 2    
   174   87   89 am   BACKBONE|DICT|INTERRES
   175   89   90 1    
   176   89  210 1    
   177   90   91 1    
   178   90   92 1    
   179   90  211 1    
   180   91  212 1    
   181   91  213 1    
   182   91  214 1    
   183   92   93 2    
   184   92   94 am   BACKBONE|DICT|INTERRES
   185   94   95 1    
   186   94  215 1    
   187   95   96 1    
   188   95   97 1    
   189   95  216 1    
   190   96  217 1    
   191   96  218 1    
   192   96  219 1    
   193   97   98 2    
   194   97   99 am   BACKBONE|DICT|INTERRES
   195   99  100 1    
   196   99  220 1    
   197  100  101 1    
   198  100  102 1    
   199  100  221 1    
   200  101  222 1    
   201  101  223 1    
   202  101  224 1    
   203  102  103 2    
   204  102  104 am   BACKBONE|DICT|INTERRES
   205  104  105 1    
   206  104  225 1    
   207  105  106 1    
   208  105  107 1    
   209  105  226 1    
   210  106  227 1    
   211  106  228 1    
   212  106  229 1    
   213  107  108 2    
   214  107  109 am   BACKBONE|DICT|INTERRES
   215  109  110 1    
   216  109  230 1    
   217  110  111 1    
   218  110  112 1    
   219  110  231 1    
   220  111  232 1    
   221  111  233 1    
   222  111  234 1    
   223  112  113 2    
   224  112  114 am   BACKBONE|DICT|INTERRES
   225  114  115 1    
   226  114  235 1    
   227  115  116 1    
   228  115  117 1    
   229  115  236 1    
   230  116  237 1    
   231  116  238 1    
   232  116  239 1    
   233  117  118 2    
   234  117  119 am   BACKBONE|DICT|INTERRES
   235  119  120 1    
   236  119  240 1    
   237  120  121 1    
   238  120  124 1    
   239  120  241 1    
   240  121  122 am   BACKBONE|DICT|INTERRES
   241  121  123 2    
   242  122  242 1    
   243  122  243 1    
   244  124  125 1    
   245  124  244 1    
   246  124  245 1    
   247  125  126 1    
   248  126  246 1    
   249  126  247 1    
@<TRIPOS>SUBSTRUCTURE
     1 UNK         1 GROUP             0       ****    0 ROOT    
