@<TRIPOS>MOLECULE
3R540
247   249    1
SMALL
USER_CHARGES


@<TRIPOS>ATOM
      1 CA          2.8560  -15.8551  -47.0469 C.3       0 UNK        -0.1800 
      2 C           1.9689  -14.7867  -47.6671 C.2       0 UNK         0.5000 
      3 O           2.3683  -14.1525  -48.6434 O.2       0 UNK        -0.5000 
      4 N           0.7706  -14.5856  -47.1028 N.am      1 UNK        -0.5000 
      5 CA         -0.3108  -13.6981  -47.5636 C.3       1 UNK         0.1400 
      6 C6         -0.8140  -13.9661  -49.0107 C.3       23 UNK        -0.0398 
      7 S7         -1.1583  -15.7303  -49.3444 S.3       23 UNK        -0.2404 
      8 C8          0.0173  -16.0525  -50.6944 C.3       23 UNK        -0.0205 
      9 C9          0.2887  -17.5374  -50.8639 C.ar      23 UNK        -0.0193 
     10 C10        -0.4937  -18.3070  -51.7278 C.ar      23 UNK        -0.1150 
     11 C11        -0.2208  -19.6647  -51.9106 C.ar      23 UNK        -0.0193 
     12 C12         0.8565  -20.2476  -51.2391 C.ar      23 UNK        -0.1150 
     13 C13         1.6492  -19.4885  -50.3709 C.ar      23 UNK        -0.0193 
     14 C14         1.3520  -18.1357  -50.1818 C.ar      23 UNK        -0.1150 
     15 C15         2.8616  -20.1024  -49.6801 C.3       23 UNK        -0.0205 
     16 S16         2.5141  -21.7057  -48.8909 S.3       23 UNK        -0.2404 
     17 C17         1.4961  -21.1927  -47.4689 C.3       23 UNK        -0.0398 
     18 CA          1.1752  -22.3941  -46.5481 C.3       11 UNK         0.1400 
     19 N           0.9056  -21.9871  -45.1678 N.am      11 UNK        -0.5000 
     20 C           0.9031  -22.8264  -44.1222 C.2       10 UNK         0.5000 
     21 O           1.1855  -24.0213  -44.2070 O.2       10 UNK        -0.5000 
     22 CA          0.4856  -22.2470  -42.7579 C.3       10 UNK         0.1400 
     23 CB          1.6763  -21.5661  -42.0670 C.3       10 UNK        -0.1800 
     24 N          -0.6286  -21.3052  -42.8632 N.am      10 UNK        -0.5000 
     25 C          -1.8644  -21.6361  -43.2643 C.2       9 UNK         0.5000 
     26 O          -2.2159  -22.7891  -43.5174 O.2       9 UNK        -0.5000 
     27 CA         -2.8627  -20.4792  -43.4590 C.3       9 UNK         0.1400 
     28 CB         -3.5140  -20.0894  -42.1239 C.3       9 UNK        -0.1800 
     29 N          -2.2615  -19.2935  -44.0740 N.am      9 UNK        -0.5000 
     30 C          -1.6899  -19.2657  -45.2866 C.2       8 UNK         0.5000 
     31 O          -1.6018  -20.2438  -46.0242 O.2       8 UNK        -0.5000 
     32 CA         -1.0540  -17.9362  -45.7237 C.3       8 UNK         0.1400 
     33 CB         -2.1404  -16.9148  -46.0901 C.3       8 UNK        -0.1800 
     34 N          -0.1709  -17.3943  -44.6882 N.am      8 UNK        -0.5000 
     35 C           0.9371  -18.0116  -44.2471 C.2       7 UNK         0.5000 
     36 O           1.3824  -19.0486  -44.7375 O.2       7 UNK        -0.5000 
     37 CA          1.6345  -17.3985  -43.0201 C.3       7 UNK         0.1400 
     38 CB          2.6302  -16.3033  -43.4323 C.3       7 UNK        -0.1800 
     39 N           0.6714  -16.8590  -42.0605 N.am      7 UNK        -0.5000 
     40 C          -0.1491  -17.6120  -41.3126 C.2       6 UNK         0.5000 
     41 O          -0.1438  -18.8423  -41.3202 O.2       6 UNK        -0.5000 
     42 CA         -1.1827  -16.8607  -40.4531 C.3       6 UNK         0.1400 
     43 CB         -0.5624  -16.4267  -39.1169 C.3       6 UNK        -0.1800 
     44 N          -1.7259  -15.6877  -41.1399 N.am      6 UNK        -0.5000 
     45 C          -2.4769  -15.7379  -42.2501 C.2       5 UNK         0.5000 
     46 O          -2.8624  -16.7892  -42.7583 O.2       5 UNK        -0.5000 
     47 CA         -2.7985  -14.3954  -42.9366 C.3       5 UNK         0.1400 
     48 CB         -4.1414  -13.8422  -42.4390 C.3       5 UNK        -0.1800 
     49 N          -1.7485  -13.3964  -42.7186 N.am      5 UNK        -0.5000 
     50 C          -0.5184  -13.4697  -43.2421 C.2       4 UNK         0.5000 
     51 O          -0.1664  -14.3296  -44.0571 O.2       4 UNK        -0.5000 
     52 CA          0.5080  -12.4774  -42.6806 C.3       4 UNK         0.1400 
     53 CB          1.0360  -13.0000  -41.3266 C.3       4 UNK        -0.1800 
     54 N           1.5983  -12.3258  -43.6377 N.am      4 UNK        -0.5000 
     55 C           2.6245  -11.4706  -43.5395 C.2       3 UNK         0.5000 
     56 O           2.7769  -10.6743  -42.6125 O.2       3 UNK        -0.5000 
     57 CA          3.6423  -11.4947  -44.6925 C.3       3 UNK         0.1400 
     58 CB          4.4886  -12.7774  -44.6515 C.3       3 UNK        -0.1800 
     59 N           2.9835  -11.3846  -45.9923 N.am      3 UNK        -0.5000 
     60 C           2.4021  -10.2702  -46.4612 C.2       2 UNK         0.5000 
     61 O           2.4269   -9.1845  -45.8808 O.2       2 UNK        -0.5000 
     62 CA          1.6551  -10.3971  -47.8013 C.3       2 UNK         0.1400 
     63 CB          2.5911  -10.0782  -48.9767 C.3       2 UNK        -0.1800 
     64 N           1.0932  -11.7343  -47.9857 N.am      2 UNK        -0.5000 
     65 C           0.0203  -12.2101  -47.3430 C.2       1 UNK         0.5000 
     66 O          -0.6722  -11.5375  -46.5786 O.2       1 UNK        -0.5000 
     67 C           0.0375  -23.2664  -47.1172 C.2       11 UNK         0.5000 
     68 O           0.3138  -24.3089  -47.7108 O.2       11 UNK        -0.5000 
     69 N          -1.2199  -22.8637  -46.8810 N.am      12 UNK        -0.5000 
     70 CA         -2.4405  -23.5439  -47.3270 C.3       12 UNK         0.1400 
     71 CB         -3.6691  -22.7222  -46.9125 C.3       12 UNK        -0.1800 
     72 C          -2.5848  -24.9941  -46.8299 C.2       12 UNK         0.5000 
     73 O          -3.2713  -25.7814  -47.4783 O.2       12 UNK        -0.5000 
     74 N          -1.9106  -25.3437  -45.7265 N.am      13 UNK        -0.5000 
     75 CA         -1.8064  -26.7136  -45.2213 C.3       13 UNK         0.1400 
     76 CB         -1.1455  -26.6887  -43.8353 C.3       13 UNK        -0.1800 
     77 C          -1.0422  -27.6624  -46.1714 C.2       13 UNK         0.5000 
     78 O          -1.2913  -28.8681  -46.1380 O.2       13 UNK        -0.5000 
     79 N          -0.1441  -27.1104  -46.9998 N.am      14 UNK        -0.5000 
     80 CA          0.6227  -27.8340  -48.0138 C.3       14 UNK         0.1400 
     81 CB          2.1110  -27.4818  -47.8606 C.3       14 UNK        -0.1800 
     82 C           0.1348  -27.4936  -49.4328 C.2       14 UNK         0.5000 
     83 O           0.0189  -28.3924  -50.2662 O.2       14 UNK        -0.5000 
     84 N          -0.1449  -26.2074  -49.6858 N.am      15 UNK        -0.5000 
     85 CA         -0.5493  -25.6705  -50.9881 C.3       15 UNK         0.1400 
     86 CB         -0.2324  -24.1662  -51.0182 C.3       15 UNK        -0.1800 
     87 C          -2.0305  -25.9189  -51.3394 C.2       15 UNK         0.5000 
     88 O          -2.4245  -25.6618  -52.4761 O.2       15 UNK        -0.5000 
     89 N          -2.8224  -26.3831  -50.3623 N.am      16 UNK        -0.5000 
     90 CA         -4.2597  -26.6910  -50.3927 C.3       16 UNK         0.1400 
     91 CB         -4.6202  -27.6548  -51.5411 C.3       16 UNK        -0.1800 
     92 C          -5.1864  -25.4576  -50.3683 C.2       16 UNK         0.5000 
     93 O          -6.3734  -25.6129  -50.0770 O.2       16 UNK        -0.5000 
     94 N          -4.6513  -24.2624  -50.6360 N.am      17 UNK        -0.5000 
     95 CA         -5.3461  -22.9817  -50.5965 C.3       17 UNK         0.1400 
     96 CB         -6.2313  -22.8172  -51.8473 C.3       17 UNK        -0.1800 
     97 C          -4.3036  -21.8598  -50.5299 C.2       17 UNK         0.5000 
     98 O          -3.1709  -22.0576  -50.9727 O.2       17 UNK        -0.5000 
     99 N          -4.7209  -20.7030  -50.0101 N.am      18 UNK        -0.5000 
    100 CA        -3.9931  -19.4382  -50.0156 C.3       18 UNK         0.1400 
    101 CB        -2.8460  -19.4528  -48.9913 C.3       18 UNK        -0.1800 
    102 C         -5.0191  -18.3359  -49.6776 C.2       18 UNK         0.5000 
    103 O         -5.8406  -18.5652  -48.7885 O.2       18 UNK        -0.5000 
    104 N         -5.0136  -17.1541  -50.3111 N.am      19 UNK        -0.5000 
    105 CA        -4.2670  -16.7673  -51.5060 C.3       19 UNK         0.1400 
    106 CB        -4.1958  -15.2298  -51.5774 C.3       19 UNK        -0.1800 
    107 C         -4.9204  -17.3978  -52.7521 C.2       19 UNK         0.5000 
    108 O         -4.5568  -18.5141  -53.1192 O.2       19 UNK        -0.5000 
    109 N         -5.8790  -16.6874  -53.3683 N.am      20 UNK        -0.5000 
    110 CA        -6.7423  -17.1303  -54.4767 C.3       20 UNK         0.1400 
    111 CB        -7.7704  -18.1555  -53.9536 C.3       20 UNK        -0.1800 
    112 C         -5.9756  -17.6529  -55.7138 C.2       20 UNK         0.5000 
    113 O         -6.4426  -18.5748  -56.3870 O.2       20 UNK        -0.5000 
    114 N         -4.7763  -17.0960  -55.9494 N.am      21 UNK        -0.5000 
    115 CA        -3.7818  -17.5143  -56.9493 C.3       21 UNK         0.1400 
    116 CB        -4.2785  -17.1816  -58.3716 C.3       21 UNK        -0.1800 
    117 C         -3.3361  -18.9908  -56.8084 C.2       21 UNK         0.5000 
    118 O         -2.8754  -19.5871  -57.7835 O.2       21 UNK        -0.5000 
    119 N         -3.4997  -19.5542  -55.6029 N.am      22 UNK        -0.5000 
    120 CA        -3.3030  -20.9695  -55.2558 C.3       22 UNK         0.1400 
    121 C         -4.3152  -21.9412  -55.9376 C.2       22 UNK         0.5000 
    122 N         -5.4589  -21.4710  -56.4251 N.am      22 UNK        -0.7600 
    123 O         -4.0796  -23.1443  -56.0055 O.2       22 UNK        -0.5000 
    124 C124       -1.8238  -21.4420  -55.3727 C.3       23 UNK        -0.0398 
    125 S125       -0.6115  -20.3336  -54.5674 S.3       23 UNK        -0.2404 
    126 C126       -1.0980  -20.5002  -52.8250 C.3       23 UNK        -0.0205 
    127 H127        3.6090  -15.3995  -46.4055 H         1 UNK         0.0600 
    128 H128        3.3702  -16.4167  -47.8266 H         1 UNK         0.0600 
    129 H129        2.2744  -16.5623  -46.4571 H         1 UNK         0.0600 
    130 H130        0.5397  -15.1005  -46.2639 H         1 UNK         0.3000 
    131 H131       -1.1494  -13.9025  -46.8984 H         1 UNK         0.0600 
    132 H132       -1.7365  -13.4117  -49.1899 H         1 UNK         0.0800 
    133 H133       -0.0996  -13.5917  -49.7451 H         1 UNK         0.0800 
    134 H134       -0.3762  -15.6311  -51.6206 H         1 UNK         0.0800 
    135 H135        0.9589  -15.5376  -50.5011 H         1 UNK         0.0800 
    136 H136       -1.3071  -17.8508  -52.2715 H         1 UNK         0.1150 
    137 H137        1.0801  -21.2934  -51.3958 H         1 UNK         0.1150 
    138 H138        1.9640  -17.5370  -49.5227 H         1 UNK         0.1150 
    139 H139        3.6434  -20.2463  -50.4268 H         1 UNK         0.0800 
    140 H140        3.2724  -19.4216  -48.9328 H         1 UNK         0.0800 
    141 H141        0.5902  -20.6908  -47.8157 H         1 UNK         0.0800 
    142 H142        2.0670  -20.4436  -46.9192 H         1 UNK         0.0800 
    143 H143        2.0665  -23.0248  -46.5054 H         1 UNK         0.0600 
    144 H144        0.6969  -21.0067  -45.0137 H         1 UNK         0.3000 
    145 H145        0.1605  -23.0792  -42.1300 H         1 UNK         0.0600 
    146 H146        2.0387  -20.7112  -42.6378 H         1 UNK         0.0600 
    147 H147        1.4057  -21.2137  -41.0716 H         1 UNK         0.0600 
    148 H148        2.5094  -22.2605  -41.9511 H         1 UNK         0.0600 
    149 H149       -0.4391  -20.3420  -42.6050 H         1 UNK         0.3000 
    150 H150       -3.6491  -20.8309  -44.1294 H         1 UNK         0.0600 
    151 H151       -4.0008  -20.9488  -41.6612 H         1 UNK         0.0600 
    152 H152       -4.2744  -19.3212  -42.2658 H         1 UNK         0.0600 
    153 H153       -2.7802  -19.7059  -41.4148 H         1 UNK         0.0600 
    154 H154       -2.3244  -18.4275  -43.5450 H         1 UNK         0.3000 
    155 H155       -0.4487  -18.1220  -46.6141 H         1 UNK         0.0600 
    156 H156       -2.6797  -17.2267  -46.9844 H         1 UNK         0.0600 
    157 H157       -1.7098  -15.9400  -46.2956 H         1 UNK         0.0600 
    158 H158       -2.8797  -16.7892  -45.3015 H         1 UNK         0.0600 
    159 H159       -0.4604  -16.5369  -44.2361 H         1 UNK         0.3000 
    160 H160        2.1966  -18.1932  -42.5251 H         1 UNK         0.0600 
    161 H161        2.1457  -15.4884  -43.9682 H         1 UNK         0.0600 
    162 H162        3.4028  -16.7103  -44.0856 H         1 UNK         0.0600 
    163 H163        3.1337  -15.8794  -42.5635 H         1 UNK         0.0600 
    164 H164        0.5798  -15.8561  -42.0234 H         1 UNK         0.3000 
    165 H165       -2.0067  -17.5461  -40.2436 H         1 UNK         0.0600 
    166 H166       -1.3045  -15.9543  -38.4730 H         1 UNK         0.0600 
    167 H167       -0.1638  -17.2857  -38.5753 H         1 UNK         0.0600 
    168 H168        0.2563  -15.7205  -39.2607 H         1 UNK         0.0600 
    169 H169       -1.4745  -14.7846  -40.7684 H         1 UNK         0.3000 
    170 H170       -2.8798  -14.5804  -44.0099 H         1 UNK         0.0600 
    171 H171       -4.9456  -14.5591  -42.6107 H         1 UNK         0.0600 
    172 H172       -4.1182  -13.6244  -41.3705 H         1 UNK         0.0600 
    173 H173       -4.4082  -12.9247  -42.9637 H         1 UNK         0.0600 
    174 H174       -1.9616  -12.6568  -42.0645 H         1 UNK         0.3000 
    175 H175        0.0233  -11.5087  -42.5445 H         1 UNK         0.0600 
    176 H176        1.5984  -13.9266  -41.4453 H         1 UNK         0.0600 
    177 H177        1.6909  -12.2768  -40.8419 H         1 UNK         0.0600 
    178 H178        0.2211  -13.1951  -40.6289 H         1 UNK         0.0600 
    179 H179        1.5230  -12.9334  -44.4420 H         1 UNK         0.3000 
    180 H180        4.3134  -10.6414  -44.5720 H         1 UNK         0.0600 
    181 H181        3.8768  -13.6725  -44.7626 H         1 UNK         0.0600 
    182 H182        5.0194  -12.8617  -43.7023 H         1 UNK         0.0600 
    183 H183        5.2376  -12.7820  -45.4435 H         1 UNK         0.0600 
    184 H184        2.9248  -12.2224  -46.5505 H         1 UNK         0.3000 
    185 H185        0.8399   -9.6703  -47.8031 H         1 UNK         0.0600 
    186 H186        3.0167   -9.0788  -48.8771 H         1 UNK         0.0600 
    187 H187        3.4199  -10.7850  -49.0352 H         1 UNK         0.0600 
    188 H188        2.0558  -10.1101  -49.9259 H         1 UNK         0.0600 
    189 H189        1.6348  -12.3929  -48.5397 H         1 UNK         0.3000 
    190 H190       -1.3560  -21.9675  -46.4144 H         1 UNK         0.3000 
    191 H191       -2.4099  -23.5790  -48.4174 H         1 UNK         0.0600 
    192 H192       -3.7493  -22.6415  -45.8286 H         1 UNK         0.0600 
    193 H193       -4.5887  -23.1815  -47.2775 H         1 UNK         0.0600 
    194 H194       -3.6280  -21.7145  -47.3212 H         1 UNK         0.0600 
    195 H195       -1.3912  -24.6304  -45.2328 H         1 UNK         0.3000 
    196 H196       -2.8194  -27.1053  -45.1088 H         1 UNK         0.0600 
    197 H197       -1.1325  -27.6852  -43.3922 H         1 UNK         0.0600 
    198 H198       -1.6850  -26.0340  -43.1503 H         1 UNK         0.0600 
    199 H199       -0.1134  -26.3418  -43.8891 H         1 UNK         0.0600 
    200 H200       -0.0159  -26.1039  -46.9781 H         1 UNK         0.3000 
    201 H201        0.5178  -28.9123  -47.8778 H         1 UNK         0.0600 
    202 H202        2.4836  -27.7738  -46.8787 H         1 UNK         0.0600 
    203 H203        2.2886  -26.4121  -47.9801 H         1 UNK         0.0600 
    204 H204        2.7147  -28.0015  -48.6057 H         1 UNK         0.0600 
    205 H205        0.0139  -25.5187  -48.9518 H         1 UNK         0.3000 
    206 H206        0.0508  -26.1556  -51.7607 H         1 UNK         0.0600 
    207 H207        0.8175  -23.9767  -50.7935 H         1 UNK         0.0600 
    208 H208       -0.4323  -23.7488  -52.0051 H         1 UNK         0.0600 
    209 H209       -0.8329  -23.6093  -50.2984 H         1 UNK         0.0600 
    210 H210       -2.4023  -26.4955  -49.4487 H         1 UNK         0.3000 
    211 H211       -4.4541  -27.2237  -49.4609 H         1 UNK         0.0600 
    212 H212       -4.5444  -27.1756  -52.5172 H         1 UNK         0.0600 
    213 H213       -5.6456  -28.0118  -51.4382 H         1 UNK         0.0600 
    214 H214       -3.9705  -28.5301  -51.5420 H         1 UNK         0.0600 
    215 H215       -3.6714  -24.1968  -50.8818 H         1 UNK         0.3000 
    216 H216       -5.9633  -22.9391  -49.6966 H         1 UNK         0.0600 
    217 H217       -6.7333  -21.8489  -51.8498 H         1 UNK         0.0600 
    218 H218       -7.0069  -23.5816  -51.8921 H         1 UNK         0.0600 
    219 H219       -5.6432  -22.8835  -52.7639 H         1 UNK         0.0600 
    220 H220       -5.6634  -20.6220  -49.6492 H         1 UNK         0.3000 
    221 H221       -3.5627  -19.3057  -51.0037 H         1 UNK         0.0600 
    222 H222       -3.2284  -19.5074  -47.9730 H         1 UNK         0.0600 
    223 H223       -2.1694  -20.2939  -49.1443 H         1 UNK         0.0600 
    224 H224       -2.2480  -18.5452  -49.0691 H         1 UNK         0.0600 
    225 H225       -5.7011  -16.4790  -50.0125 H         1 UNK         0.3000 
    226 H226       -3.2442  -17.1326  -51.4275 H         1 UNK         0.0600 
    227 H227       -3.6511  -14.8255  -50.7247 H         1 UNK         0.0600 
    228 H228       -3.6708  -14.9028  -52.4760 H         1 UNK         0.0600 
    229 H229       -5.1824  -14.7653  -51.5778 H         1 UNK         0.0600 
    230 H230       -6.0872  -15.7682  -53.0039 H         1 UNK         0.3000 
    231 H231       -7.2922  -16.2502  -54.8128 H         1 UNK         0.0600 
    232 H232       -8.5066  -18.4024  -54.7195 H         1 UNK         0.0600 
    233 H233       -8.3175  -17.7632  -53.0964 H         1 UNK         0.0600 
    234 H234       -7.2906  -19.0860  -53.6472 H         1 UNK         0.0600 
    235 H235       -4.4806  -16.3575  -55.3269 H         1 UNK         0.3000 
    236 H236       -2.8902  -16.9145  -56.7617 H         1 UNK         0.0600 
    237 H237       -5.1327  -17.7970  -58.6556 H         1 UNK         0.0600 
    238 H238       -4.5769  -16.1363  -58.4506 H         1 UNK         0.0600 
    239 H239       -3.4946  -17.3496  -59.1109 H         1 UNK         0.0600 
    240 H240       -3.8934  -18.9935  -54.8532 H         1 UNK         0.3000 
    241 H241       -3.5757  -21.0360  -54.2031 H         1 UNK         0.0600 
    242 H242       -6.1095  -22.1078  -56.8566 H         1 UNK         0.3800 
    243 H243       -5.6825  -20.4825  -56.3806 H         1 UNK         0.3800 
    244 H244       -1.7097  -22.4368  -54.9387 H         1 UNK         0.0800 
    245 H245       -1.5428  -21.5384  -56.4223 H         1 UNK         0.0800 
    246 H246       -1.0571  -21.5498  -52.5348 H         1 UNK         0.0800 
    247 H247       -2.1333  -20.1847  -52.7011 H         1 UNK         0.0800 
@<TRIPOS>BOND
     1    1    2 1    
     2    1  127 1    
     3    1  128 1    
     4    1  129 1    
     5    2    3 2    
     6    2    4 am   BACKBONE|DICT|INTERRES
     7    4    5 1    
     8    4  130 1    
     9    5    6 1    
    10    5   65 1    
    11    5  131 1    
    12    6    7 1    
    13    6  132 1    
    14    6  133 1    
    15    7    8 1    
    16    8    9 1    
    17    8  134 1    
    18    8  135 1    
    19    9   10 ar   
    20    9   14 ar   
    21   10   11 ar   
    22   10  136 1    
    23   11   12 ar   
    24   11  126 1    
    25   12   13 ar   
    26   12  137 1    
    27   13   14 ar   
    28   13   15 1    
    29   14  138 1    
    30   15   16 1    
    31   15  139 1    
    32   15  140 1    
    33   16   17 1    
    34   17   18 1    
    35   17  141 1    
    36   17  142 1    
    37   18   19 1    
    38   18   67 1    
    39   18  143 1    
    40   19   20 am   BACKBONE|DICT|INTERRES
    41   19  144 1    
    42   20   21 2    
    43   20   22 1    
    44   22   23 1    
    45   22   24 1    
    46   22  145 1    
    47   23  146 1    
    48   23  147 1    
    49   23  148 1    
    50   24   25 am   BACKBONE|DICT|INTERRES
    51   24  149 1    
    52   25   26 2    
    53   25   27 1    
    54   27   28 1    
    55   27   29 1    
    56   27  150 1    
    57   28  151 1    
    58   28  152 1    
    59   28  153 1    
    60   29   30 am   BACKBONE|DICT|INTERRES
    61   29  154 1    
    62   30   31 2    
    63   30   32 1    
    64   32   33 1    
    65   32   34 1    
    66   32  155 1    
    67   33  156 1    
    68   33  157 1    
    69   33  158 1    
    70   34   35 am   BACKBONE|DICT|INTERRES
    71   34  159 1    
    72   35   36 2    
    73   35   37 1    
    74   37   38 1    
    75   37   39 1    
    76   37  160 1    
    77   38  161 1    
    78   38  162 1    
    79   38  163 1    
    80   39   40 am   BACKBONE|DICT|INTERRES
    81   39  164 1    
    82   40   41 2    
    83   40   42 1    
    84   42   43 1    
    85   42   44 1    
    86   42  165 1    
    87   43  166 1    
    88   43  167 1    
    89   43  168 1    
    90   44   45 am   BACKBONE|DICT|INTERRES
    91   44  169 1    
    92   45   46 2    
    93   45   47 1    
    94   47   48 1    
    95   47   49 1    
    96   47  170 1    
    97   48  171 1    
    98   48  172 1    
    99   48  173 1    
   100   49   50 am   BACKBONE|DICT|INTERRES
   101   49  174 1    
   102   50   51 2    
   103   50   52 1    
   104   52   53 1    
   105   52   54 1    
   106   52  175 1    
   107   53  176 1    
   108   53  177 1    
   109   53  178 1    
   110   54   55 am   BACKBONE|DICT|INTERRES
   111   54  179 1    
   112   55   56 2    
   113   55   57 1    
   114   57   58 1    
   115   57   59 1    
   116   57  180 1    
   117   58  181 1    
   118   58  182 1    
   119   58  183 1    
   120   59   60 am   BACKBONE|DICT|INTERRES
   121   59  184 1    
   122   60   61 2    
   123   60   62 1    
   124   62   63 1    
   125   62   64 1    
   126   62  185 1    
   127   63  186 1    
   128   63  187 1    
   129   63  188 1    
   130   64   65 am   BACKBONE|DICT|INTERRES
   131   64  189 1    
   132   65   66 2    
   133   67   68 2    
   134   67   69 am   BACKBONE|DICT|INTERRES
   135   69   70 1    
   136   69  190 1    
   137   70   71 1    
   138   70   72 1    
   139   70  191 1    
   140   71  192 1    
   141   71  193 1    
   142   71  194 1    
   143   72   73 2    
   144   72   74 am   BACKBONE|DICT|INTERRES
   145   74   75 1    
   146   74  195 1    
   147   75   76 1    
   148   75   77 1    
   149   75  196 1    
   150   76  197 1    
   151   76  198 1    
   152   76  199 1    
   153   77   78 2    
   154   77   79 am   BACKBONE|DICT|INTERRES
   155   79   80 1    
   156   79  200 1    
   157   80   81 1    
   158   80   82 1    
   159   80  201 1    
   160   81  202 1    
   161   81  203 1    
   162   81  204 1    
   163   82   83 2    
   164   82   84 am   BACKBONE|DICT|INTERRES
   165   84   85 1    
   166   84  205 1    
   167   85   86 1    
   168   85   87 1    
   169   85  206 1    
   170   86  207 1    
   171   86  208 1    
   172   86  209 1    
   173   87   88 2    
   174   87   89 am   BACKBONE|DICT|INTERRES
   175   89   90 1    
   176   89  210 1    
   177   90   91 1    
   178   90   92 1    
   179   90  211 1    
   180   91  212 1    
   181   91  213 1    
   182   91  214 1    
   183   92   93 2    
   184   92   94 am   BACKBONE|DICT|INTERRES
   185   94   95 1    
   186   94  215 1    
   187   95   96 1    
   188   95   97 1    
   189   95  216 1    
   190   96  217 1    
   191   96  218 1    
   192   96  219 1    
   193   97   98 2    
   194   97   99 am   BACKBONE|DICT|INTERRES
   195   99  100 1    
   196   99  220 1    
   197  100  101 1    
   198  100  102 1    
   199  100  221 1    
   200  101  222 1    
   201  101  223 1    
   202  101  224 1    
   203  102  103 2    
   204  102  104 am   BACKBONE|DICT|INTERRES
   205  104  105 1    
   206  104  225 1    
   207  105  106 1    
   208  105  107 1    
   209  105  226 1    
   210  106  227 1    
   211  106  228 1    
   212  106  229 1    
   213  107  108 2    
   214  107  109 am   BACKBONE|DICT|INTERRES
   215  109  110 1    
   216  109  230 1    
   217  110  111 1    
   218  110  112 1    
   219  110  231 1    
   220  111  232 1    
   221  111  233 1    
   222  111  234 1    
   223  112  113 2    
   224  112  114 am   BACKBONE|DICT|INTERRES
   225  114  115 1    
   226  114  235 1    
   227  115  116 1    
   228  115  117 1    
   229  115  236 1    
   230  116  237 1    
   231  116  238 1    
   232  116  239 1    
   233  117  118 2    
   234  117  119 am   BACKBONE|DICT|INTERRES
   235  119  120 1    
   236  119  240 1    
   237  120  121 1    
   238  120  124 1    
   239  120  241 1    
   240  121  122 am   BACKBONE|DICT|INTERRES
   241  121  123 2    
   242  122  242 1    
   243  122  243 1    
   244  124  125 1    
   245  124  244 1    
   246  124  245 1    
   247  125  126 1    
   248  126  246 1    
   249  126  247 1    
@<TRIPOS>SUBSTRUCTURE
     1 UNK         1 GROUP             0       ****    0 ROOT    
