@<TRIPOS>MOLECULE
3R540
247   249    1
SMALL
USER_CHARGES


@<TRIPOS>ATOM
      1 CA         -0.6457  -15.4624  -53.4836 C.3       0 UNK        -0.1800 
      2 C          -1.5347  -14.2287  -53.3507 C.2       0 UNK         0.5000 
      3 O          -1.7443  -13.5276  -54.3386 O.2       0 UNK        -0.5000 
      4 N          -2.0924  -13.9305  -52.1709 N.am      1 UNK        -0.5000 
      5 CA         -1.8666  -14.6078  -50.8894 C.3       1 UNK         0.1400 
      6 C6         -3.0038  -14.2977  -49.8840 C.3       23 UNK        -0.0398 
      7 S7         -4.5429  -15.1644  -50.3440 S.3       23 UNK        -0.2404 
      8 C8         -4.6628  -16.4377  -49.0428 C.3       23 UNK        -0.0205 
      9 C9         -3.3881  -17.2596  -48.8916 C.ar      23 UNK        -0.0193 
     10 C10        -2.8912  -18.0034  -49.9660 C.ar      23 UNK        -0.1150 
     11 C11        -1.7042  -18.7280  -49.8361 C.ar      23 UNK        -0.0193 
     12 C12        -1.0290  -18.7326  -48.6140 C.ar      23 UNK        -0.1150 
     13 C13        -1.5140  -17.9968  -47.5311 C.ar      23 UNK        -0.0193 
     14 C14        -2.6922  -17.2580  -47.6781 C.ar      23 UNK        -0.1150 
     15 C15        -0.7125  -17.9453  -46.2387 C.3       23 UNK        -0.0205 
     16 S16        -1.6876  -18.2791  -44.7369 S.3       23 UNK        -0.2404 
     17 C17        -2.1519  -20.0456  -44.7111 C.3       23 UNK        -0.0398 
     18 CA         -1.5448  -21.0377  -45.7367 C.3       11 UNK         0.1400 
     19 N          -0.0805  -21.1183  -45.7180 N.am      11 UNK        -0.5000 
     20 C           0.6466  -21.8784  -46.5548 C.2       10 UNK         0.5000 
     21 O           0.1679  -22.5387  -47.4757 O.2       10 UNK        -0.5000 
     22 CA          2.1541  -21.9745  -46.2797 C.3       10 UNK         0.1400 
     23 CB          2.9070  -20.8080  -46.9374 C.3       10 UNK        -0.1800 
     24 N           2.4311  -22.0209  -44.8440 N.am      10 UNK        -0.5000 
     25 C           2.1679  -23.0801  -44.0640 C.2       9 UNK         0.5000 
     26 O           1.7166  -24.1435  -44.4899 O.2       9 UNK        -0.5000 
     27 CA          2.4109  -22.9129  -42.5517 C.3       9 UNK         0.1400 
     28 CB          3.8736  -23.2237  -42.2023 C.3       9 UNK        -0.1800 
     29 N           2.0717  -21.5742  -42.0669 N.am      9 UNK        -0.5000 
     30 C           0.8283  -21.0746  -42.0278 C.2       8 UNK         0.5000 
     31 O          -0.1730  -21.7177  -42.3436 O.2       8 UNK        -0.5000 
     32 CA          0.6883  -19.5919  -41.6237 C.3       8 UNK         0.1400 
     33 CB          0.5400  -19.4606  -40.1012 C.3       8 UNK        -0.1800 
     34 N           1.7966  -18.7419  -42.0749 N.am      8 UNK        -0.5000 
     35 C           2.1909  -18.5989  -43.3471 C.2       7 UNK         0.5000 
     36 O           1.6699  -19.2149  -44.2755 O.2       7 UNK        -0.5000 
     37 CA          3.3603  -17.6386  -43.6442 C.3       7 UNK         0.1400 
     38 CB          3.2364  -17.0179  -45.0481 C.3       7 UNK        -0.1800 
     39 N           3.4922  -16.5580  -42.6671 N.am      7 UNK        -0.5000 
     40 C           4.1524  -16.6219  -41.5039 C.2       6 UNK         0.5000 
     41 O           4.6537  -17.6569  -41.0653 O.2       6 UNK        -0.5000 
     42 CA          4.2525  -15.3225  -40.6878 C.3       6 UNK         0.1400 
     43 CB          5.4089  -14.4543  -41.2081 C.3       6 UNK        -0.1800 
     44 N           3.0101  -14.5546  -40.7648 N.am      6 UNK        -0.5000 
     45 C           2.1925  -14.3012  -39.7344 C.2       5 UNK         0.5000 
     46 O           2.4247  -14.6403  -38.5732 O.2       5 UNK        -0.5000 
     47 CA          0.8833  -13.5466  -40.0503 C.3       5 UNK         0.1400 
     48 CB          1.0724  -12.0357  -39.8465 C.3       5 UNK        -0.1800 
     49 N           0.3870  -13.7844  -41.4075 N.am      5 UNK        -0.5000 
     50 C          -0.0275  -14.9706  -41.8722 C.2       4 UNK         0.5000 
     51 O          -0.1272  -15.9770  -41.1708 O.2       4 UNK        -0.5000 
     52 CA         -0.3699  -15.0666  -43.3718 C.3       4 UNK         0.1400 
     53 CB         -1.8914  -14.9817  -43.5684 C.3       4 UNK        -0.1800 
     54 N           0.2605  -14.0857  -44.2635 N.am      4 UNK        -0.5000 
     55 C           1.5565  -13.7657  -44.3589 C.2       3 UNK         0.5000 
     56 O           2.4229  -14.1689  -43.5815 O.2       3 UNK        -0.5000 
     57 CA          1.9455  -12.8710  -45.5526 C.3       3 UNK         0.1400 
     58 CB          3.2913  -12.1603  -45.3245 C.3       3 UNK        -0.1800 
     59 N           2.0239  -13.6342  -46.8012 N.am      3 UNK        -0.5000 
     60 C           0.9835  -14.1473  -47.4711 C.2       2 UNK         0.5000 
     61 O          -0.1885  -14.0350  -47.0993 O.2       2 UNK        -0.5000 
     62 CA          1.3174  -14.9135  -48.7687 C.3       2 UNK         0.1400 
     63 CB          1.9852  -16.2654  -48.4678 C.3       2 UNK        -0.1800 
     64 N           0.1174  -15.1506  -49.5707 N.am      2 UNK        -0.5000 
     65 C          -0.5048  -14.2093  -50.2906 C.2       1 UNK         0.5000 
     66 O          -0.0618  -13.0710  -50.4660 O.2       1 UNK        -0.5000 
     67 C          -2.1600  -22.4306  -45.4945 C.2       11 UNK         0.5000 
     68 O          -3.0191  -22.8527  -46.2654 O.2       11 UNK        -0.5000 
     69 N          -1.6843  -23.1273  -44.4515 N.am      12 UNK        -0.5000 
     70 CA         -2.1210  -24.4728  -44.0781 C.3       12 UNK         0.1400 
     71 CB         -1.4619  -24.8746  -42.7501 C.3       12 UNK        -0.1800 
     72 C          -1.8462  -25.5257  -45.1674 C.2       12 UNK         0.5000 
     73 O          -2.7136  -26.3583  -45.4322 O.2       12 UNK        -0.5000 
     74 N          -0.6641  -25.4538  -45.7956 N.am      13 UNK        -0.5000 
     75 CA         -0.2583  -26.3288  -46.8966 C.3       13 UNK         0.1400 
     76 CB          1.2393  -26.1338  -47.1779 C.3       13 UNK        -0.1800 
     77 C          -1.0849  -26.1074  -48.1776 C.2       13 UNK         0.5000 
     78 O          -1.4707  -27.0792  -48.8284 O.2       13 UNK        -0.5000 
     79 N          -1.3436  -24.8372  -48.5127 N.am      14 UNK        -0.5000 
     80 CA         -2.0991  -24.4266  -49.6971 C.3       14 UNK         0.1400 
     81 CB         -1.7572  -22.9594  -49.9957 C.3       14 UNK        -0.1800 
     82 C          -3.6244  -24.5808  -49.5508 C.2       14 UNK         0.5000 
     83 O          -4.3228  -24.5985  -50.5643 O.2       14 UNK        -0.5000 
     84 N          -4.1098  -24.6282  -48.3009 N.am      15 UNK        -0.5000 
     85 CA         -5.5007  -24.4004  -47.8896 C.3       15 UNK         0.1400 
     86 CB         -6.4420  -25.5128  -48.3953 C.3       15 UNK        -0.1800 
     87 C          -5.9551  -22.9669  -48.2488 C.2       15 UNK         0.5000 
     88 O          -7.0732  -22.7519  -48.7210 O.2       15 UNK        -0.5000 
     89 N          -5.0365  -22.0172  -48.0189 N.am      16 UNK        -0.5000 
     90 CA         -5.1044  -20.5863  -48.3007 C.3       16 UNK         0.1400 
     91 CB         -5.9764  -19.8849  -47.2369 C.3       16 UNK        -0.1800 
     92 C          -5.5126  -20.2968  -49.7603 C.2       16 UNK         0.5000 
     93 O          -4.8059  -20.7059  -50.6837 O.2       16 UNK        -0.5000 
     94 N          -6.6411  -19.5996  -49.9436 N.am      17 UNK        -0.5000 
     95 CA         -7.1651  -19.1414  -51.2298 C.3       17 UNK         0.1400 
     96 CB         -8.3372  -18.1830  -50.9699 C.3       17 UNK        -0.1800 
     97 C          -7.5858  -20.2655  -52.1971 C.2       17 UNK         0.5000 
     98 O          -7.7485  -19.9897  -53.3856 O.2       17 UNK        -0.5000 
     99 N          -7.7287  -21.5067  -51.7061 N.am      18 UNK        -0.5000 
    100 CA        -8.0597  -22.6897  -52.5084 C.3       18 UNK         0.1400 
    101 CB        -8.2802  -23.8882  -51.5768 C.3       18 UNK        -0.1800 
    102 C         -7.0022  -23.0339  -53.5781 C.2       18 UNK         0.5000 
    103 O         -7.3478  -23.6355  -54.5956 O.2       18 UNK        -0.5000 
    104 N         -5.7469  -22.6215  -53.3513 N.am      19 UNK        -0.5000 
    105 CA        -4.6481  -22.7363  -54.3119 C.3       19 UNK         0.1400 
    106 CB        -3.3172  -22.6203  -53.5540 C.3       19 UNK        -0.1800 
    107 C         -4.7102  -21.6920  -55.4461 C.2       19 UNK         0.5000 
    108 O         -3.9640  -21.8225  -56.4162 O.2       19 UNK        -0.5000 
    109 N         -5.5606  -20.6639  -55.2983 N.am      20 UNK        -0.5000 
    110 CA        -5.7634  -19.4897  -56.1583 C.3       20 UNK         0.1400 
    111 CB        -6.1430  -19.8854  -57.5982 C.3       20 UNK        -0.1800 
    112 C         -4.5960  -18.4828  -56.1367 C.2       20 UNK         0.5000 
    113 O         -4.8447  -17.2779  -56.0823 O.2       20 UNK        -0.5000 
    114 N         -3.3554  -18.9772  -56.1491 N.am      21 UNK        -0.5000 
    115 CA        -2.1218  -18.2103  -56.0361 C.3       21 UNK         0.1400 
    116 CB        -1.7420  -17.6183  -57.4051 C.3       21 UNK        -0.1800 
    117 C         -1.0134  -19.1281  -55.5010 C.2       21 UNK         0.5000 
    118 O         -1.1139  -20.3516  -55.6192 O.2       21 UNK        -0.5000 
    119 N          0.0300  -18.5190  -54.9343 N.am      22 UNK        -0.5000 
    120 CA         1.1906  -19.2053  -54.3463 C.3       22 UNK         0.1400 
    121 C          2.4994  -18.3622  -54.3948 C.2       22 UNK         0.5000 
    122 N          2.5754  -17.2984  -55.1874 N.am      22 UNK        -0.7600 
    123 O          3.4769  -18.6854  -53.7255 O.2       22 UNK        -0.5000 
    124 C124        0.8826  -19.8086  -52.9475 C.3       23 UNK        -0.0398 
    125 S125        0.2855  -18.5861  -51.7276 S.3       23 UNK        -0.2404 
    126 C126       -1.1261  -19.4843  -51.0172 C.3       23 UNK        -0.0205 
    127 H127       -1.2020  -16.3630  -53.2247 H         1 UNK         0.0600 
    128 H128        0.2308  -15.3910  -52.8401 H         1 UNK         0.0600 
    129 H129       -0.2945  -15.5651  -54.5101 H         1 UNK         0.0600 
    130 H130       -2.6703  -13.1049  -52.1150 H         1 UNK         0.3000 
    131 H131       -1.8463  -15.6840  -51.0650 H         1 UNK         0.0600 
    132 H132       -2.7266  -14.5798  -48.8665 H         1 UNK         0.0800 
    133 H133       -3.2030  -13.2255  -49.8441 H         1 UNK         0.0800 
    134 H134       -4.9224  -15.9512  -48.1013 H         1 UNK         0.0800 
    135 H135       -5.4922  -17.1026  -49.2816 H         1 UNK         0.0800 
    136 H136       -3.4187  -17.9990  -50.9097 H         1 UNK         0.1150 
    137 H137       -0.1066  -19.2889  -48.5193 H         1 UNK         0.1150 
    138 H138       -3.0574  -16.6706  -46.8474 H         1 UNK         0.1150 
    139 H139        0.1564  -18.5985  -46.2834 H         1 UNK         0.0800 
    140 H140       -0.3119  -16.9358  -46.1418 H         1 UNK         0.0800 
    141 H141       -1.9563  -20.3903  -43.6955 H         1 UNK         0.0800 
    142 H142       -3.2392  -20.0580  -44.8095 H         1 UNK         0.0800 
    143 H143       -1.8446  -20.7223  -46.7370 H         1 UNK         0.0600 
    144 H144        0.4042  -20.5676  -45.0163 H         1 UNK         0.3000 
    145 H145        2.5201  -22.9018  -46.7257 H         1 UNK         0.0600 
    146 H146        3.9704  -20.8360  -46.7001 H         1 UNK         0.0600 
    147 H147        2.8138  -20.8550  -48.0231 H         1 UNK         0.0600 
    148 H148        2.5156  -19.8410  -46.6255 H         1 UNK         0.0600 
    149 H149        2.7045  -21.1495  -44.4117 H         1 UNK         0.3000 
    150 H150        1.7755  -23.6331  -42.0319 H         1 UNK         0.0600 
    151 H151        4.1495  -24.2252  -42.5352 H         1 UNK         0.0600 
    152 H152        4.0389  -23.1835  -41.1254 H         1 UNK         0.0600 
    153 H153        4.5600  -22.5198  -42.6745 H         1 UNK         0.0600 
    154 H154        2.8379  -20.9773  -41.7921 H         1 UNK         0.3000 
    155 H155       -0.2227  -19.2107  -42.0891 H         1 UNK         0.0600 
    156 H156       -0.2924  -20.0638  -39.7362 H         1 UNK         0.0600 
    157 H157        0.3422  -18.4280  -39.8126 H         1 UNK         0.0600 
    158 H158        1.4394  -19.7892  -39.5790 H         1 UNK         0.0600 
    159 H159        2.2811  -18.2107  -41.3661 H         1 UNK         0.3000 
    160 H160        4.2736  -18.2365  -43.6267 H         1 UNK         0.0600 
    161 H161        2.2688  -16.5360  -45.1902 H         1 UNK         0.0600 
    162 H162        3.3383  -17.7769  -45.8233 H         1 UNK         0.0600 
    163 H163        4.0124  -16.2730  -45.2254 H         1 UNK         0.0600 
    164 H164        3.1035  -15.6632  -42.9576 H         1 UNK         0.3000 
    165 H165        4.4735  -15.5999  -39.6551 H         1 UNK         0.0600 
    166 H166        5.2447  -14.1398  -42.2399 H         1 UNK         0.0600 
    167 H167        5.5291  -13.5570  -40.6009 H         1 UNK         0.0600 
    168 H168        6.3534  -14.9989  -41.1751 H         1 UNK         0.0600 
    169 H169        2.7253  -14.2533  -41.6921 H         1 UNK         0.3000 
    170 H170        0.1236  -13.8958  -39.3479 H         1 UNK         0.0600 
    171 H171        0.1356  -11.4973  -39.9911 H         1 UNK         0.0600 
    172 H172        1.4180  -11.8183  -38.8349 H         1 UNK         0.0600 
    173 H173        1.8076  -11.6254  -40.5400 H         1 UNK         0.0600 
    174 H174        0.4397  -13.0117  -42.0544 H         1 UNK         0.3000 
    175 H175       -0.0310  -16.0494  -43.7027 H         1 UNK         0.0600 
    176 H176       -2.1662  -15.1685  -44.6070 H         1 UNK         0.0600 
    177 H177       -2.4088  -15.7245  -42.9596 H         1 UNK         0.0600 
    178 H178       -2.2776  -14.0005  -43.2899 H         1 UNK         0.0600 
    179 H179       -0.3290  -13.7590  -45.0208 H         1 UNK         0.3000 
    180 H180        1.1766  -12.1030  -45.6605 H         1 UNK         0.0600 
    181 H181        4.1171  -12.8696  -45.2526 H         1 UNK         0.0600 
    182 H182        3.2755  -11.5812  -44.4003 H         1 UNK         0.0600 
    183 H183        3.5142  -11.4679  -46.1365 H         1 UNK         0.0600 
    184 H184        2.9543  -13.7906  -47.1604 H         1 UNK         0.3000 
    185 H185        2.0138  -14.3078  -49.3524 H         1 UNK         0.0600 
    186 H186        2.2094  -16.8065  -49.3876 H         1 UNK         0.0600 
    187 H187        2.9278  -16.1305  -47.9368 H         1 UNK         0.0600 
    188 H188        1.3532  -16.9050  -47.8547 H         1 UNK         0.0600 
    189 H189       -0.3264  -16.0496  -49.4464 H         1 UNK         0.3000 
    190 H190       -0.9981  -22.6904  -43.8428 H         1 UNK         0.3000 
    191 H191       -3.2010  -24.4351  -43.9220 H         1 UNK         0.0600 
    192 H192       -1.7936  -25.8639  -42.4325 H         1 UNK         0.0600 
    193 H193       -1.7186  -24.1743  -41.9551 H         1 UNK         0.0600 
    194 H194       -0.3751  -24.9027  -42.8316 H         1 UNK         0.0600 
    195 H195        0.0171  -24.7710  -45.4811 H         1 UNK         0.3000 
    196 H196       -0.4103  -27.3621  -46.5778 H         1 UNK         0.0600 
    197 H197        1.5746  -26.7876  -47.9839 H         1 UNK         0.0600 
    198 H198        1.8391  -26.3679  -46.2982 H         1 UNK         0.0600 
    199 H199        1.4633  -25.1078  -47.4714 H         1 UNK         0.0600 
    200 H200       -0.9444  -24.0887  -47.9526 H         1 UNK         0.3000 
    201 H201       -1.7836  -25.0341  -50.5479 H         1 UNK         0.0600 
    202 H202       -0.6941  -22.8409  -50.2056 H         1 UNK         0.0600 
    203 H203       -2.0088  -22.3098  -49.1560 H         1 UNK         0.0600 
    204 H204       -2.3051  -22.5881  -50.8604 H         1 UNK         0.0600 
    205 H205       -3.4328  -24.5688  -47.5500 H         1 UNK         0.3000 
    206 H206       -5.5036  -24.4472  -46.7997 H         1 UNK         0.0600 
    207 H207       -6.1167  -26.4894  -48.0371 H         1 UNK         0.0600 
    208 H208       -7.4592  -25.3575  -48.0341 H         1 UNK         0.0600 
    209 H209       -6.4852  -25.5575  -49.4819 H         1 UNK         0.0600 
    210 H210       -4.1734  -22.3284  -47.5800 H         1 UNK         0.3000 
    211 H211       -4.0870  -20.2072  -48.1934 H         1 UNK         0.0600 
    212 H212       -7.0089  -20.2358  -47.2555 H         1 UNK         0.0600 
    213 H213       -5.9815  -18.8033  -47.3765 H         1 UNK         0.0600 
    214 H214       -5.5861  -20.0709  -46.2361 H         1 UNK         0.0600 
    215 H215       -7.1795  -19.3463  -49.1281 H         1 UNK         0.3000 
    216 H216       -6.3707  -18.5786  -51.7248 H         1 UNK         0.0600 
    217 H217       -9.1551  -18.6812  -50.4479 H         1 UNK         0.0600 
    218 H218       -8.0234  -17.3291  -50.3689 H         1 UNK         0.0600 
    219 H219       -8.7365  -17.7885  -51.9053 H         1 UNK         0.0600 
    220 H220       -7.5544  -21.6640  -50.7207 H         1 UNK         0.3000 
    221 H221       -8.9976  -22.4835  -53.0280 H         1 UNK         0.0600 
    222 H222       -9.0374  -23.6747  -50.8222 H         1 UNK         0.0600 
    223 H223       -8.6120  -24.7640  -52.1359 H         1 UNK         0.0600 
    224 H224       -7.3578  -24.1573  -51.0635 H         1 UNK         0.0600 
    225 H225       -5.5401  -22.1502  -52.4791 H         1 UNK         0.3000 
    226 H226       -4.6888  -23.7234  -54.7769 H         1 UNK         0.0600 
    227 H227       -3.2452  -21.6784  -53.0084 H         1 UNK         0.0600 
    228 H228       -3.2067  -23.4370  -52.8416 H         1 UNK         0.0600 
    229 H229       -2.4665  -22.6705  -54.2352 H         1 UNK         0.0600 
    230 H230       -6.1416  -20.6606  -54.4673 H         1 UNK         0.3000 
    231 H231       -6.6237  -18.9707  -55.7328 H         1 UNK         0.0600 
    232 H232       -6.4277  -19.0061  -58.1771 H         1 UNK         0.0600 
    233 H233       -6.9910  -20.5703  -57.6082 H         1 UNK         0.0600 
    234 H234       -5.3170  -20.3637  -58.1247 H         1 UNK         0.0600 
    235 H235       -3.2290  -19.9862  -56.1897 H         1 UNK         0.3000 
    236 H236       -2.2723  -17.4019  -55.3177 H         1 UNK         0.0600 
    237 H237       -2.5149  -16.9440  -57.7741 H         1 UNK         0.0600 
    238 H238       -0.8169  -17.0443  -57.3434 H         1 UNK         0.0600 
    239 H239       -1.5960  -18.4000  -58.1517 H         1 UNK         0.0600 
    240 H240        0.0365  -17.5146  -54.8454 H         1 UNK         0.3000 
    241 H241        1.4224  -20.0481  -55.0002 H         1 UNK         0.0600 
    242 H242        3.4346  -16.7713  -55.2090 H         1 UNK         0.3800 
    243 H243        1.8346  -17.0578  -55.8247 H         1 UNK         0.3800 
    244 H244        0.1339  -20.5937  -53.0606 H         1 UNK         0.0800 
    245 H245        1.7606  -20.3090  -52.5363 H         1 UNK         0.0800 
    246 H246       -0.7908  -20.4659  -50.6851 H         1 UNK         0.0800 
    247 H247       -1.8855  -19.6503  -51.7834 H         1 UNK         0.0800 
@<TRIPOS>BOND
     1    1    2 1    
     2    1  127 1    
     3    1  128 1    
     4    1  129 1    
     5    2    3 2    
     6    2    4 am   BACKBONE|DICT|INTERRES
     7    4    5 1    
     8    4  130 1    
     9    5    6 1    
    10    5   65 1    
    11    5  131 1    
    12    6    7 1    
    13    6  132 1    
    14    6  133 1    
    15    7    8 1    
    16    8    9 1    
    17    8  134 1    
    18    8  135 1    
    19    9   10 ar   
    20    9   14 ar   
    21   10   11 ar   
    22   10  136 1    
    23   11   12 ar   
    24   11  126 1    
    25   12   13 ar   
    26   12  137 1    
    27   13   14 ar   
    28   13   15 1    
    29   14  138 1    
    30   15   16 1    
    31   15  139 1    
    32   15  140 1    
    33   16   17 1    
    34   17   18 1    
    35   17  141 1    
    36   17  142 1    
    37   18   19 1    
    38   18   67 1    
    39   18  143 1    
    40   19   20 am   BACKBONE|DICT|INTERRES
    41   19  144 1    
    42   20   21 2    
    43   20   22 1    
    44   22   23 1    
    45   22   24 1    
    46   22  145 1    
    47   23  146 1    
    48   23  147 1    
    49   23  148 1    
    50   24   25 am   BACKBONE|DICT|INTERRES
    51   24  149 1    
    52   25   26 2    
    53   25   27 1    
    54   27   28 1    
    55   27   29 1    
    56   27  150 1    
    57   28  151 1    
    58   28  152 1    
    59   28  153 1    
    60   29   30 am   BACKBONE|DICT|INTERRES
    61   29  154 1    
    62   30   31 2    
    63   30   32 1    
    64   32   33 1    
    65   32   34 1    
    66   32  155 1    
    67   33  156 1    
    68   33  157 1    
    69   33  158 1    
    70   34   35 am   BACKBONE|DICT|INTERRES
    71   34  159 1    
    72   35   36 2    
    73   35   37 1    
    74   37   38 1    
    75   37   39 1    
    76   37  160 1    
    77   38  161 1    
    78   38  162 1    
    79   38  163 1    
    80   39   40 am   BACKBONE|DICT|INTERRES
    81   39  164 1    
    82   40   41 2    
    83   40   42 1    
    84   42   43 1    
    85   42   44 1    
    86   42  165 1    
    87   43  166 1    
    88   43  167 1    
    89   43  168 1    
    90   44   45 am   BACKBONE|DICT|INTERRES
    91   44  169 1    
    92   45   46 2    
    93   45   47 1    
    94   47   48 1    
    95   47   49 1    
    96   47  170 1    
    97   48  171 1    
    98   48  172 1    
    99   48  173 1    
   100   49   50 am   BACKBONE|DICT|INTERRES
   101   49  174 1    
   102   50   51 2    
   103   50   52 1    
   104   52   53 1    
   105   52   54 1    
   106   52  175 1    
   107   53  176 1    
   108   53  177 1    
   109   53  178 1    
   110   54   55 am   BACKBONE|DICT|INTERRES
   111   54  179 1    
   112   55   56 2    
   113   55   57 1    
   114   57   58 1    
   115   57   59 1    
   116   57  180 1    
   117   58  181 1    
   118   58  182 1    
   119   58  183 1    
   120   59   60 am   BACKBONE|DICT|INTERRES
   121   59  184 1    
   122   60   61 2    
   123   60   62 1    
   124   62   63 1    
   125   62   64 1    
   126   62  185 1    
   127   63  186 1    
   128   63  187 1    
   129   63  188 1    
   130   64   65 am   BACKBONE|DICT|INTERRES
   131   64  189 1    
   132   65   66 2    
   133   67   68 2    
   134   67   69 am   BACKBONE|DICT|INTERRES
   135   69   70 1    
   136   69  190 1    
   137   70   71 1    
   138   70   72 1    
   139   70  191 1    
   140   71  192 1    
   141   71  193 1    
   142   71  194 1    
   143   72   73 2    
   144   72   74 am   BACKBONE|DICT|INTERRES
   145   74   75 1    
   146   74  195 1    
   147   75   76 1    
   148   75   77 1    
   149   75  196 1    
   150   76  197 1    
   151   76  198 1    
   152   76  199 1    
   153   77   78 2    
   154   77   79 am   BACKBONE|DICT|INTERRES
   155   79   80 1    
   156   79  200 1    
   157   80   81 1    
   158   80   82 1    
   159   80  201 1    
   160   81  202 1    
   161   81  203 1    
   162   81  204 1    
   163   82   83 2    
   164   82   84 am   BACKBONE|DICT|INTERRES
   165   84   85 1    
   166   84  205 1    
   167   85   86 1    
   168   85   87 1    
   169   85  206 1    
   170   86  207 1    
   171   86  208 1    
   172   86  209 1    
   173   87   88 2    
   174   87   89 am   BACKBONE|DICT|INTERRES
   175   89   90 1    
   176   89  210 1    
   177   90   91 1    
   178   90   92 1    
   179   90  211 1    
   180   91  212 1    
   181   91  213 1    
   182   91  214 1    
   183   92   93 2    
   184   92   94 am   BACKBONE|DICT|INTERRES
   185   94   95 1    
   186   94  215 1    
   187   95   96 1    
   188   95   97 1    
   189   95  216 1    
   190   96  217 1    
   191   96  218 1    
   192   96  219 1    
   193   97   98 2    
   194   97   99 am   BACKBONE|DICT|INTERRES
   195   99  100 1    
   196   99  220 1    
   197  100  101 1    
   198  100  102 1    
   199  100  221 1    
   200  101  222 1    
   201  101  223 1    
   202  101  224 1    
   203  102  103 2    
   204  102  104 am   BACKBONE|DICT|INTERRES
   205  104  105 1    
   206  104  225 1    
   207  105  106 1    
   208  105  107 1    
   209  105  226 1    
   210  106  227 1    
   211  106  228 1    
   212  106  229 1    
   213  107  108 2    
   214  107  109 am   BACKBONE|DICT|INTERRES
   215  109  110 1    
   216  109  230 1    
   217  110  111 1    
   218  110  112 1    
   219  110  231 1    
   220  111  232 1    
   221  111  233 1    
   222  111  234 1    
   223  112  113 2    
   224  112  114 am   BACKBONE|DICT|INTERRES
   225  114  115 1    
   226  114  235 1    
   227  115  116 1    
   228  115  117 1    
   229  115  236 1    
   230  116  237 1    
   231  116  238 1    
   232  116  239 1    
   233  117  118 2    
   234  117  119 am   BACKBONE|DICT|INTERRES
   235  119  120 1    
   236  119  240 1    
   237  120  121 1    
   238  120  124 1    
   239  120  241 1    
   240  121  122 am   BACKBONE|DICT|INTERRES
   241  121  123 2    
   242  122  242 1    
   243  122  243 1    
   244  124  125 1    
   245  124  244 1    
   246  124  245 1    
   247  125  126 1    
   248  126  246 1    
   249  126  247 1    
@<TRIPOS>SUBSTRUCTURE
     1 UNK         1 GROUP             0       ****    0 ROOT    
