@<TRIPOS>MOLECULE
3R540
247   249    1
SMALL
USER_CHARGES


@<TRIPOS>ATOM
      1 CA         -2.7110  -10.6861  -48.6863 C.3       0 UNK        -0.1800 
      2 C          -1.4184  -11.2212  -49.2871 C.2       0 UNK         0.5000 
      3 O          -0.5595  -10.4362  -49.6908 O.2       0 UNK        -0.5000 
      4 N          -1.2839  -12.5505  -49.3560 N.am      1 UNK        -0.5000 
      5 CA         -0.0864  -13.2541  -49.8249 C.3       1 UNK         0.1400 
      6 C6         -0.4328  -14.6597  -50.3815 C.3       23 UNK        -0.0398 
      7 S7         -1.2355  -15.7755  -49.1814 S.3       23 UNK        -0.2404 
      8 C8         -1.3756  -17.2906  -50.1857 C.3       23 UNK        -0.0205 
      9 C9         -0.0428  -17.9593  -50.5293 C.ar      23 UNK        -0.0193 
     10 C10         0.1074  -18.5612  -51.7831 C.ar      23 UNK        -0.1150 
     11 C11         1.3087  -19.1782  -52.1425 C.ar      23 UNK        -0.0193 
     12 C12         2.3662  -19.2046  -51.2309 C.ar      23 UNK        -0.1150 
     13 C13         2.2364  -18.6122  -49.9720 C.ar      23 UNK        -0.0193 
     14 C14         1.0307  -17.9924  -49.6273 C.ar      23 UNK        -0.1150 
     15 C15         3.4232  -18.5950  -49.0153 C.3       23 UNK        -0.0205 
     16 S16         3.1863  -19.6211  -47.5293 S.3       23 UNK        -0.2404 
     17 C17         2.9994  -21.3075  -48.2176 C.3       23 UNK        -0.0398 
     18 CA          1.8329  -22.1170  -47.5957 C.3       11 UNK         0.1400 
     19 N           1.9830  -22.2899  -46.1479 N.am      11 UNK        -0.5000 
     20 C           1.2074  -23.0478  -45.3623 C.2       10 UNK         0.5000 
     21 O           0.2950  -23.7503  -45.7983 O.2       10 UNK        -0.5000 
     22 CA          1.4339  -22.9589  -43.8376 C.3       10 UNK         0.1400 
     23 CB          2.5929  -23.8652  -43.3837 C.3       10 UNK        -0.1800 
     24 N           1.5833  -21.5818  -43.3432 N.am      10 UNK        -0.5000 
     25 C           2.5721  -20.7082  -43.5898 C.2       9 UNK         0.5000 
     26 O           3.5988  -20.9846  -44.2104 O.2       9 UNK        -0.5000 
     27 CA          2.3400  -19.2618  -43.1337 C.3       9 UNK         0.1400 
     28 CB          1.3722  -18.5665  -44.1029 C.3       9 UNK        -0.1800 
     29 N           1.8069  -19.1518  -41.7816 N.am      9 UNK        -0.5000 
     30 C           2.4650  -19.4581  -40.6571 C.2       8 UNK         0.5000 
     31 O           3.5968  -19.9426  -40.6291 O.2       8 UNK        -0.5000 
     32 CA          1.7306  -19.1596  -39.3399 C.3       8 UNK         0.1400 
     33 CB          1.8518  -17.6698  -38.9792 C.3       8 UNK        -0.1800 
     34 N           0.3162  -19.5173  -39.4349 N.am      8 UNK        -0.5000 
     35 C          -0.1830  -20.7168  -39.1101 C.2       7 UNK         0.5000 
     36 O           0.4885  -21.6292  -38.6267 O.2       7 UNK        -0.5000 
     37 CA         -1.6865  -20.9445  -39.3650 C.3       7 UNK         0.1400 
     38 CB         -2.4981  -20.6354  -38.0976 C.3       7 UNK        -0.1800 
     39 N          -2.2262  -20.1599  -40.4774 N.am      7 UNK        -0.5000 
     40 C          -1.8902  -20.3291  -41.7626 C.2       6 UNK         0.5000 
     41 O          -1.0608  -21.1492  -42.1585 O.2       6 UNK        -0.5000 
     42 CA         -2.5604  -19.3867  -42.7773 C.3       6 UNK         0.1400 
     43 CB         -3.9628  -19.8886  -43.1528 C.3       6 UNK        -0.1800 
     44 N          -2.6543  -17.9816  -42.3662 N.am      6 UNK        -0.5000 
     45 C          -1.6585  -17.2163  -41.8987 C.2       5 UNK         0.5000 
     46 O          -0.5408  -17.6389  -41.6025 O.2       5 UNK        -0.5000 
     47 CA         -1.9904  -15.7312  -41.6768 C.3       5 UNK         0.1400 
     48 CB         -2.3549  -15.4883  -40.2042 C.3       5 UNK        -0.1800 
     49 N          -0.8933  -14.8341  -42.0460 N.am      5 UNK        -0.5000 
     50 C          -0.3547  -14.7047  -43.2679 C.2       4 UNK         0.5000 
     51 O          -0.7100  -15.3668  -44.2443 O.2       4 UNK        -0.5000 
     52 CA          0.6975  -13.5887  -43.4596 C.3       4 UNK         0.1400 
     53 CB          1.0979  -12.8525  -42.1588 C.3       4 UNK        -0.1800 
     54 N           1.8872  -14.0342  -44.1898 N.am      4 UNK        -0.5000 
     55 C           2.7946  -14.9409  -43.7981 C.2       3 UNK         0.5000 
     56 O           2.7225  -15.5661  -42.7396 O.2       3 UNK        -0.5000 
     57 CA          4.0414  -15.1240  -44.6949 C.3       3 UNK         0.1400 
     58 CB          4.4723  -16.5977  -44.8401 C.3       3 UNK        -0.1800 
     59 N           3.9724  -14.4574  -46.0027 N.am      3 UNK        -0.5000 
     60 C           3.2017  -14.7800  -47.0506 C.2       2 UNK         0.5000 
     61 O           2.3996  -15.7143  -47.0648 O.2       2 UNK        -0.5000 
     62 CA          3.3998  -13.9044  -48.3049 C.3       2 UNK         0.1400 
     63 CB          4.5475  -14.4540  -49.1671 C.3       2 UNK        -0.1800 
     64 N           2.2039  -13.7896  -49.1397 N.am      2 UNK        -0.5000 
     65 C           1.0274  -13.2808  -48.7492 C.2       1 UNK         0.5000 
     66 O           0.8237  -12.8290  -47.6172 O.2       1 UNK        -0.5000 
     67 C           0.4550  -21.5299  -47.9643 C.2       11 UNK         0.5000 
     68 O          -0.1853  -22.0207  -48.8918 O.2       11 UNK        -0.5000 
     69 N          -0.0091  -20.5406  -47.1858 N.am      12 UNK        -0.5000 
     70 CA         -1.3132  -19.9095  -47.3696 C.3       12 UNK         0.1400 
     71 CB         -1.3555  -18.5506  -46.6577 C.3       12 UNK        -0.1800 
     72 C          -2.4865  -20.8041  -46.9385 C.2       12 UNK         0.5000 
     73 O          -3.5857  -20.6251  -47.4601 O.2       12 UNK        -0.5000 
     74 N          -2.2420  -21.7679  -46.0372 N.am      13 UNK        -0.5000 
     75 CA         -3.2092  -22.8107  -45.6899 C.3       13 UNK         0.1400 
     76 CB         -2.7936  -23.5253  -44.3931 C.3       13 UNK        -0.1800 
     77 C          -3.3651  -23.8144  -46.8440 C.2       13 UNK         0.5000 
     78 O          -4.4921  -24.1266  -47.2276 O.2       13 UNK        -0.5000 
     79 N          -2.2312  -24.2548  -47.4100 N.am      14 UNK        -0.5000 
     80 CA         -2.1677  -25.1419  -48.5737 C.3       14 UNK         0.1400 
     81 CB         -0.7117  -25.5730  -48.8079 C.3       14 UNK        -0.1800 
     82 C          -2.7681  -24.5077  -49.8438 C.2       14 UNK         0.5000 
     83 O          -3.4932  -25.1820  -50.5752 O.2       14 UNK        -0.5000 
     84 N          -2.4902  -23.2141  -50.0555 N.am      15 UNK        -0.5000 
     85 CA         -3.0286  -22.4053  -51.1505 C.3       15 UNK         0.1400 
     86 CB         -2.1138  -21.1907  -51.3695 C.3       15 UNK        -0.1800 
     87 C          -4.4812  -21.9381  -50.9265 C.2       15 UNK         0.5000 
     88 O          -5.0457  -21.3033  -51.8191 O.2       15 UNK        -0.5000 
     89 N          -5.0477  -22.2047  -49.7395 N.am      16 UNK        -0.5000 
     90 CA         -6.3945  -21.8324  -49.2928 C.3       16 UNK         0.1400 
     91 CB         -7.4494  -22.6718  -50.0431 C.3       16 UNK        -0.1800 
     92 C          -6.6532  -20.3137  -49.3918 C.2       16 UNK         0.5000 
     93 O          -7.6683  -19.8920  -49.9448 O.2       16 UNK        -0.5000 
     94 N          -5.6881  -19.5159  -48.9120 N.am      17 UNK        -0.5000 
     95 CA         -5.6320  -18.0503  -48.9961 C.3       17 UNK         0.1400 
     96 CB         -6.7049  -17.4125  -48.0902 C.3       17 UNK        -0.1800 
     97 C          -5.6771  -17.5287  -50.4517 C.2       17 UNK         0.5000 
     98 O          -6.2932  -16.4979  -50.7249 O.2       17 UNK        -0.5000 
     99 N          -5.0268  -18.2793  -51.3530 N.am      18 UNK        -0.5000 
    100 CA        -4.9427  -18.0970  -52.8055 C.3       18 UNK         0.1400 
    101 CB        -4.4137  -16.6989  -53.1904 C.3       18 UNK        -0.1800 
    102 C         -6.2275  -18.4740  -53.5734 C.2       18 UNK         0.5000 
    103 O         -6.2982  -18.2109  -54.7747 O.2       18 UNK        -0.5000 
    104 N         -7.2003  -19.1273  -52.9180 N.am      19 UNK        -0.5000 
    105 CA        -8.3730  -19.7067  -53.5852 C.3       19 UNK         0.1400 
    106 CB        -9.4692  -20.0098  -52.5537 C.3       19 UNK        -0.1800 
    107 C         -8.0251  -20.9756  -54.3905 C.2       19 UNK         0.5000 
    108 O         -8.7309  -21.2987  -55.3466 O.2       19 UNK        -0.5000 
    109 N         -6.9376  -21.6535  -54.0059 N.am      20 UNK        -0.5000 
    110 CA        -6.3543  -22.8056  -54.6834 C.3       20 UNK         0.1400 
    111 CB        -6.6669  -24.0762  -53.8711 C.3       20 UNK        -0.1800 
    112 C         -4.8472  -22.5416  -54.8423 C.2       20 UNK         0.5000 
    113 O         -4.0284  -23.3286  -54.3666 O.2       20 UNK        -0.5000 
    114 N         -4.5231  -21.3914  -55.4538 N.am      21 UNK        -0.5000 
    115 CA        -3.1800  -20.8224  -55.5976 C.3       21 UNK         0.1400 
    116 CB        -3.2751  -19.5297  -56.4232 C.3       21 UNK        -0.1800 
    117 C         -2.1291  -21.7710  -56.2093 C.2       21 UNK         0.5000 
    118 O         -2.4675  -22.6614  -56.9925 O.2       21 UNK        -0.5000 
    119 N         -0.8666  -21.5291  -55.8381 N.am      22 UNK        -0.5000 
    120 CA         0.3067  -22.3704  -56.1316 C.3       22 UNK         0.1400 
    121 C          0.6783  -22.5327  -57.6367 C.2       22 UNK         0.5000 
    122 N          0.1758  -21.7029  -58.5424 N.am      22 UNK        -0.7600 
    123 O          1.4425  -23.4281  -57.9864 O.2       22 UNK        -0.5000 
    124 C124        1.5564  -21.9128  -55.3294 C.3       23 UNK        -0.0398 
    125 S125        1.2414  -21.5712  -53.5586 S.3       23 UNK        -0.2404 
    126 C126        1.4877  -19.7674  -53.5330 C.3       23 UNK        -0.0205 
    127 H127       -3.3825  -11.4912  -48.3865 H         1 UNK         0.0600 
    128 H128       -3.2321  -10.0613  -49.4116 H         1 UNK         0.0600 
    129 H129       -2.4928  -10.0805  -47.8067 H         1 UNK         0.0600 
    130 H130       -2.0053  -13.1457  -48.9748 H         1 UNK         0.3000 
    131 H131        0.3216  -12.6825  -50.6615 H         1 UNK         0.0600 
    132 H132       -1.1045  -14.5495  -51.2340 H         1 UNK         0.0800 
    133 H133        0.4580  -15.1488  -50.7779 H         1 UNK         0.0800 
    134 H134       -1.9095  -17.0365  -51.1007 H         1 UNK         0.0800 
    135 H135       -2.0133  -17.9985  -49.6608 H         1 UNK         0.0800 
    136 H136       -0.7103  -18.5391  -52.4896 H         1 UNK         0.1150 
    137 H137        3.2991  -19.6724  -51.5129 H         1 UNK         0.1150 
    138 H138        0.9434  -17.5238  -48.6578 H         1 UNK         0.1150 
    139 H139        4.3351  -18.9141  -49.5221 H         1 UNK         0.0800 
    140 H140        3.5997  -17.5683  -48.6951 H         1 UNK         0.0800 
    141 H141        3.9373  -21.8381  -48.0494 H         1 UNK         0.0800 
    142 H142        2.8837  -21.2612  -49.3010 H         1 UNK         0.0800 
    143 H143        1.8688  -23.1177  -48.0316 H         1 UNK         0.0600 
    144 H144        2.7122  -21.7421  -45.6981 H         1 UNK         0.3000 
    145 H145        0.5245  -23.3361  -43.3668 H         1 UNK         0.0600 
    146 H146        2.7235  -23.8240  -42.3023 H         1 UNK         0.0600 
    147 H147        2.3962  -24.9047  -43.6487 H         1 UNK         0.0600 
    148 H148        3.5396  -23.5875  -43.8472 H         1 UNK         0.0600 
    149 H149        0.7746  -21.2421  -42.8285 H         1 UNK         0.3000 
    150 H150        3.2976  -18.7412  -43.1599 H         1 UNK         0.0600 
    151 H151        1.7382  -18.5992  -45.1286 H         1 UNK         0.0600 
    152 H152        1.2319  -17.5181  -43.8437 H         1 UNK         0.0600 
    153 H153        0.3929  -19.0410  -44.0841 H         1 UNK         0.0600 
    154 H154        0.9017  -18.6934  -41.6983 H         1 UNK         0.3000 
    155 H155        2.2086  -19.7370  -38.5456 H         1 UNK         0.0600 
    156 H156        2.8979  -17.3771  -38.8822 H         1 UNK         0.0600 
    157 H157        1.3635  -17.4540  -38.0289 H         1 UNK         0.0600 
    158 H158        1.4026  -17.0293  -39.7396 H         1 UNK         0.0600 
    159 H159       -0.2874  -18.8440  -39.8909 H         1 UNK         0.3000 
    160 H160       -1.8198  -22.0013  -39.6061 H         1 UNK         0.0600 
    161 H161       -3.5526  -20.8748  -38.2356 H         1 UNK         0.0600 
    162 H162       -2.1409  -21.2239  -37.2514 H         1 UNK         0.0600 
    163 H163       -2.4248  -19.5831  -37.8200 H         1 UNK         0.0600 
    164 H164       -2.9000  -19.4448  -40.2461 H         1 UNK         0.3000 
    165 H165       -1.9461  -19.4217  -43.6738 H         1 UNK         0.0600 
    166 H166       -4.3645  -19.3351  -44.0020 H         1 UNK         0.0600 
    167 H167       -3.9478  -20.9398  -43.4356 H         1 UNK         0.0600 
    168 H168       -4.6624  -19.7860  -42.3225 H         1 UNK         0.0600 
    169 H169       -3.5454  -17.5403  -42.5408 H         1 UNK         0.3000 
    170 H170       -2.8499  -15.4681  -42.2966 H         1 UNK         0.0600 
    171 H171       -3.1903  -16.1191  -39.8972 H         1 UNK         0.0600 
    172 H172       -1.5167  -15.7092  -39.5416 H         1 UNK         0.0600 
    173 H173       -2.6529  -14.4533  -40.0357 H         1 UNK         0.0600 
    174 H174       -0.5174  -14.2654  -41.3023 H         1 UNK         0.3000 
    175 H175        0.2200  -12.8520  -44.1074 H         1 UNK         0.0600 
    176 H176        1.8255  -12.0673  -42.3648 H         1 UNK         0.0600 
    177 H177        0.2370  -12.3697  -41.6949 H         1 UNK         0.0600 
    178 H178        1.5404  -13.5261  -41.4238 H         1 UNK         0.0600 
    179 H179        2.0105  -13.6218  -45.1037 H         1 UNK         0.3000 
    180 H180        4.8459  -14.6157  -44.1615 H         1 UNK         0.0600 
    181 H181        3.6922  -17.2076  -45.2941 H         1 UNK         0.0600 
    182 H182        4.7087  -17.0306  -43.8682 H         1 UNK         0.0600 
    183 H183        5.3663  -16.6886  -45.4568 H         1 UNK         0.0600 
    184 H184        4.5930  -13.6656  -46.1018 H         1 UNK         0.3000 
    185 H185        3.6648  -12.8964  -47.9789 H         1 UNK         0.0600 
    186 H186        5.4639  -14.5590  -48.5848 H         1 UNK         0.0600 
    187 H187        4.3070  -15.4344  -49.5793 H         1 UNK         0.0600 
    188 H188        4.7699  -13.7866  -49.9999 H         1 UNK         0.0600 
    189 H189        2.2900  -14.1545  -50.0761 H         1 UNK         0.3000 
    190 H190        0.5880  -20.1763  -46.4592 H         1 UNK         0.3000 
    191 H191       -1.4333  -19.7297  -48.4361 H         1 UNK         0.0600 
    192 H192       -0.5462  -17.9003  -46.9865 H         1 UNK         0.0600 
    193 H193       -1.2730  -18.6488  -45.5804 H         1 UNK         0.0600 
    194 H194       -2.2914  -18.0306  -46.8661 H         1 UNK         0.0600 
    195 H195       -1.3018  -21.8839  -45.6902 H         1 UNK         0.3000 
    196 H196       -4.1783  -22.3372  -45.5178 H         1 UNK         0.0600 
    197 H197       -3.5827  -24.1995  -44.0583 H         1 UNK         0.0600 
    198 H198       -2.6069  -22.8209  -43.5850 H         1 UNK         0.0600 
    199 H199       -1.8939  -24.1254  -44.5208 H         1 UNK         0.0600 
    200 H200       -1.3443  -23.9664  -47.0100 H         1 UNK         0.3000 
    201 H201       -2.7520  -26.0346  -48.3415 H         1 UNK         0.0600 
    202 H202       -0.3044  -26.0775  -47.9315 H         1 UNK         0.0600 
    203 H203       -0.0684  -24.7218  -49.0312 H         1 UNK         0.0600 
    204 H204       -0.6406  -26.2668  -49.6463 H         1 UNK         0.0600 
    205 H205       -1.8063  -22.7595  -49.4546 H         1 UNK         0.3000 
    206 H206       -3.0112  -23.0093  -52.0573 H         1 UNK         0.0600 
    207 H207       -1.0838  -21.4990  -51.5486 H         1 UNK         0.0600 
    208 H208       -2.4311  -20.6068  -52.2330 H         1 UNK         0.0600 
    209 H209       -2.1170  -20.5264  -50.5064 H         1 UNK         0.0600 
    210 H210       -4.4950  -22.7095  -49.0593 H         1 UNK         0.3000 
    211 H211       -6.4532  -22.0879  -48.2339 H         1 UNK         0.0600 
    212 H212       -7.4552  -22.4552  -51.1115 H         1 UNK         0.0600 
    213 H213       -8.4519  -22.4733  -49.6626 H         1 UNK         0.0600 
    214 H214       -7.2611  -23.7385  -49.9208 H         1 UNK         0.0600 
    215 H215       -4.8947  -19.9605  -48.4490 H         1 UNK         0.3000 
    216 H216       -4.6562  -17.7613  -48.6026 H         1 UNK         0.0600 
    217 H217       -6.5845  -16.3296  -48.0437 H         1 UNK         0.0600 
    218 H218       -6.6331  -17.7899  -47.0701 H         1 UNK         0.0600 
    219 H219       -7.7133  -17.6142  -48.4527 H         1 UNK         0.0600 
    220 H220       -4.6373  -19.1512  -51.0215 H         1 UNK         0.3000 
    221 H221       -4.1943  -18.8188  -53.1347 H         1 UNK         0.0600 
    222 H222       -5.1554  -15.9203  -53.0121 H         1 UNK         0.0600 
    223 H223       -3.5159  -16.4405  -52.6319 H         1 UNK         0.0600 
    224 H224       -4.1552  -16.6591  -54.2491 H         1 UNK         0.0600 
    225 H225       -7.0992  -19.3177  -51.9273 H         1 UNK         0.3000 
    226 H226       -8.7698  -18.9677  -54.2844 H         1 UNK         0.0600 
    227 H227      -10.3926  -20.3135  -53.0481 H         1 UNK         0.0600 
    228 H228       -9.1801  -20.8195  -51.8837 H         1 UNK         0.0600 
    229 H229       -9.6969  -19.1337  -51.9463 H         1 UNK         0.0600 
    230 H230       -6.3985  -21.3119  -53.2135 H         1 UNK         0.3000 
    231 H231       -6.7706  -22.9189  -55.6863 H         1 UNK         0.0600 
    232 H232       -7.7422  -24.2279  -53.7771 H         1 UNK         0.0600 
    233 H233       -6.2479  -24.0228  -52.8651 H         1 UNK         0.0600 
    234 H234       -6.2534  -24.9616  -54.3552 H         1 UNK         0.0600 
    235 H235       -5.2789  -20.8218  -55.8053 H         1 UNK         0.3000 
    236 H236       -2.8460  -20.5620  -54.5921 H         1 UNK         0.0600 
    237 H237       -2.2982  -19.0573  -56.5338 H         1 UNK         0.0600 
    238 H238       -3.6616  -19.7226  -57.4247 H         1 UNK         0.0600 
    239 H239       -3.9291  -18.8004  -55.9464 H         1 UNK         0.0600 
    240 H240       -0.6887  -20.7681  -55.2010 H         1 UNK         0.3000 
    241 H241        0.0484  -23.3719  -55.7825 H         1 UNK         0.0600 
    242 H242        0.4209  -21.8187  -59.5133 H         1 UNK         0.3800 
    243 H243       -0.4665  -20.9764  -58.2703 H         1 UNK         0.3800 
    244 H244        2.3303  -22.6807  -55.3807 H         1 UNK         0.0800 
    245 H245        1.9933  -21.0252  -55.7906 H         1 UNK         0.0800 
    246 H246        2.4914  -19.5366  -53.8938 H         1 UNK         0.0800 
    247 H247        0.7966  -19.2949  -54.2324 H         1 UNK         0.0800 
@<TRIPOS>BOND
     1    1    2 1    
     2    1  127 1    
     3    1  128 1    
     4    1  129 1    
     5    2    3 2    
     6    2    4 am   BACKBONE|DICT|INTERRES
     7    4    5 1    
     8    4  130 1    
     9    5    6 1    
    10    5   65 1    
    11    5  131 1    
    12    6    7 1    
    13    6  132 1    
    14    6  133 1    
    15    7    8 1    
    16    8    9 1    
    17    8  134 1    
    18    8  135 1    
    19    9   10 ar   
    20    9   14 ar   
    21   10   11 ar   
    22   10  136 1    
    23   11   12 ar   
    24   11  126 1    
    25   12   13 ar   
    26   12  137 1    
    27   13   14 ar   
    28   13   15 1    
    29   14  138 1    
    30   15   16 1    
    31   15  139 1    
    32   15  140 1    
    33   16   17 1    
    34   17   18 1    
    35   17  141 1    
    36   17  142 1    
    37   18   19 1    
    38   18   67 1    
    39   18  143 1    
    40   19   20 am   BACKBONE|DICT|INTERRES
    41   19  144 1    
    42   20   21 2    
    43   20   22 1    
    44   22   23 1    
    45   22   24 1    
    46   22  145 1    
    47   23  146 1    
    48   23  147 1    
    49   23  148 1    
    50   24   25 am   BACKBONE|DICT|INTERRES
    51   24  149 1    
    52   25   26 2    
    53   25   27 1    
    54   27   28 1    
    55   27   29 1    
    56   27  150 1    
    57   28  151 1    
    58   28  152 1    
    59   28  153 1    
    60   29   30 am   BACKBONE|DICT|INTERRES
    61   29  154 1    
    62   30   31 2    
    63   30   32 1    
    64   32   33 1    
    65   32   34 1    
    66   32  155 1    
    67   33  156 1    
    68   33  157 1    
    69   33  158 1    
    70   34   35 am   BACKBONE|DICT|INTERRES
    71   34  159 1    
    72   35   36 2    
    73   35   37 1    
    74   37   38 1    
    75   37   39 1    
    76   37  160 1    
    77   38  161 1    
    78   38  162 1    
    79   38  163 1    
    80   39   40 am   BACKBONE|DICT|INTERRES
    81   39  164 1    
    82   40   41 2    
    83   40   42 1    
    84   42   43 1    
    85   42   44 1    
    86   42  165 1    
    87   43  166 1    
    88   43  167 1    
    89   43  168 1    
    90   44   45 am   BACKBONE|DICT|INTERRES
    91   44  169 1    
    92   45   46 2    
    93   45   47 1    
    94   47   48 1    
    95   47   49 1    
    96   47  170 1    
    97   48  171 1    
    98   48  172 1    
    99   48  173 1    
   100   49   50 am   BACKBONE|DICT|INTERRES
   101   49  174 1    
   102   50   51 2    
   103   50   52 1    
   104   52   53 1    
   105   52   54 1    
   106   52  175 1    
   107   53  176 1    
   108   53  177 1    
   109   53  178 1    
   110   54   55 am   BACKBONE|DICT|INTERRES
   111   54  179 1    
   112   55   56 2    
   113   55   57 1    
   114   57   58 1    
   115   57   59 1    
   116   57  180 1    
   117   58  181 1    
   118   58  182 1    
   119   58  183 1    
   120   59   60 am   BACKBONE|DICT|INTERRES
   121   59  184 1    
   122   60   61 2    
   123   60   62 1    
   124   62   63 1    
   125   62   64 1    
   126   62  185 1    
   127   63  186 1    
   128   63  187 1    
   129   63  188 1    
   130   64   65 am   BACKBONE|DICT|INTERRES
   131   64  189 1    
   132   65   66 2    
   133   67   68 2    
   134   67   69 am   BACKBONE|DICT|INTERRES
   135   69   70 1    
   136   69  190 1    
   137   70   71 1    
   138   70   72 1    
   139   70  191 1    
   140   71  192 1    
   141   71  193 1    
   142   71  194 1    
   143   72   73 2    
   144   72   74 am   BACKBONE|DICT|INTERRES
   145   74   75 1    
   146   74  195 1    
   147   75   76 1    
   148   75   77 1    
   149   75  196 1    
   150   76  197 1    
   151   76  198 1    
   152   76  199 1    
   153   77   78 2    
   154   77   79 am   BACKBONE|DICT|INTERRES
   155   79   80 1    
   156   79  200 1    
   157   80   81 1    
   158   80   82 1    
   159   80  201 1    
   160   81  202 1    
   161   81  203 1    
   162   81  204 1    
   163   82   83 2    
   164   82   84 am   BACKBONE|DICT|INTERRES
   165   84   85 1    
   166   84  205 1    
   167   85   86 1    
   168   85   87 1    
   169   85  206 1    
   170   86  207 1    
   171   86  208 1    
   172   86  209 1    
   173   87   88 2    
   174   87   89 am   BACKBONE|DICT|INTERRES
   175   89   90 1    
   176   89  210 1    
   177   90   91 1    
   178   90   92 1    
   179   90  211 1    
   180   91  212 1    
   181   91  213 1    
   182   91  214 1    
   183   92   93 2    
   184   92   94 am   BACKBONE|DICT|INTERRES
   185   94   95 1    
   186   94  215 1    
   187   95   96 1    
   188   95   97 1    
   189   95  216 1    
   190   96  217 1    
   191   96  218 1    
   192   96  219 1    
   193   97   98 2    
   194   97   99 am   BACKBONE|DICT|INTERRES
   195   99  100 1    
   196   99  220 1    
   197  100  101 1    
   198  100  102 1    
   199  100  221 1    
   200  101  222 1    
   201  101  223 1    
   202  101  224 1    
   203  102  103 2    
   204  102  104 am   BACKBONE|DICT|INTERRES
   205  104  105 1    
   206  104  225 1    
   207  105  106 1    
   208  105  107 1    
   209  105  226 1    
   210  106  227 1    
   211  106  228 1    
   212  106  229 1    
   213  107  108 2    
   214  107  109 am   BACKBONE|DICT|INTERRES
   215  109  110 1    
   216  109  230 1    
   217  110  111 1    
   218  110  112 1    
   219  110  231 1    
   220  111  232 1    
   221  111  233 1    
   222  111  234 1    
   223  112  113 2    
   224  112  114 am   BACKBONE|DICT|INTERRES
   225  114  115 1    
   226  114  235 1    
   227  115  116 1    
   228  115  117 1    
   229  115  236 1    
   230  116  237 1    
   231  116  238 1    
   232  116  239 1    
   233  117  118 2    
   234  117  119 am   BACKBONE|DICT|INTERRES
   235  119  120 1    
   236  119  240 1    
   237  120  121 1    
   238  120  124 1    
   239  120  241 1    
   240  121  122 am   BACKBONE|DICT|INTERRES
   241  121  123 2    
   242  122  242 1    
   243  122  243 1    
   244  124  125 1    
   245  124  244 1    
   246  124  245 1    
   247  125  126 1    
   248  126  246 1    
   249  126  247 1    
@<TRIPOS>SUBSTRUCTURE
     1 UNK         1 GROUP             0       ****    0 ROOT    
