@<TRIPOS>MOLECULE
3R540
247   249    1
SMALL
USER_CHARGES


@<TRIPOS>ATOM
      1 CA          5.9157  -13.6595  -45.7205 C.3       0 UNK        -0.1800 
      2 C           4.5241  -13.9513  -46.2626 C.2       0 UNK         0.5000 
      3 O           3.8547  -14.8533  -45.7640 O.2       0 UNK        -0.5000 
      4 N           4.0895  -13.1948  -47.2792 N.am      1 UNK        -0.5000 
      5 CA          2.7587  -13.3098  -47.8917 C.3       1 UNK         0.1400 
      6 C6          2.7925  -12.9078  -49.3905 C.3       23 UNK        -0.0398 
      7 S7          1.5032  -13.7634  -50.3601 S.3       23 UNK        -0.2404 
      8 C8          2.4534  -15.0682  -51.2091 C.3       23 UNK        -0.0205 
      9 C9          1.6261  -16.3324  -51.4077 C.ar      23 UNK        -0.0193 
     10 C10         0.4106  -16.2877  -52.0993 C.ar      23 UNK        -0.1150 
     11 C11        -0.3693  -17.4387  -52.2469 C.ar      23 UNK        -0.0193 
     12 C12         0.0906  -18.6490  -51.7214 C.ar      23 UNK        -0.1150 
     13 C13         1.3135  -18.7146  -51.0470 C.ar      23 UNK        -0.0193 
     14 C14         2.0754  -17.5527  -50.8933 C.ar      23 UNK        -0.1150 
     15 C15         1.8105  -20.0396  -50.4826 C.3       23 UNK        -0.0205 
     16 S16         1.8316  -20.0534  -48.6603 S.3       23 UNK        -0.2404 
     17 C17         0.0625  -19.8700  -48.2586 C.3       23 UNK        -0.0398 
     18 CA         -0.5195  -21.1136  -47.5484 C.3       11 UNK         0.1400 
     19 N          -0.0391  -21.2666  -46.1704 N.am      11 UNK        -0.5000 
     20 C          -0.3251  -22.3066  -45.3725 C.2       10 UNK         0.5000 
     21 O          -0.9831  -23.2822  -45.7327 O.2       10 UNK        -0.5000 
     22 CA          0.1485  -22.2224  -43.9106 C.3       10 UNK         0.1400 
     23 CB          1.6388  -22.5731  -43.7889 C.3       10 UNK        -0.1800 
     24 N          -0.1091  -20.9120  -43.3128 N.am      10 UNK        -0.5000 
     25 C          -1.3307  -20.3953  -43.1139 C.2       9 UNK         0.5000 
     26 O          -2.3753  -20.9959  -43.3666 O.2       9 UNK        -0.5000 
     27 CA         -1.3992  -18.9446  -42.5994 C.3       9 UNK         0.1400 
     28 CB         -1.1743  -18.8820  -41.0817 C.3       9 UNK        -0.1800 
     29 N          -0.4468  -18.0651  -43.2778 N.am      9 UNK        -0.5000 
     30 C          -0.4747  -17.7939  -44.5908 C.2       8 UNK         0.5000 
     31 O          -1.3408  -18.2105  -45.3595 O.2       8 UNK        -0.5000 
     32 CA          0.6878  -16.9582  -45.1492 C.3       8 UNK         0.1400 
     33 CB          0.4293  -15.4659  -44.9205 C.3       8 UNK        -0.1800 
     34 N           1.9761  -17.3356  -44.5674 N.am      8 UNK        -0.5000 
     35 C           2.5541  -18.5334  -44.7347 C.2       7 UNK         0.5000 
     36 O           2.0635  -19.4384  -45.4065 O.2       7 UNK        -0.5000 
     37 CA          3.8630  -18.7889  -43.9672 C.3       7 UNK         0.1400 
     38 CB          5.0517  -18.0934  -44.6474 C.3       7 UNK        -0.1800 
     39 N           3.7772  -18.3603  -42.5717 N.am      7 UNK        -0.5000 
     40 C           2.9452  -18.8881  -41.6617 C.2       6 UNK         0.5000 
     41 O           2.2035  -19.8435  -41.8863 O.2       6 UNK        -0.5000 
     42 CA          2.9046  -18.2055  -40.2814 C.3       6 UNK         0.1400 
     43 CB          3.9087  -18.8640  -39.3241 C.3       6 UNK        -0.1800 
     44 N           3.1707  -16.7662  -40.3498 N.am      6 UNK        -0.5000 
     45 C           2.3776  -15.8779  -40.9629 C.2       5 UNK         0.5000 
     46 O           1.3191  -16.1770  -41.5223 O.2       5 UNK        -0.5000 
     47 CA          2.9069  -14.4355  -41.0209 C.3       5 UNK         0.1400 
     48 CB          3.7107  -14.2225  -42.3129 C.3       5 UNK        -0.1800 
     49 N           1.8241  -13.4566  -40.9618 N.am      5 UNK        -0.5000 
     50 C           1.1745  -13.1166  -39.8391 C.2       4 UNK         0.5000 
     51 O           1.4429  -13.5894  -38.7333 O.2       4 UNK        -0.5000 
     52 CA          0.0590  -12.0546  -39.9441 C.3       4 UNK         0.1400 
     53 CB          0.5787  -10.6854  -39.4780 C.3       4 UNK        -0.1800 
     54 N          -0.4890  -11.9115  -41.2920 N.am      4 UNK        -0.5000 
     55 C          -1.2925  -12.8013  -41.8876 C.2       3 UNK         0.5000 
     56 O          -1.7386  -13.7998  -41.3218 O.2       3 UNK        -0.5000 
     57 CA         -1.6654  -12.5410  -43.3626 C.3       3 UNK         0.1400 
     58 CB         -3.1009  -12.0012  -43.4611 C.3       3 UNK        -0.1800 
     59 N          -0.7745  -11.6422  -44.1111 N.am      3 UNK        -0.5000 
     60 C           0.5427  -11.8072  -44.2917 C.2       2 UNK         0.5000 
     61 O           1.2199  -12.6403  -43.6905 O.2       2 UNK        -0.5000 
     62 CA          1.2310  -10.8704  -45.2995 C.3       2 UNK         0.1400 
     63 CB          2.0614   -9.8069  -44.5651 C.3       2 UNK        -0.1800 
     64 N           2.1043  -11.6230  -46.2018 N.am      2 UNK        -0.5000 
     65 C           1.6817  -12.5219  -47.1047 C.2       1 UNK         0.5000 
     66 O           0.4894  -12.7399  -47.3244 O.2       1 UNK        -0.5000 
     67 C          -2.0577  -21.0888  -47.6242 C.2       11 UNK         0.5000 
     68 O          -2.6204  -21.7609  -48.4873 O.2       11 UNK        -0.5000 
     69 N          -2.7093  -20.3444  -46.7201 N.am      12 UNK        -0.5000 
     70 CA         -4.1659  -20.2680  -46.6120 C.3       12 UNK         0.1400 
     71 CB         -4.5575  -19.1685  -45.6135 C.3       12 UNK        -0.1800 
     72 C          -4.8005  -21.6166  -46.2285 C.2       12 UNK         0.5000 
     73 O          -5.7769  -22.0230  -46.8583 O.2       12 UNK        -0.5000 
     74 N          -4.2103  -22.3050  -45.2405 N.am      13 UNK        -0.5000 
     75 CA         -4.6304  -23.6311  -44.7803 C.3       13 UNK         0.1400 
     76 CB         -3.8456  -24.0055  -43.5140 C.3       13 UNK        -0.1800 
     77 C          -4.4786  -24.7222  -45.8576 C.2       13 UNK         0.5000 
     78 O          -5.3578  -25.5743  -45.9893 O.2       13 UNK        -0.5000 
     79 N          -3.3834  -24.6586  -46.6257 N.am      14 UNK        -0.5000 
     80 CA         -3.0938  -25.5525  -47.7486 C.3       14 UNK         0.1400 
     81 CB         -1.5780  -25.5387  -48.0043 C.3       14 UNK        -0.1800 
     82 C          -3.8502  -25.1853  -49.0413 C.2       14 UNK         0.5000 
     83 O          -3.7621  -25.9344  -50.0153 O.2       14 UNK        -0.5000 
     84 N          -4.5239  -24.0256  -49.0591 N.am      15 UNK        -0.5000 
     85 CA         -5.1963  -23.4033  -50.2040 C.3       15 UNK         0.1400 
     86 CB         -6.4522  -24.2041  -50.6039 C.3       15 UNK        -0.1800 
     87 C          -4.2343  -23.1693  -51.3866 C.2       15 UNK         0.5000 
     88 O          -4.5737  -23.4770  -52.5301 O.2       15 UNK        -0.5000 
     89 N          -3.0407  -22.6421  -51.0804 N.am      16 UNK        -0.5000 
     90 CA         -1.9024  -22.4307  -51.9834 C.3       16 UNK         0.1400 
     91 CB         -2.2344  -21.3751  -53.0585 C.3       16 UNK        -0.1800 
     92 C          -1.3556  -23.7482  -52.5749 C.2       16 UNK         0.5000 
     93 O          -0.9323  -23.7776  -53.7300 O.2       16 UNK        -0.5000 
     94 N          -1.3855  -24.8123  -51.7578 N.am      17 UNK        -0.5000 
     95 CA         -1.0732  -26.2047  -52.0970 C.3       17 UNK         0.1400 
     96 CB          0.4059  -26.3711  -52.5054 C.3       17 UNK        -0.1800 
     97 C          -2.0714  -26.7636  -53.1304 C.2       17 UNK         0.5000 
     98 O          -1.6693  -27.2611  -54.1839 O.2       17 UNK        -0.5000 
     99 N          -3.3639  -26.6492  -52.7893 N.am      18 UNK        -0.5000 
    100 CA        -4.5347  -27.0466  -53.5765 C.3       18 UNK         0.1400 
    101 CB        -4.6112  -28.5828  -53.6998 C.3       18 UNK        -0.1800 
    102 C         -4.6167  -26.3202  -54.9364 C.2       18 UNK         0.5000 
    103 O         -4.8175  -26.9561  -55.9732 O.2       18 UNK        -0.5000 
    104 N         -4.4659  -24.9917  -54.8977 N.am      19 UNK        -0.5000 
    105 CA        -4.5352  -24.0895  -56.0470 C.3       19 UNK         0.1400 
    106 CB        -3.1198  -23.6112  -56.4146 C.3       19 UNK        -0.1800 
    107 C         -5.5065  -22.9301  -55.7570 C.2       19 UNK         0.5000 
    108 O         -5.2586  -21.7957  -56.1693 O.2       19 UNK        -0.5000 
    109 N         -6.5941  -23.2417  -55.0337 N.am      20 UNK        -0.5000 
    110 CA        -7.7404  -22.3808  -54.7106 C.3       20 UNK         0.1400 
    111 CB        -8.5582  -22.0961  -55.9878 C.3       20 UNK        -0.1800 
    112 C         -7.3865  -21.0879  -53.9417 C.2       20 UNK         0.5000 
    113 O         -8.1290  -20.1090  -54.0274 O.2       20 UNK        -0.5000 
    114 N         -6.2665  -21.1113  -53.2032 N.am      21 UNK        -0.5000 
    115 CA        -5.6623  -19.9812  -52.4864 C.3       21 UNK         0.1400 
    116 CB        -6.5690  -19.4947  -51.3363 C.3       21 UNK        -0.1800 
    117 C         -5.1960  -18.8494  -53.4308 C.2       21 UNK         0.5000 
    118 O         -5.2785  -17.6749  -53.0677 O.2       21 UNK        -0.5000 
    119 N         -4.6934  -19.2414  -54.6109 N.am      22 UNK        -0.5000 
    120 CA        -4.2505  -18.3940  -55.7316 C.3       22 UNK         0.1400 
    121 C         -5.4267  -17.7597  -56.5320 C.2       22 UNK         0.5000 
    122 N         -5.1625  -17.2699  -57.7368 N.am      22 UNK        -0.7600 
    123 O         -6.5719  -17.6952  -56.0919 O.2       22 UNK        -0.5000 
    124 C124       -3.1821  -17.3257  -55.3539 C.3       23 UNK        -0.0398 
    125 S125       -1.6479  -18.0160  -54.6403 S.3       23 UNK        -0.2404 
    126 C126       -1.7206  -17.3635  -52.9426 C.3       23 UNK        -0.0205 
    127 H127        5.8551  -13.3795  -44.6687 H         1 UNK         0.0600 
    128 H128        6.4016  -12.8479  -46.2625 H         1 UNK         0.0600 
    129 H129        6.5425  -14.5475  -45.8018 H         1 UNK         0.0600 
    130 H130        4.6906  -12.4748  -47.6552 H         1 UNK         0.3000 
    131 H131        2.4677  -14.3619  -47.8393 H         1 UNK         0.0600 
    132 H132        2.6763  -11.8297  -49.5159 H         1 UNK         0.0800 
    133 H133        3.7629  -13.1459  -49.8282 H         1 UNK         0.0800 
    134 H134        2.7900  -14.6975  -52.1782 H         1 UNK         0.0800 
    135 H135        3.3519  -15.2988  -50.6346 H         1 UNK         0.0800 
    136 H136        0.0606  -15.3467  -52.5002 H         1 UNK         0.1150 
    137 H137       -0.5071  -19.5400  -51.8345 H         1 UNK         0.1150 
    138 H138        3.0149  -17.6023  -50.3607 H         1 UNK         0.1150 
    139 H139        1.2019  -20.8711  -50.8409 H         1 UNK         0.0800 
    140 H140        2.8221  -20.2232  -50.8471 H         1 UNK         0.0800 
    141 H141       -0.4856  -19.6652  -49.1788 H         1 UNK         0.0800 
    142 H142       -0.0591  -18.9810  -47.6396 H         1 UNK         0.0800 
    143 H143       -0.1969  -21.9997  -48.0996 H         1 UNK         0.0600 
    144 H144        0.5666  -20.5291  -45.8177 H         1 UNK         0.3000 
    145 H145       -0.4162  -22.9616  -43.3389 H         1 UNK         0.0600 
    146 H146        1.8419  -23.5603  -44.2056 H         1 UNK         0.0600 
    147 H147        2.2690  -21.8581  -44.3173 H         1 UNK         0.0600 
    148 H148        1.9550  -22.5885  -42.7458 H         1 UNK         0.0600 
    149 H149        0.7047  -20.3717  -43.0346 H         1 UNK         0.3000 
    150 H150       -2.4021  -18.5661  -42.8073 H         1 UNK         0.0600 
    151 H151       -1.2455  -17.8580  -40.7139 H         1 UNK         0.0600 
    152 H152       -0.1962  -19.2712  -40.8008 H         1 UNK         0.0600 
    153 H153       -1.9244  -19.4720  -40.5538 H         1 UNK         0.0600 
    154 H154        0.2815  -17.6453  -42.7110 H         1 UNK         0.3000 
    155 H155        0.7448  -17.1312  -46.2256 H         1 UNK         0.0600 
    156 H156       -0.4919  -15.1485  -45.4102 H         1 UNK         0.0600 
    157 H157        1.2365  -14.8612  -45.3294 H         1 UNK         0.0600 
    158 H158        0.3394  -15.2283  -43.8601 H         1 UNK         0.0600 
    159 H159        2.4359  -16.6421  -43.9968 H         1 UNK         0.3000 
    160 H160        4.0480  -19.8652  -43.9783 H         1 UNK         0.0600 
    161 H161        5.1168  -18.3713  -45.7002 H         1 UNK         0.0600 
    162 H162        5.9939  -18.3760  -44.1777 H         1 UNK         0.0600 
    163 H163        4.9666  -17.0077  -44.5989 H         1 UNK         0.0600 
    164 H164        4.3530  -17.5788  -42.2984 H         1 UNK         0.3000 
    165 H165        1.9017  -18.3434  -39.8726 H         1 UNK         0.0600 
    166 H166        3.8355  -18.4399  -38.3224 H         1 UNK         0.0600 
    167 H167        3.7190  -19.9347  -39.2367 H         1 UNK         0.0600 
    168 H168        4.9362  -18.7397  -39.6684 H         1 UNK         0.0600 
    169 H169        4.0257  -16.4464  -39.9176 H         1 UNK         0.3000 
    170 H170        3.5727  -14.2659  -40.1720 H         1 UNK         0.0600 
    171 H171        4.0729  -13.1974  -42.3913 H         1 UNK         0.0600 
    172 H172        4.5804  -14.8792  -42.3505 H         1 UNK         0.0600 
    173 H173        3.1074  -14.4304  -43.1970 H         1 UNK         0.0600 
    174 H174        1.5160  -13.0789  -41.8541 H         1 UNK         0.3000 
    175 H175       -0.7476  -12.3589  -39.2738 H         1 UNK         0.0600 
    176 H176        1.3827  -10.3213  -40.1190 H         1 UNK         0.0600 
    177 H177       -0.2167   -9.9398  -39.4790 H         1 UNK         0.0600 
    178 H178        0.9691  -10.7405  -38.4610 H         1 UNK         0.0600 
    179 H179       -0.1650  -11.1254  -41.8353 H         1 UNK         0.3000 
    180 H180       -1.6361  -13.5091  -43.8655 H         1 UNK         0.0600 
    181 H181       -3.4270  -11.9306  -44.4990 H         1 UNK         0.0600 
    182 H182       -3.1883  -11.0112  -43.0118 H         1 UNK         0.0600 
    183 H183       -3.8043  -12.6580  -42.9472 H         1 UNK         0.0600 
    184 H184       -1.2363  -10.9077  -44.6278 H         1 UNK         0.3000 
    185 H185        0.4711  -10.3666  -45.9005 H         1 UNK         0.0600 
    186 H186        2.8483  -10.2582  -43.9590 H         1 UNK         0.0600 
    187 H187        2.5314   -9.1183  -45.2675 H         1 UNK         0.0600 
    188 H188        1.4342   -9.2130  -43.8990 H         1 UNK         0.0600 
    189 H189        3.0969  -11.5375  -46.0443 H         1 UNK         0.3000 
    190 H190       -2.1741  -19.7698  -46.0739 H         1 UNK         0.3000 
    191 H191       -4.5563  -19.9860  -47.5923 H         1 UNK         0.0600 
    192 H192       -4.1696  -19.3715  -44.6152 H         1 UNK         0.0600 
    193 H193       -5.6417  -19.0811  -45.5338 H         1 UNK         0.0600 
    194 H194       -4.1747  -18.1975  -45.9281 H         1 UNK         0.0600 
    195 H195       -3.4292  -21.8805  -44.7474 H         1 UNK         0.3000 
    196 H196       -5.6886  -23.5711  -44.5180 H         1 UNK         0.0600 
    197 H197       -4.1521  -24.9822  -43.1375 H         1 UNK         0.0600 
    198 H198       -4.0155  -23.2814  -42.7171 H         1 UNK         0.0600 
    199 H199       -2.7726  -24.0474  -43.7034 H         1 UNK         0.0600 
    200 H200       -2.6724  -23.9656  -46.4059 H         1 UNK         0.3000 
    201 H201       -3.3853  -26.5688  -47.4759 H         1 UNK         0.0600 
    202 H202       -1.0257  -25.8206  -47.1076 H         1 UNK         0.0600 
    203 H203       -1.2314  -24.5510  -48.3117 H         1 UNK         0.0600 
    204 H204       -1.3020  -26.2464  -48.7863 H         1 UNK         0.0600 
    205 H205       -4.5077  -23.4673  -48.2154 H         1 UNK         0.3000 
    206 H206       -5.5215  -22.4165  -49.8717 H         1 UNK         0.0600 
    207 H207       -7.0157  -23.6856  -51.3805 H         1 UNK         0.0600 
    208 H208       -6.1993  -25.1929  -50.9874 H         1 UNK         0.0600 
    209 H209       -7.1201  -24.3359  -49.7527 H         1 UNK         0.0600 
    210 H210       -2.8777  -22.3921  -50.1040 H         1 UNK         0.3000 
    211 H211       -1.0983  -22.0266  -51.3671 H         1 UNK         0.0600 
    212 H212       -3.0438  -21.6945  -53.7134 H         1 UNK         0.0600 
    213 H213       -1.3693  -21.1670  -53.6890 H         1 UNK         0.0600 
    214 H214       -2.5266  -20.4314  -52.6024 H         1 UNK         0.0600 
    215 H215       -1.7960  -24.6774  -50.8459 H         1 UNK         0.3000 
    216 H216       -1.2227  -26.7854  -51.1859 H         1 UNK         0.0600 
    217 H217        0.6549  -27.4251  -52.6334 H         1 UNK         0.0600 
    218 H218        1.0725  -25.9704  -51.7419 H         1 UNK         0.0600 
    219 H219        0.6324  -25.8690  -53.4461 H         1 UNK         0.0600 
    220 H220       -3.5714  -26.2491  -51.8771 H         1 UNK         0.3000 
    221 H221       -5.4061  -26.7213  -53.0065 H         1 UNK         0.0600 
    222 H222       -3.7871  -28.9851  -54.2896 H         1 UNK         0.0600 
    223 H223       -4.5849  -29.0577  -52.7191 H         1 UNK         0.0600 
    224 H224       -5.5394  -28.8898  -54.1832 H         1 UNK         0.0600 
    225 H225       -4.3476  -24.5360  -53.9937 H         1 UNK         0.3000 
    226 H226       -4.9463  -24.6138  -56.9117 H         1 UNK         0.0600 
    227 H227       -2.4522  -24.4548  -56.5903 H         1 UNK         0.0600 
    228 H228       -3.1321  -23.0101  -57.3244 H         1 UNK         0.0600 
    229 H229       -2.6840  -23.0016  -55.6245 H         1 UNK         0.0600 
    230 H230       -6.6655  -24.1947  -54.7066 H         1 UNK         0.3000 
    231 H231       -8.3730  -22.9612  -54.0377 H         1 UNK         0.0600 
    232 H232       -8.0079  -21.4623  -56.6841 H         1 UNK         0.0600 
    233 H233       -8.8156  -23.0197  -56.5062 H         1 UNK         0.0600 
    234 H234       -9.4943  -21.5884  -55.7526 H         1 UNK         0.0600 
    235 H235       -5.7300  -21.9731  -53.1998 H         1 UNK         0.3000 
    236 H236       -4.7569  -20.3664  -52.0216 H         1 UNK         0.0600 
    237 H237       -7.4700  -19.0055  -51.7068 H         1 UNK         0.0600 
    238 H238       -6.8746  -20.3224  -50.6964 H         1 UNK         0.0600 
    239 H239       -6.0451  -18.7752  -50.7060 H         1 UNK         0.0600 
    240 H240       -4.7566  -20.2254  -54.8441 H         1 UNK         0.3000 
    241 H241       -3.7789  -19.0949  -56.4218 H         1 UNK         0.0600 
    242 H242       -5.9124  -16.8549  -58.2682 H         1 UNK         0.3800 
    243 H243       -4.2402  -17.3176  -58.1420 H         1 UNK         0.3800 
    244 H244       -2.8772  -16.7724  -56.2432 H         1 UNK         0.0800 
    245 H245       -3.6065  -16.5760  -54.6860 H         1 UNK         0.0800 
    246 H246       -2.4619  -17.9218  -52.3700 H         1 UNK         0.0800 
    247 H247       -2.0662  -16.3288  -52.9619 H         1 UNK         0.0800 
@<TRIPOS>BOND
     1    1    2 1    
     2    1  127 1    
     3    1  128 1    
     4    1  129 1    
     5    2    3 2    
     6    2    4 am   BACKBONE|DICT|INTERRES
     7    4    5 1    
     8    4  130 1    
     9    5    6 1    
    10    5   65 1    
    11    5  131 1    
    12    6    7 1    
    13    6  132 1    
    14    6  133 1    
    15    7    8 1    
    16    8    9 1    
    17    8  134 1    
    18    8  135 1    
    19    9   10 ar   
    20    9   14 ar   
    21   10   11 ar   
    22   10  136 1    
    23   11   12 ar   
    24   11  126 1    
    25   12   13 ar   
    26   12  137 1    
    27   13   14 ar   
    28   13   15 1    
    29   14  138 1    
    30   15   16 1    
    31   15  139 1    
    32   15  140 1    
    33   16   17 1    
    34   17   18 1    
    35   17  141 1    
    36   17  142 1    
    37   18   19 1    
    38   18   67 1    
    39   18  143 1    
    40   19   20 am   BACKBONE|DICT|INTERRES
    41   19  144 1    
    42   20   21 2    
    43   20   22 1    
    44   22   23 1    
    45   22   24 1    
    46   22  145 1    
    47   23  146 1    
    48   23  147 1    
    49   23  148 1    
    50   24   25 am   BACKBONE|DICT|INTERRES
    51   24  149 1    
    52   25   26 2    
    53   25   27 1    
    54   27   28 1    
    55   27   29 1    
    56   27  150 1    
    57   28  151 1    
    58   28  152 1    
    59   28  153 1    
    60   29   30 am   BACKBONE|DICT|INTERRES
    61   29  154 1    
    62   30   31 2    
    63   30   32 1    
    64   32   33 1    
    65   32   34 1    
    66   32  155 1    
    67   33  156 1    
    68   33  157 1    
    69   33  158 1    
    70   34   35 am   BACKBONE|DICT|INTERRES
    71   34  159 1    
    72   35   36 2    
    73   35   37 1    
    74   37   38 1    
    75   37   39 1    
    76   37  160 1    
    77   38  161 1    
    78   38  162 1    
    79   38  163 1    
    80   39   40 am   BACKBONE|DICT|INTERRES
    81   39  164 1    
    82   40   41 2    
    83   40   42 1    
    84   42   43 1    
    85   42   44 1    
    86   42  165 1    
    87   43  166 1    
    88   43  167 1    
    89   43  168 1    
    90   44   45 am   BACKBONE|DICT|INTERRES
    91   44  169 1    
    92   45   46 2    
    93   45   47 1    
    94   47   48 1    
    95   47   49 1    
    96   47  170 1    
    97   48  171 1    
    98   48  172 1    
    99   48  173 1    
   100   49   50 am   BACKBONE|DICT|INTERRES
   101   49  174 1    
   102   50   51 2    
   103   50   52 1    
   104   52   53 1    
   105   52   54 1    
   106   52  175 1    
   107   53  176 1    
   108   53  177 1    
   109   53  178 1    
   110   54   55 am   BACKBONE|DICT|INTERRES
   111   54  179 1    
   112   55   56 2    
   113   55   57 1    
   114   57   58 1    
   115   57   59 1    
   116   57  180 1    
   117   58  181 1    
   118   58  182 1    
   119   58  183 1    
   120   59   60 am   BACKBONE|DICT|INTERRES
   121   59  184 1    
   122   60   61 2    
   123   60   62 1    
   124   62   63 1    
   125   62   64 1    
   126   62  185 1    
   127   63  186 1    
   128   63  187 1    
   129   63  188 1    
   130   64   65 am   BACKBONE|DICT|INTERRES
   131   64  189 1    
   132   65   66 2    
   133   67   68 2    
   134   67   69 am   BACKBONE|DICT|INTERRES
   135   69   70 1    
   136   69  190 1    
   137   70   71 1    
   138   70   72 1    
   139   70  191 1    
   140   71  192 1    
   141   71  193 1    
   142   71  194 1    
   143   72   73 2    
   144   72   74 am   BACKBONE|DICT|INTERRES
   145   74   75 1    
   146   74  195 1    
   147   75   76 1    
   148   75   77 1    
   149   75  196 1    
   150   76  197 1    
   151   76  198 1    
   152   76  199 1    
   153   77   78 2    
   154   77   79 am   BACKBONE|DICT|INTERRES
   155   79   80 1    
   156   79  200 1    
   157   80   81 1    
   158   80   82 1    
   159   80  201 1    
   160   81  202 1    
   161   81  203 1    
   162   81  204 1    
   163   82   83 2    
   164   82   84 am   BACKBONE|DICT|INTERRES
   165   84   85 1    
   166   84  205 1    
   167   85   86 1    
   168   85   87 1    
   169   85  206 1    
   170   86  207 1    
   171   86  208 1    
   172   86  209 1    
   173   87   88 2    
   174   87   89 am   BACKBONE|DICT|INTERRES
   175   89   90 1    
   176   89  210 1    
   177   90   91 1    
   178   90   92 1    
   179   90  211 1    
   180   91  212 1    
   181   91  213 1    
   182   91  214 1    
   183   92   93 2    
   184   92   94 am   BACKBONE|DICT|INTERRES
   185   94   95 1    
   186   94  215 1    
   187   95   96 1    
   188   95   97 1    
   189   95  216 1    
   190   96  217 1    
   191   96  218 1    
   192   96  219 1    
   193   97   98 2    
   194   97   99 am   BACKBONE|DICT|INTERRES
   195   99  100 1    
   196   99  220 1    
   197  100  101 1    
   198  100  102 1    
   199  100  221 1    
   200  101  222 1    
   201  101  223 1    
   202  101  224 1    
   203  102  103 2    
   204  102  104 am   BACKBONE|DICT|INTERRES
   205  104  105 1    
   206  104  225 1    
   207  105  106 1    
   208  105  107 1    
   209  105  226 1    
   210  106  227 1    
   211  106  228 1    
   212  106  229 1    
   213  107  108 2    
   214  107  109 am   BACKBONE|DICT|INTERRES
   215  109  110 1    
   216  109  230 1    
   217  110  111 1    
   218  110  112 1    
   219  110  231 1    
   220  111  232 1    
   221  111  233 1    
   222  111  234 1    
   223  112  113 2    
   224  112  114 am   BACKBONE|DICT|INTERRES
   225  114  115 1    
   226  114  235 1    
   227  115  116 1    
   228  115  117 1    
   229  115  236 1    
   230  116  237 1    
   231  116  238 1    
   232  116  239 1    
   233  117  118 2    
   234  117  119 am   BACKBONE|DICT|INTERRES
   235  119  120 1    
   236  119  240 1    
   237  120  121 1    
   238  120  124 1    
   239  120  241 1    
   240  121  122 am   BACKBONE|DICT|INTERRES
   241  121  123 2    
   242  122  242 1    
   243  122  243 1    
   244  124  125 1    
   245  124  244 1    
   246  124  245 1    
   247  125  126 1    
   248  126  246 1    
   249  126  247 1    
@<TRIPOS>SUBSTRUCTURE
     1 UNK         1 GROUP             0       ****    0 ROOT    
