@<TRIPOS>MOLECULE
3R540
247   249    1
SMALL
USER_CHARGES


@<TRIPOS>ATOM
      1 CA          2.2934  -15.5960  -47.5009 C.3       0 UNK        -0.1800 
      2 C           1.3577  -14.7636  -46.6426 C.2       0 UNK         0.5000 
      3 O           1.7804  -14.2429  -45.6126 O.2       0 UNK        -0.5000 
      4 N           0.1040  -14.5905  -47.0817 N.am      1 UNK        -0.5000 
      5 CA         -0.9236  -13.7834  -46.4051 C.3       1 UNK         0.1400 
      6 C6         -2.3102  -13.9330  -47.0751 C.3       23 UNK        -0.0398 
      7 S7         -3.0086  -15.6004  -46.8324 S.3       23 UNK        -0.2404 
      8 C8         -3.3479  -16.1481  -48.5389 C.3       23 UNK        -0.0205 
      9 C9         -2.1347  -16.6817  -49.3007 C.ar      23 UNK        -0.0193 
     10 C10        -2.0794  -16.5188  -50.6877 C.ar      23 UNK        -0.1150 
     11 C11        -1.0257  -17.0588  -51.4294 C.ar      23 UNK        -0.0193 
     12 C12         0.0060  -17.7327  -50.7718 C.ar      23 UNK        -0.1150 
     13 C13        -0.0260  -17.8984  -49.3855 C.ar      23 UNK        -0.0193 
     14 C14        -1.1076  -17.3876  -48.6603 C.ar      23 UNK        -0.1150 
     15 C15         1.1240  -18.5991  -48.6721 C.3       23 UNK        -0.0205 
     16 S16         1.2658  -20.3605  -49.0953 S.3       23 UNK        -0.2404 
     17 C17        -0.2356  -21.0355  -48.3247 C.3       23 UNK        -0.0398 
     18 CA          0.0418  -22.3403  -47.5414 C.3       11 UNK         0.1400 
     19 N           0.8355  -22.1420  -46.3266 N.am      11 UNK        -0.5000 
     20 C           1.5146  -23.1243  -45.7160 C.2       10 UNK         0.5000 
     21 O           1.6643  -24.2500  -46.1923 O.2       10 UNK        -0.5000 
     22 CA          2.0870  -22.8243  -44.3169 C.3       10 UNK         0.1400 
     23 CB          3.5095  -22.2530  -44.4132 C.3       10 UNK        -0.1800 
     24 N           1.2421  -21.9260  -43.5279 N.am      10 UNK        -0.5000 
     25 C          -0.0104  -22.2087  -43.1392 C.2       9 UNK         0.5000 
     26 O          -0.5788  -23.2743  -43.3794 O.2       9 UNK        -0.5000 
     27 CA         -0.7734  -21.1021  -42.3906 C.3       9 UNK         0.1400 
     28 CB         -0.4679  -21.1589  -40.8867 C.3       9 UNK        -0.1800 
     29 N          -0.4959  -19.7575  -42.8978 N.am      9 UNK        -0.5000 
     30 C          -0.7377  -19.3343  -44.1476 C.2       8 UNK         0.5000 
     31 O          -1.2277  -20.0366  -45.0326 O.2       8 UNK        -0.5000 
     32 CA         -0.3041  -17.8953  -44.4751 C.3       8 UNK         0.1400 
     33 CB         -1.2598  -16.8830  -43.8282 C.3       8 UNK        -0.1800 
     34 N           1.0691  -17.6209  -44.0546 N.am      8 UNK        -0.5000 
     35 C           2.1512  -18.2832  -44.4893 C.2       7 UNK         0.5000 
     36 O           2.1177  -19.1555  -45.3559 O.2       7 UNK        -0.5000 
     37 CA          3.4852  -17.9591  -43.7954 C.3       7 UNK         0.1400 
     38 CB          4.1492  -16.7132  -44.4009 C.3       7 UNK        -0.1800 
     39 N           3.3108  -17.7741  -42.3554 N.am      7 UNK        -0.5000 
     40 C           3.0193  -18.7626  -41.4978 C.2       6 UNK         0.5000 
     41 O           2.9180  -19.9451  -41.8250 O.2       6 UNK        -0.5000 
     42 CA          2.7598  -18.3498  -40.0371 C.3       6 UNK         0.1400 
     43 CB          4.0832  -18.2035  -39.2714 C.3       6 UNK        -0.1800 
     44 N           2.0007  -17.1016  -39.9369 N.am      6 UNK        -0.5000 
     45 C           0.7199  -16.9657  -40.3095 C.2       5 UNK         0.5000 
     46 O           0.0313  -17.8961  -40.7255 O.2       5 UNK        -0.5000 
     47 CA          0.1224  -15.5458  -40.2506 C.3       5 UNK         0.1400 
     48 CB         -0.4949  -15.2780  -38.8702 C.3       5 UNK        -0.1800 
     49 N           1.0960  -14.4940  -40.5608 N.am      5 UNK        -0.5000 
     50 C           1.7166  -14.3602  -41.7402 C.2       4 UNK         0.5000 
     51 O           1.5268  -15.1106  -42.6977 O.2       4 UNK        -0.5000 
     52 CA          2.7836  -13.2636  -41.8256 C.3       4 UNK         0.1400 
     53 CB          4.0962  -13.7754  -41.1952 C.3       4 UNK        -0.1800 
     54 N           3.0113  -12.8756  -43.2178 N.am      4 UNK        -0.5000 
     55 C           3.7054  -11.7927  -43.5939 C.2       3 UNK         0.5000 
     56 O           4.1430  -10.9550  -42.8033 O.2       3 UNK        -0.5000 
     57 CA          3.9702  -11.6080  -45.0950 C.3       3 UNK         0.1400 
     58 CB          4.8383  -12.7490  -45.6548 C.3       3 UNK        -0.1800 
     59 N           2.7237  -11.5177  -45.8506 N.am      3 UNK        -0.5000 
     60 C           2.1398  -10.3691  -46.2226 C.2       2 UNK         0.5000 
     61 O           2.5710   -9.2577  -45.9118 O.2       2 UNK        -0.5000 
     62 CA          0.8866  -10.4525  -47.1205 C.3       2 UNK         0.1400 
     63 CB          1.2267  -10.0131  -48.5538 C.3       2 UNK        -0.1800 
     64 N           0.3062  -11.7937  -47.1744 N.am      2 UNK        -0.5000 
     65 C          -0.5403  -12.2928  -46.2647 C.2       1 UNK         0.5000 
     66 O          -0.9940  -11.6369  -45.3261 O.2       1 UNK        -0.5000 
     67 C          -1.2785  -23.0492  -47.1975 C.2       11 UNK         0.5000 
     68 O          -1.5535  -24.1113  -47.7540 O.2       11 UNK        -0.5000 
     69 N          -2.0644  -22.4591  -46.2829 N.am      12 UNK        -0.5000 
     70 CA         -3.4439  -22.8446  -45.9598 C.3       12 UNK         0.1400 
     71 CB         -4.0204  -21.8536  -44.9394 C.3       12 UNK        -0.1800 
     72 C          -3.6351  -24.2958  -45.4788 C.2       12 UNK         0.5000 
     73 O          -4.7346  -24.8322  -45.6187 O.2       12 UNK        -0.5000 
     74 N          -2.5654  -24.9196  -44.9675 N.am      13 UNK        -0.5000 
     75 CA         -2.4837  -26.3503  -44.6676 C.3       13 UNK         0.1400 
     76 CB         -1.1265  -26.6389  -44.0079 C.3       13 UNK        -0.1800 
     77 C          -2.6874  -27.2616  -45.8997 C.2       13 UNK         0.5000 
     78 O          -3.1308  -28.3990  -45.7341 O.2       13 UNK        -0.5000 
     79 N          -2.3749  -26.7522  -47.0990 N.am      14 UNK        -0.5000 
     80 CA         -2.6068  -27.4030  -48.3846 C.3       14 UNK         0.1400 
     81 CB         -1.2924  -27.4354  -49.1846 C.3       14 UNK        -0.1800 
     82 C          -3.7184  -26.6602  -49.1441 C.2       14 UNK         0.5000 
     83 O          -4.7924  -27.2260  -49.3513 O.2       14 UNK        -0.5000 
     84 N          -3.4493  -25.4053  -49.5232 N.am      15 UNK        -0.5000 
     85 CA         -4.3362  -24.4958  -50.2440 C.3       15 UNK         0.1400 
     86 CB         -4.6188  -25.0022  -51.6712 C.3       15 UNK        -0.1800 
     87 C          -3.6710  -23.1138  -50.2946 C.2       15 UNK         0.5000 
     88 O          -2.4445  -23.0287  -50.3738 O.2       15 UNK        -0.5000 
     89 N          -4.4853  -22.0575  -50.2646 N.am      16 UNK        -0.5000 
     90 CA         -4.0545  -20.6627  -50.2631 C.3       16 UNK         0.1400 
     91 CB         -3.8444  -20.2058  -48.8075 C.3       16 UNK        -0.1800 
     92 C          -5.1183  -19.8070  -50.9656 C.2       16 UNK         0.5000 
     93 O          -6.1589  -20.3325  -51.3709 O.2       16 UNK        -0.5000 
     94 N          -4.8384  -18.5017  -51.0930 N.am      17 UNK        -0.5000 
     95 CA         -5.7432  -17.4542  -51.5929 C.3       17 UNK         0.1400 
     96 CB         -6.8805  -17.2084  -50.5800 C.3       17 UNK        -0.1800 
     97 C          -6.2647  -17.7084  -53.0244 C.2       17 UNK         0.5000 
     98 O          -7.3957  -17.3436  -53.3491 O.2       17 UNK        -0.5000 
     99 N          -5.4190  -18.3479  -53.8437 N.am      18 UNK        -0.5000 
    100 CA        -5.6496  -18.7578  -55.2306 C.3       18 UNK         0.1400 
    101 CB        -5.8276  -17.5286  -56.1458 C.3       18 UNK        -0.1800 
    102 C         -6.7635  -19.8129  -55.4152 C.2       18 UNK         0.5000 
    103 O         -7.2675  -19.9647  -56.5292 O.2       18 UNK        -0.5000 
    104 N         -7.1224  -20.5420  -54.3456 N.am      19 UNK        -0.5000 
    105 CA        -8.1368  -21.6008  -54.3791 C.3       19 UNK         0.1400 
    106 CB        -8.5223  -21.9894  -52.9434 C.3       19 UNK        -0.1800 
    107 C         -7.6732  -22.8391  -55.1697 C.2       19 UNK         0.5000 
    108 O         -8.4463  -23.3905  -55.9538 O.2       19 UNK        -0.5000 
    109 N         -6.4116  -23.2303  -54.9585 N.am      20 UNK        -0.5000 
    110 CA        -5.7215  -24.3350  -55.6260 C.3       20 UNK         0.1400 
    111 CB        -6.2609  -25.6962  -55.1369 C.3       20 UNK        -0.1800 
    112 C         -4.2048  -24.1752  -55.4125 C.2       20 UNK         0.5000 
    113 O         -3.5083  -25.1457  -55.1123 O.2       20 UNK        -0.5000 
    114 N         -3.7288  -22.9308  -55.5243 N.am      21 UNK        -0.5000 
    115 CA        -2.3637  -22.4961  -55.2482 C.3       21 UNK         0.1400 
    116 CB        -2.1450  -22.4196  -53.7215 C.3       21 UNK        -0.1800 
    117 C         -2.1406  -21.1346  -55.9284 C.2       21 UNK         0.5000 
    118 O         -3.0025  -20.6826  -56.6868 O.2       21 UNK        -0.5000 
    119 N         -1.0062  -20.4948  -55.6206 N.am      22 UNK        -0.5000 
    120 CA        -0.6598  -19.1081  -55.9928 C.3       22 UNK         0.1400 
    121 C         -0.3263  -18.8903  -57.5008 C.2       22 UNK         0.5000 
    122 N         -0.1134  -19.9360  -58.2899 N.am      22 UNK        -0.7600 
    123 O         -0.2246  -17.7559  -57.9603 O.2       22 UNK        -0.5000 
    124 C124       -1.6712  -18.0518  -55.4538 C.3       23 UNK        -0.0398 
    125 S125       -2.0442  -18.2512  -53.6757 S.3       23 UNK        -0.2404 
    126 C126       -1.0190  -16.9419  -52.9434 C.3       23 UNK        -0.0205 
    127 H127        2.4529  -16.5696  -47.0409 H         1 UNK         0.0600 
    128 H128        3.2598  -15.1002  -47.5921 H         1 UNK         0.0600 
    129 H129        1.8934  -15.7390  -48.5044 H         1 UNK         0.0600 
    130 H130       -0.1937  -15.0515  -47.9300 H         1 UNK         0.3000 
    131 H131       -1.0027  -14.1557  -45.3838 H         1 UNK         0.0600 
    132 H132       -3.0259  -13.2285  -46.6470 H         1 UNK         0.0800 
    133 H133       -2.2506  -13.6970  -48.1388 H         1 UNK         0.0800 
    134 H134       -3.8146  -15.3271  -49.0857 H         1 UNK         0.0800 
    135 H135       -4.0951  -16.9402  -48.4920 H         1 UNK         0.0800 
    136 H136       -2.8704  -15.9909  -51.2011 H         1 UNK         0.1150 
    137 H137        0.8296  -18.1429  -51.3394 H         1 UNK         0.1150 
    138 H138       -1.1506  -17.5413  -47.5939 H         1 UNK         0.1150 
    139 H139        2.0601  -18.1130  -48.9470 H         1 UNK         0.0800 
    140 H140        1.0269  -18.4967  -47.5920 H         1 UNK         0.0800 
    141 H141       -0.9415  -21.2142  -49.1370 H         1 UNK         0.0800 
    142 H142       -0.6956  -20.2866  -47.6785 H         1 UNK         0.0800 
    143 H143        0.5937  -23.0070  -48.2083 H         1 UNK         0.0600 
    144 H144        0.7668  -21.2395  -45.8740 H         1 UNK         0.3000 
    145 H145        2.1431  -23.7724  -43.7780 H         1 UNK         0.0600 
    146 H146        3.9351  -22.0823  -43.4242 H         1 UNK         0.0600 
    147 H147        4.1706  -22.9445  -44.9369 H         1 UNK         0.0600 
    148 H148        3.5314  -21.3085  -44.9555 H         1 UNK         0.0600 
    149 H149        1.6492  -21.0401  -43.2529 H         1 UNK         0.3000 
    150 H150       -1.8396  -21.2881  -42.5218 H         1 UNK         0.0600 
    151 H151       -0.6784  -22.1495  -40.4816 H         1 UNK         0.0600 
    152 H152       -1.0790  -20.4457  -40.3334 H         1 UNK         0.0600 
    153 H153        0.5787  -20.9341  -40.6797 H         1 UNK         0.0600 
    154 H154       -0.1250  -19.0931  -42.2238 H         1 UNK         0.3000 
    155 H155       -0.3426  -17.7623  -45.5554 H         1 UNK         0.0600 
    156 H156       -1.3635  -17.0437  -42.7566 H         1 UNK         0.0600 
    157 H157       -2.2569  -16.9611  -44.2616 H         1 UNK         0.0600 
    158 H158       -0.9126  -15.8622  -43.9731 H         1 UNK         0.0600 
    159 H159        1.2014  -16.8568  -43.3974 H         1 UNK         0.3000 
    160 H160        4.1555  -18.8072  -43.9515 H         1 UNK         0.0600 
    161 H161        3.5284  -15.8256  -44.2858 H         1 UNK         0.0600 
    162 H162        4.3334  -16.8493  -45.4668 H         1 UNK         0.0600 
    163 H163        5.1110  -16.5103  -43.9299 H         1 UNK         0.0600 
    164 H164        3.3188  -16.8243  -42.0168 H         1 UNK         0.3000 
    165 H165        2.1772  -19.1435  -39.5644 H         1 UNK         0.0600 
    166 H166        3.9068  -17.9845  -38.2182 H         1 UNK         0.0600 
    167 H167        4.6640  -19.1257  -39.3176 H         1 UNK         0.0600 
    168 H168        4.7021  -17.4046  -39.6818 H         1 UNK         0.0600 
    169 H169        2.4931  -16.2901  -39.5951 H         1 UNK         0.3000 
    170 H170       -0.6739  -15.4919  -40.9954 H         1 UNK         0.0600 
    171 H171       -1.2405  -16.0351  -38.6231 H         1 UNK         0.0600 
    172 H172        0.2586  -15.2895  -38.0818 H         1 UNK         0.0600 
    173 H173       -0.9958  -14.3101  -38.8431 H         1 UNK         0.0600 
    174 H174        1.3134  -13.8489  -39.8148 H         1 UNK         0.3000 
    175 H175        2.4235  -12.3941  -41.2719 H         1 UNK         0.0600 
    176 H176        4.5110  -14.6113  -41.7601 H         1 UNK         0.0600 
    177 H177        4.8549  -12.9942  -41.1544 H         1 UNK         0.0600 
    178 H178        3.9397  -14.1157  -40.1710 H         1 UNK         0.0600 
    179 H179        2.6156  -13.5033  -43.9155 H         1 UNK         0.3000 
    180 H180        4.5420  -10.6854  -45.2176 H         1 UNK         0.0600 
    181 H181        5.7879  -12.8102  -45.1220 H         1 UNK         0.0600 
    182 H182        5.0672  -12.5868  -46.7081 H         1 UNK         0.0600 
    183 H183        4.3542  -13.7210  -45.5660 H         1 UNK         0.0600 
    184 H184        2.2626  -12.3990  -46.0485 H         1 UNK         0.3000 
    185 H185        0.1480   -9.7550  -46.7195 H         1 UNK         0.0600 
    186 H186        1.6300   -8.9996  -48.5680 H         1 UNK         0.0600 
    187 H187        1.9698  -10.6682  -49.0103 H         1 UNK         0.0600 
    188 H188        0.3402  -10.0163  -49.1883 H         1 UNK         0.0600 
    189 H189        0.6321  -12.4005  -47.9126 H         1 UNK         0.3000 
    190 H190       -1.7330  -21.6047  -45.8385 H         1 UNK         0.3000 
    191 H191       -4.0200  -22.7470  -46.8819 H         1 UNK         0.0600 
    192 H192       -3.4864  -21.9038  -43.9917 H         1 UNK         0.0600 
    193 H193       -5.0704  -22.0672  -44.7357 H         1 UNK         0.0600 
    194 H194       -3.9630  -20.8285  -45.3062 H         1 UNK         0.0600 
    195 H195       -1.7234  -24.3757  -44.8151 H         1 UNK         0.3000 
    196 H196       -3.2727  -26.5857  -43.9508 H         1 UNK         0.0600 
    197 H197       -1.0259  -27.6968  -43.7617 H         1 UNK         0.0600 
    198 H198       -1.0119  -26.0776  -43.0804 H         1 UNK         0.0600 
    199 H199       -0.2973  -26.3719  -44.6649 H         1 UNK         0.0600 
    200 H200       -2.0466  -25.7901  -47.1492 H         1 UNK         0.3000 
    201 H201       -2.9360  -28.4344  -48.2427 H         1 UNK         0.0600 
    202 H202       -0.5453  -28.0480  -48.6800 H         1 UNK         0.0600 
    203 H203       -0.8673  -26.4397  -49.3175 H         1 UNK         0.0600 
    204 H204       -1.4487  -27.8631  -50.1756 H         1 UNK         0.0600 
    205 H205       -2.5646  -24.9819  -49.2513 H         1 UNK         0.3000 
    206 H206       -5.2738  -24.4165  -49.6902 H         1 UNK         0.0600 
    207 H207       -3.6950  -25.1824  -52.2217 H         1 UNK         0.0600 
    208 H208       -5.1886  -25.9308  -51.6638 H         1 UNK         0.0600 
    209 H209       -5.2021  -24.2744  -52.2363 H         1 UNK         0.0600 
    210 H210       -5.4893  -22.1809  -50.2996 H         1 UNK         0.3000 
    211 H211       -3.1206  -20.5596  -50.8204 H         1 UNK         0.0600 
    212 H212       -4.7824  -20.1856  -48.2512 H         1 UNK         0.0600 
    213 H213       -3.4106  -19.2090  -48.7622 H         1 UNK         0.0600 
    214 H214       -3.1639  -20.8684  -48.2789 H         1 UNK         0.0600 
    215 H215       -3.9347  -18.1776  -50.7775 H         1 UNK         0.3000 
    216 H216       -5.1544  -16.5383  -51.6507 H         1 UNK         0.0600 
    217 H217       -7.4831  -16.3457  -50.8665 H         1 UNK         0.0600 
    218 H218       -6.4857  -17.0085  -49.5839 H         1 UNK         0.0600 
    219 H219       -7.5497  -18.0665  -50.5093 H         1 UNK         0.0600 
    220 H220       -4.5094  -18.5864  -53.4712 H         1 UNK         0.3000 
    221 H221       -4.7313  -19.2531  -55.5363 H         1 UNK         0.0600 
    222 H222       -6.7698  -17.0143  -55.9555 H         1 UNK         0.0600 
    223 H223       -5.0183  -16.8122  -56.0047 H         1 UNK         0.0600 
    224 H224       -5.8204  -17.8186  -57.1971 H         1 UNK         0.0600 
    225 H225       -6.7000  -20.3446  -53.4453 H         1 UNK         0.3000 
    226 H226       -9.0270  -21.2029  -54.8709 H         1 UNK         0.0600 
    227 H227       -8.8879  -21.1265  -52.3863 H         1 UNK         0.0600 
    228 H228       -9.3151  -22.7384  -52.9418 H         1 UNK         0.0600 
    229 H229       -7.6764  -22.4063  -52.3957 H         1 UNK         0.0600 
    230 H230       -5.8541  -22.7080  -54.2975 H         1 UNK         0.3000 
    231 H231       -5.8982  -24.2574  -56.7005 H         1 UNK         0.0600 
    232 H232       -7.3222  -25.8097  -55.3566 H         1 UNK         0.0600 
    233 H233       -6.1287  -25.8177  -54.0621 H         1 UNK         0.0600 
    234 H234       -5.7452  -26.5222  -55.6281 H         1 UNK         0.0600 
    235 H235       -4.3213  -22.1973  -55.8932 H         1 UNK         0.3000 
    236 H236       -1.6624  -23.2088  -55.6866 H         1 UNK         0.0600 
    237 H237       -2.8088  -21.6891  -53.2573 H         1 UNK         0.0600 
    238 H238       -2.3268  -23.3824  -53.2452 H         1 UNK         0.0600 
    239 H239       -1.1218  -22.1389  -53.4714 H         1 UNK         0.0600 
    240 H240       -0.3486  -20.9490  -55.0038 H         1 UNK         0.3000 
    241 H241        0.2855  -18.9154  -55.4844 H         1 UNK         0.0600 
    242 H242       -0.1874  -20.8732  -57.9279 H         1 UNK         0.3800 
    243 H243        0.1122  -19.7889  -59.2613 H         1 UNK         0.3800 
    244 H244       -1.2944  -17.0417  -55.6223 H         1 UNK         0.0800 
    245 H245       -2.6094  -18.1102  -56.0063 H         1 UNK         0.0800 
    246 H246       -1.3968  -15.9646  -53.2476 H         1 UNK         0.0800 
    247 H247        0.0006  -17.0178  -53.3247 H         1 UNK         0.0800 
@<TRIPOS>BOND
     1    1    2 1    
     2    1  127 1    
     3    1  128 1    
     4    1  129 1    
     5    2    3 2    
     6    2    4 am   BACKBONE|DICT|INTERRES
     7    4    5 1    
     8    4  130 1    
     9    5    6 1    
    10    5   65 1    
    11    5  131 1    
    12    6    7 1    
    13    6  132 1    
    14    6  133 1    
    15    7    8 1    
    16    8    9 1    
    17    8  134 1    
    18    8  135 1    
    19    9   10 ar   
    20    9   14 ar   
    21   10   11 ar   
    22   10  136 1    
    23   11   12 ar   
    24   11  126 1    
    25   12   13 ar   
    26   12  137 1    
    27   13   14 ar   
    28   13   15 1    
    29   14  138 1    
    30   15   16 1    
    31   15  139 1    
    32   15  140 1    
    33   16   17 1    
    34   17   18 1    
    35   17  141 1    
    36   17  142 1    
    37   18   19 1    
    38   18   67 1    
    39   18  143 1    
    40   19   20 am   BACKBONE|DICT|INTERRES
    41   19  144 1    
    42   20   21 2    
    43   20   22 1    
    44   22   23 1    
    45   22   24 1    
    46   22  145 1    
    47   23  146 1    
    48   23  147 1    
    49   23  148 1    
    50   24   25 am   BACKBONE|DICT|INTERRES
    51   24  149 1    
    52   25   26 2    
    53   25   27 1    
    54   27   28 1    
    55   27   29 1    
    56   27  150 1    
    57   28  151 1    
    58   28  152 1    
    59   28  153 1    
    60   29   30 am   BACKBONE|DICT|INTERRES
    61   29  154 1    
    62   30   31 2    
    63   30   32 1    
    64   32   33 1    
    65   32   34 1    
    66   32  155 1    
    67   33  156 1    
    68   33  157 1    
    69   33  158 1    
    70   34   35 am   BACKBONE|DICT|INTERRES
    71   34  159 1    
    72   35   36 2    
    73   35   37 1    
    74   37   38 1    
    75   37   39 1    
    76   37  160 1    
    77   38  161 1    
    78   38  162 1    
    79   38  163 1    
    80   39   40 am   BACKBONE|DICT|INTERRES
    81   39  164 1    
    82   40   41 2    
    83   40   42 1    
    84   42   43 1    
    85   42   44 1    
    86   42  165 1    
    87   43  166 1    
    88   43  167 1    
    89   43  168 1    
    90   44   45 am   BACKBONE|DICT|INTERRES
    91   44  169 1    
    92   45   46 2    
    93   45   47 1    
    94   47   48 1    
    95   47   49 1    
    96   47  170 1    
    97   48  171 1    
    98   48  172 1    
    99   48  173 1    
   100   49   50 am   BACKBONE|DICT|INTERRES
   101   49  174 1    
   102   50   51 2    
   103   50   52 1    
   104   52   53 1    
   105   52   54 1    
   106   52  175 1    
   107   53  176 1    
   108   53  177 1    
   109   53  178 1    
   110   54   55 am   BACKBONE|DICT|INTERRES
   111   54  179 1    
   112   55   56 2    
   113   55   57 1    
   114   57   58 1    
   115   57   59 1    
   116   57  180 1    
   117   58  181 1    
   118   58  182 1    
   119   58  183 1    
   120   59   60 am   BACKBONE|DICT|INTERRES
   121   59  184 1    
   122   60   61 2    
   123   60   62 1    
   124   62   63 1    
   125   62   64 1    
   126   62  185 1    
   127   63  186 1    
   128   63  187 1    
   129   63  188 1    
   130   64   65 am   BACKBONE|DICT|INTERRES
   131   64  189 1    
   132   65   66 2    
   133   67   68 2    
   134   67   69 am   BACKBONE|DICT|INTERRES
   135   69   70 1    
   136   69  190 1    
   137   70   71 1    
   138   70   72 1    
   139   70  191 1    
   140   71  192 1    
   141   71  193 1    
   142   71  194 1    
   143   72   73 2    
   144   72   74 am   BACKBONE|DICT|INTERRES
   145   74   75 1    
   146   74  195 1    
   147   75   76 1    
   148   75   77 1    
   149   75  196 1    
   150   76  197 1    
   151   76  198 1    
   152   76  199 1    
   153   77   78 2    
   154   77   79 am   BACKBONE|DICT|INTERRES
   155   79   80 1    
   156   79  200 1    
   157   80   81 1    
   158   80   82 1    
   159   80  201 1    
   160   81  202 1    
   161   81  203 1    
   162   81  204 1    
   163   82   83 2    
   164   82   84 am   BACKBONE|DICT|INTERRES
   165   84   85 1    
   166   84  205 1    
   167   85   86 1    
   168   85   87 1    
   169   85  206 1    
   170   86  207 1    
   171   86  208 1    
   172   86  209 1    
   173   87   88 2    
   174   87   89 am   BACKBONE|DICT|INTERRES
   175   89   90 1    
   176   89  210 1    
   177   90   91 1    
   178   90   92 1    
   179   90  211 1    
   180   91  212 1    
   181   91  213 1    
   182   91  214 1    
   183   92   93 2    
   184   92   94 am   BACKBONE|DICT|INTERRES
   185   94   95 1    
   186   94  215 1    
   187   95   96 1    
   188   95   97 1    
   189   95  216 1    
   190   96  217 1    
   191   96  218 1    
   192   96  219 1    
   193   97   98 2    
   194   97   99 am   BACKBONE|DICT|INTERRES
   195   99  100 1    
   196   99  220 1    
   197  100  101 1    
   198  100  102 1    
   199  100  221 1    
   200  101  222 1    
   201  101  223 1    
   202  101  224 1    
   203  102  103 2    
   204  102  104 am   BACKBONE|DICT|INTERRES
   205  104  105 1    
   206  104  225 1    
   207  105  106 1    
   208  105  107 1    
   209  105  226 1    
   210  106  227 1    
   211  106  228 1    
   212  106  229 1    
   213  107  108 2    
   214  107  109 am   BACKBONE|DICT|INTERRES
   215  109  110 1    
   216  109  230 1    
   217  110  111 1    
   218  110  112 1    
   219  110  231 1    
   220  111  232 1    
   221  111  233 1    
   222  111  234 1    
   223  112  113 2    
   224  112  114 am   BACKBONE|DICT|INTERRES
   225  114  115 1    
   226  114  235 1    
   227  115  116 1    
   228  115  117 1    
   229  115  236 1    
   230  116  237 1    
   231  116  238 1    
   232  116  239 1    
   233  117  118 2    
   234  117  119 am   BACKBONE|DICT|INTERRES
   235  119  120 1    
   236  119  240 1    
   237  120  121 1    
   238  120  124 1    
   239  120  241 1    
   240  121  122 am   BACKBONE|DICT|INTERRES
   241  121  123 2    
   242  122  242 1    
   243  122  243 1    
   244  124  125 1    
   245  124  244 1    
   246  124  245 1    
   247  125  126 1    
   248  126  246 1    
   249  126  247 1    
@<TRIPOS>SUBSTRUCTURE
     1 UNK         1 GROUP             0       ****    0 ROOT    
