@<TRIPOS>MOLECULE
3R540
247   249    1
SMALL
USER_CHARGES


@<TRIPOS>ATOM
      1 CA          4.5862  -14.8982  -46.3471 C.3       0 UNK        -0.1800 
      2 C           3.0761  -14.7218  -46.3766 C.2       0 UNK         0.5000 
      3 O           2.4251  -14.7303  -45.3287 O.2       0 UNK        -0.5000 
      4 N           2.5306  -14.5381  -47.5830 N.am      1 UNK        -0.5000 
      5 CA          1.1160  -14.2790  -47.8838 C.3       1 UNK         0.1400 
      6 C6          0.8160  -14.3703  -49.4044 C.3       23 UNK        -0.0398 
      7 S7          2.0972  -13.5831  -50.4617 S.3       23 UNK        -0.2404 
      8 C8          2.0797  -14.5533  -52.0130 C.3       23 UNK        -0.0205 
      9 C9          1.9087  -16.0505  -51.7955 C.ar      23 UNK        -0.0193 
     10 C10         0.7617  -16.6915  -52.2709 C.ar      23 UNK        -0.1150 
     11 C11         0.5405  -18.0450  -52.0067 C.ar      23 UNK        -0.0193 
     12 C12         1.4793  -18.7607  -51.2613 C.ar      23 UNK        -0.1150 
     13 C13         2.6212  -18.1262  -50.7623 C.ar      23 UNK        -0.0193 
     14 C14         2.8470  -16.7784  -51.0571 C.ar      23 UNK        -0.1150 
     15 C15         3.5683  -18.8798  -49.8410 C.3       23 UNK        -0.0205 
     16 S16         3.3967  -18.3727  -48.0915 S.3       23 UNK        -0.2404 
     17 C17         1.5911  -18.4185  -47.8076 C.3       23 UNK        -0.0398 
     18 CA          1.0297  -19.8569  -47.7151 C.3       11 UNK         0.1400 
     19 N           1.5318  -20.5709  -46.5377 N.am      11 UNK        -0.5000 
     20 C           1.2994  -21.8586  -46.2495 C.2       10 UNK         0.5000 
     21 O           0.6391  -22.6055  -46.9703 O.2       10 UNK        -0.5000 
     22 CA          1.8443  -22.3956  -44.9095 C.3       10 UNK         0.1400 
     23 CB          3.0232  -21.5712  -44.3515 C.3       10 UNK        -0.1800 
     24 N           0.8036  -22.5238  -43.8809 N.am      10 UNK        -0.5000 
     25 C          -0.0699  -21.5836  -43.4885 C.2       9 UNK         0.5000 
     26 O          -0.2017  -20.4949  -44.0463 O.2       9 UNK        -0.5000 
     27 CA         -0.9616  -21.8898  -42.2708 C.3       9 UNK         0.1400 
     28 CB         -1.0599  -23.3873  -41.8995 C.3       9 UNK        -0.1800 
     29 N          -0.5548  -21.0727  -41.1244 N.am      9 UNK        -0.5000 
     30 C           0.6025  -21.1387  -40.4468 C.2       8 UNK         0.5000 
     31 O           1.4718  -21.9880  -40.6510 O.2       8 UNK        -0.5000 
     32 CA          0.8153  -20.0675  -39.3599 C.3       8 UNK         0.1400 
     33 CB          2.2899  -19.9319  -38.9373 C.3       8 UNK        -0.1800 
     34 N           0.3457  -18.7696  -39.8377 N.am      8 UNK        -0.5000 
     35 C          -0.5793  -17.9999  -39.2509 C.2       7 UNK         0.5000 
     36 O          -1.1614  -18.3116  -38.2112 O.2       7 UNK        -0.5000 
     37 CA         -0.9202  -16.6528  -39.9250 C.3       7 UNK         0.1400 
     38 CB         -0.3554  -15.4845  -39.1019 C.3       7 UNK        -0.1800 
     39 N          -0.4370  -16.5379  -41.3034 N.am      7 UNK        -0.5000 
     40 C          -0.9358  -17.2170  -42.3454 C.2       6 UNK         0.5000 
     41 O          -1.9028  -17.9744  -42.2590 O.2       6 UNK        -0.5000 
     42 CA         -0.2181  -17.0522  -43.7008 C.3       6 UNK         0.1400 
     43 CB         -0.8498  -15.9142  -44.5142 C.3       6 UNK        -0.1800 
     44 N           1.2302  -16.8339  -43.6154 N.am      6 UNK        -0.5000 
     45 C           2.1098  -17.6401  -42.9983 C.2       5 UNK         0.5000 
     46 O           1.7924  -18.6404  -42.3594 O.2       5 UNK        -0.5000 
     47 CA          3.5928  -17.2546  -43.0790 C.3       5 UNK         0.1400 
     48 CB          4.2096  -17.7493  -44.3952 C.3       5 UNK        -0.1800 
     49 N           3.7484  -15.8051  -42.9719 N.am      5 UNK        -0.5000 
     50 C           4.2480  -15.1799  -41.9002 C.2       4 UNK         0.5000 
     51 O           4.7342  -15.7603  -40.9284 O.2       4 UNK        -0.5000 
     52 CA          4.1859  -13.6406  -41.8946 C.3       4 UNK         0.1400 
     53 CB          5.4511  -13.0484  -42.5346 C.3       4 UNK        -0.1800 
     54 N           3.0068  -13.0397  -42.5283 N.am      4 UNK        -0.5000 
     55 C           1.7238  -13.3154  -42.2452 C.2       3 UNK         0.5000 
     56 O           1.3534  -14.2591  -41.5490 O.2       3 UNK        -0.5000 
     57 CA          0.6764  -12.3520  -42.8206 C.3       3 UNK         0.1400 
     58 CB          0.5129  -11.1770  -41.8300 C.3       3 UNK        -0.1800 
     59 N           1.0713  -11.9257  -44.1692 N.am      3 UNK        -0.5000 
     60 C           0.5842  -10.9079  -44.8957 C.2       2 UNK         0.5000 
     61 O          -0.2853  -10.1246  -44.5141 O.2       2 UNK        -0.5000 
     62 CA          1.1577  -10.7451  -46.3173 C.3       2 UNK         0.1400 
     63 CB          2.4175   -9.8660  -46.2920 C.3       2 UNK        -0.1800 
     64 N           1.4778  -12.0200  -46.9601 N.am      2 UNK        -0.5000 
     65 C           0.5794  -12.9598  -47.2885 C.2       1 UNK         0.5000 
     66 O          -0.6344  -12.8263  -47.1286 O.2       1 UNK        -0.5000 
     67 C          -0.5121  -19.8404  -47.8096 C.2       11 UNK         0.5000 
     68 O          -1.0411  -19.8901  -48.9198 O.2       11 UNK        -0.5000 
     69 N          -1.2120  -19.8143  -46.6651 N.am      12 UNK        -0.5000 
     70 CA         -2.6745  -19.8832  -46.6144 C.3       12 UNK         0.1400 
     71 CB         -3.1733  -19.4131  -45.2407 C.3       12 UNK        -0.1800 
     72 C          -3.2012  -21.2938  -46.9350 C.2       12 UNK         0.5000 
     73 O          -4.2366  -21.4212  -47.5895 O.2       12 UNK        -0.5000 
     74 N          -2.4602  -22.3272  -46.5109 N.am      13 UNK        -0.5000 
     75 CA         -2.7484  -23.7279  -46.8252 C.3       13 UNK         0.1400 
     76 CB         -1.9877  -24.6442  -45.8560 C.3       13 UNK        -0.1800 
     77 C          -2.4211  -24.0712  -48.2892 C.2       13 UNK         0.5000 
     78 O          -3.1304  -24.8727  -48.8953 O.2       13 UNK        -0.5000 
     79 N          -1.3776  -23.4346  -48.8394 N.am      14 UNK        -0.5000 
     80 CA         -1.0168  -23.5003  -50.2547 C.3       14 UNK         0.1400 
     81 CB          0.3772  -22.8902  -50.4592 C.3       14 UNK        -0.1800 
     82 C          -2.0508  -22.8038  -51.1573 C.2       14 UNK         0.5000 
     83 O          -2.2602  -23.2495  -52.2832 O.2       14 UNK        -0.5000 
     84 N          -2.6806  -21.7284  -50.6642 N.am      15 UNK        -0.5000 
     85 CA         -3.7953  -21.0584  -51.3302 C.3       15 UNK         0.1400 
     86 CB         -4.0354  -19.6790  -50.6949 C.3       15 UNK        -0.1800 
     87 C          -5.0723  -21.9132  -51.2750 C.2       15 UNK         0.5000 
     88 O          -5.6579  -22.1995  -52.3219 O.2       15 UNK        -0.5000 
     89 N          -5.4759  -22.2887  -50.0506 N.am      16 UNK        -0.5000 
     90 CA         -6.6822  -23.0476  -49.6989 C.3       16 UNK         0.1400 
     91 CB         -6.5522  -24.5172  -50.1467 C.3       16 UNK        -0.1800 
     92 C          -7.9680  -22.3801  -50.2275 C.2       16 UNK         0.5000 
     93 O          -8.7816  -23.0345  -50.8785 O.2       16 UNK        -0.5000 
     94 N          -8.0902  -21.0623  -50.0028 N.am      17 UNK        -0.5000 
     95 CA         -9.1524  -20.1863  -50.5237 C.3       17 UNK         0.1400 
     96 CB        -10.5105  -20.5228  -49.8725 C.3       17 UNK        -0.1800 
     97 C          -9.2100  -20.1721  -52.0699 C.2       17 UNK         0.5000 
     98 O         -10.2916  -20.1041  -52.6552 O.2       17 UNK        -0.5000 
     99 N          -8.0228  -20.2604  -52.6871 N.am      18 UNK        -0.5000 
    100 CA        -7.7376  -20.3525  -54.1217 C.3       18 UNK         0.1400 
    101 CB        -8.3132  -19.1493  -54.8973 C.3       18 UNK        -0.1800 
    102 C         -8.1069  -21.7078  -54.7633 C.2       18 UNK         0.5000 
    103 O         -8.0629  -21.8133  -55.9895 O.2       18 UNK        -0.5000 
    104 N         -8.4240  -22.7329  -53.9562 N.am      19 UNK        -0.5000 
    105 CA        -8.6798  -24.0928  -54.4394 C.3       19 UNK         0.1400 
    106 CB        -9.4729  -24.8852  -53.3899 C.3       19 UNK        -0.1800 
    107 C         -7.3809  -24.8347  -54.8045 C.2       19 UNK         0.5000 
    108 O         -7.3715  -25.5900  -55.7774 O.2       19 UNK        -0.5000 
    109 N         -6.3121  -24.6010  -54.0299 N.am      20 UNK        -0.5000 
    110 CA        -4.9736  -25.1444  -54.2777 C.3       20 UNK         0.1400 
    111 CB        -4.3337  -25.5435  -52.9407 C.3       20 UNK        -0.1800 
    112 C         -4.0948  -24.1557  -55.0697 C.2       20 UNK         0.5000 
    113 O         -3.1407  -24.5832  -55.7223 O.2       20 UNK        -0.5000 
    114 N         -4.4616  -22.8645  -55.0373 N.am      21 UNK        -0.5000 
    115 CA        -3.9922  -21.7795  -55.9076 C.3       21 UNK         0.1400 
    116 CB        -4.5321  -21.9849  -57.3379 C.3       21 UNK        -0.1800 
    117 C         -2.4677  -21.5412  -55.8760 C.2       21 UNK         0.5000 
    118 O         -1.8762  -21.1843  -56.8967 O.2       21 UNK        -0.5000 
    119 N         -1.8674  -21.7323  -54.6961 N.am      22 UNK        -0.5000 
    120 CA        -0.4342  -21.5661  -54.4007 C.3       22 UNK         0.1400 
    121 C          0.4632  -22.7206  -54.9390 C.2       22 UNK         0.5000 
    122 N         -0.0918  -23.8329  -55.4090 N.am      22 UNK        -0.7600 
    123 O          1.6866  -22.6226  -54.9040 O.2       22 UNK        -0.5000 
    124 C124        0.1409  -20.1536  -54.7249 C.3       23 UNK        -0.0398 
    125 S125       -0.9458  -18.7607  -54.2543 S.3       23 UNK        -0.2404 
    126 C126       -0.7574  -18.7018  -52.4472 C.3       23 UNK        -0.0205 
    127 H127        4.9673  -14.8475  -45.3286 H         1 UNK         0.0600 
    128 H128        4.8634  -15.8645  -46.7678 H         1 UNK         0.0600 
    129 H129        5.0759  -14.1170  -46.9285 H         1 UNK         0.0600 
    130 H130        3.1312  -14.5381  -48.3960 H         1 UNK         0.3000 
    131 H131        0.5475  -15.0728  -47.3981 H         1 UNK         0.0600 
    132 H132        0.7267  -15.4264  -49.6481 H         1 UNK         0.0800 
    133 H133       -0.1580  -13.9448  -49.6539 H         1 UNK         0.0800 
    134 H134        3.0113  -14.3756  -52.5515 H         1 UNK         0.0800 
    135 H135        1.2828  -14.1660  -52.6498 H         1 UNK         0.0800 
    136 H136        0.0192  -16.1313  -52.8220 H         1 UNK         0.1150 
    137 H137        1.2949  -19.7985  -51.0264 H         1 UNK         0.1150 
    138 H138        3.7197  -16.2805  -50.6581 H         1 UNK         0.1150 
    139 H139        3.4055  -19.9557  -49.9187 H         1 UNK         0.0800 
    140 H140        4.5971  -18.7063  -50.1595 H         1 UNK         0.0800 
    141 H141        1.3828  -17.8740  -46.8846 H         1 UNK         0.0800 
    142 H142        1.0977  -17.8466  -48.5945 H         1 UNK         0.0800 
    143 H143        1.3792  -20.4118  -48.5866 H         1 UNK         0.0600 
    144 H144        2.0610  -20.0240  -45.8756 H         1 UNK         0.3000 
    145 H145        2.2117  -23.4024  -45.1129 H         1 UNK         0.0600 
    146 H146        3.4725  -22.0711  -43.4933 H         1 UNK         0.0600 
    147 H147        3.8089  -21.4417  -45.0970 H         1 UNK         0.0600 
    148 H148        2.7052  -20.5839  -44.0187 H         1 UNK         0.0600 
    149 H149        0.8165  -23.3892  -43.3607 H         1 UNK         0.3000 
    150 H150       -1.9653  -21.5574  -42.5398 H         1 UNK         0.0600 
    151 H151       -1.4319  -23.9745  -42.7381 H         1 UNK         0.0600 
    152 H152       -1.7558  -23.5353  -41.0738 H         1 UNK         0.0600 
    153 H153       -0.1030  -23.8148  -41.6006 H         1 UNK         0.0600 
    154 H154       -1.1648  -20.2937  -40.9173 H         1 UNK         0.3000 
    155 H155        0.2403  -20.3899  -38.4898 H         1 UNK         0.0600 
    156 H156        2.6709  -20.8685  -38.5285 H         1 UNK         0.0600 
    157 H157        2.4097  -19.1702  -38.1668 H         1 UNK         0.0600 
    158 H158        2.9232  -19.6564  -39.7818 H         1 UNK         0.0600 
    159 H159        0.7458  -18.4747  -40.7249 H         1 UNK         0.3000 
    160 H160       -2.0084  -16.5635  -39.9380 H         1 UNK         0.0600 
    161 H161        0.7344  -15.5118  -39.0644 H         1 UNK         0.0600 
    162 H162       -0.6518  -14.5245  -39.5250 H         1 UNK         0.0600 
    163 H163       -0.7214  -15.5128  -38.0748 H         1 UNK         0.0600 
    164 H164        0.3399  -15.9000  -41.4573 H         1 UNK         0.3000 
    165 H165       -0.3704  -17.9759  -44.2579 H         1 UNK         0.0600 
    166 H166       -0.4774  -15.9149  -45.5369 H         1 UNK         0.0600 
    167 H167       -1.9341  -16.0200  -44.5667 H         1 UNK         0.0600 
    168 H168       -0.6340  -14.9392  -44.0784 H         1 UNK         0.0600 
    169 H169        1.5862  -16.0307  -44.1216 H         1 UNK         0.3000 
    170 H170        4.1112  -17.7593  -42.2610 H         1 UNK         0.0600 
    171 H171        4.2473  -18.8375  -44.4232 H         1 UNK         0.0600 
    172 H172        3.6327  -17.4223  -45.2589 H         1 UNK         0.0600 
    173 H173        5.2317  -17.3899  -44.5142 H         1 UNK         0.0600 
    174 H174        3.3404  -15.2454  -43.7133 H         1 UNK         0.3000 
    175 H175        4.1666  -13.3330  -40.8472 H         1 UNK         0.0600 
    176 H176        5.4922  -13.2481  -43.6054 H         1 UNK         0.0600 
    177 H177        5.4962  -11.9684  -42.3935 H         1 UNK         0.0600 
    178 H178        6.3523  -13.4696  -42.0868 H         1 UNK         0.0600 
    179 H179        3.1899  -12.2280  -43.0988 H         1 UNK         0.3000 
    180 H180       -0.2710  -12.8876  -42.8952 H         1 UNK         0.0600 
    181 H181        0.4242  -11.5355  -40.8031 H         1 UNK         0.0600 
    182 H182        1.3643  -10.4964  -41.8661 H         1 UNK         0.0600 
    183 H183       -0.3904  -10.6019  -42.0293 H         1 UNK         0.0600 
    184 H184        1.7197  -12.5516  -44.6309 H         1 UNK         0.3000 
    185 H185        0.4020  -10.2429  -46.9251 H         1 UNK         0.0600 
    186 H186        2.2083   -8.8975  -45.8356 H         1 UNK         0.0600 
    187 H187        3.2229  -10.3305  -45.7217 H         1 UNK         0.0600 
    188 H188        2.7859   -9.6754  -47.3002 H         1 UNK         0.0600 
    189 H189        2.4516  -12.2059  -47.1492 H         1 UNK         0.3000 
    190 H190       -0.7207  -19.8520  -45.7750 H         1 UNK         0.3000 
    191 H191       -3.0777  -19.2009  -47.3661 H         1 UNK         0.0600 
    192 H192       -4.2632  -19.4140  -45.2013 H         1 UNK         0.0600 
    193 H193       -2.8429  -18.3968  -45.0281 H         1 UNK         0.0600 
    194 H194       -2.8177  -20.0555  -44.4354 H         1 UNK         0.0600 
    195 H195       -1.5878  -22.1368  -46.0400 H         1 UNK         0.3000 
    196 H196       -3.8171  -23.9009  -46.6799 H         1 UNK         0.0600 
    197 H197       -2.1721  -25.6942  -46.0867 H         1 UNK         0.0600 
    198 H198       -2.3132  -24.4785  -44.8302 H         1 UNK         0.0600 
    199 H199       -0.9105  -24.4838  -45.9002 H         1 UNK         0.0600 
    200 H200       -0.7780  -22.8793  -48.2365 H         1 UNK         0.3000 
    201 H201       -0.9754  -24.5521  -50.5452 H         1 UNK         0.0600 
    202 H202        1.1181  -23.3720  -49.8208 H         1 UNK         0.0600 
    203 H203        0.3831  -21.8249  -50.2348 H         1 UNK         0.0600 
    204 H204        0.7087  -23.0113  -51.4911 H         1 UNK         0.0600 
    205 H205       -2.3921  -21.3627  -49.7655 H         1 UNK         0.3000 
    206 H206       -3.5316  -20.9036  -52.3783 H         1 UNK         0.0600 
    207 H207       -3.1258  -19.0819  -50.6862 H         1 UNK         0.0600 
    208 H208       -4.7876  -19.1200  -51.2525 H         1 UNK         0.0600 
    209 H209       -4.3800  -19.7521  -49.6638 H         1 UNK         0.0600 
    210 H210       -4.9230  -21.9831  -49.2527 H         1 UNK         0.3000 
    211 H211       -6.7485  -23.0365  -48.6101 H         1 UNK         0.0600 
    212 H212       -6.5608  -24.6120  -51.2310 H         1 UNK         0.0600 
    213 H213       -7.3796  -25.1152  -49.7632 H         1 UNK         0.0600 
    214 H214       -5.6308  -24.9655  -49.7781 H         1 UNK         0.0600 
    215 H215       -7.3661  -20.6054  -49.4661 H         1 UNK         0.3000 
    216 H216       -8.8880  -19.1714  -50.2234 H         1 UNK         0.0600 
    217 H217      -10.4378  -20.5185  -48.7850 H         1 UNK         0.0600 
    218 H218      -10.8778  -21.5021  -50.1805 H         1 UNK         0.0600 
    219 H219      -11.2686  -19.7890  -50.1486 H         1 UNK         0.0600 
    220 H220       -7.2126  -20.3724  -52.0953 H         1 UNK         0.3000 
    221 H221       -6.6516  -20.2872  -54.1994 H         1 UNK         0.0600 
    222 H222       -9.4008  -19.1879  -54.9605 H         1 UNK         0.0600 
    223 H223       -8.0356  -18.2061  -54.4270 H         1 UNK         0.0600 
    224 H224       -7.9315  -19.1246  -55.9186 H         1 UNK         0.0600 
    225 H225       -8.4530  -22.5913  -52.9530 H         1 UNK         0.3000 
    226 H226       -9.2954  -24.0293  -55.3394 H         1 UNK         0.0600 
    227 H227      -10.3718  -24.3500  -53.0835 H         1 UNK         0.0600 
    228 H228       -9.7875  -25.8496  -53.7904 H         1 UNK         0.0600 
    229 H229       -8.8784  -25.0843  -52.4980 H         1 UNK         0.0600 
    230 H230       -6.3926  -23.9324  -53.2725 H         1 UNK         0.3000 
    231 H231       -5.0470  -26.0504  -54.8827 H         1 UNK         0.0600 
    232 H232       -4.3466  -24.7228  -52.2256 H         1 UNK         0.0600 
    233 H233       -4.8653  -26.3805  -52.4882 H         1 UNK         0.0600 
    234 H234       -3.2955  -25.8499  -53.0742 H         1 UNK         0.0600 
    235 H235       -5.1931  -22.6169  -54.3836 H         1 UNK         0.3000 
    236 H236       -4.4417  -20.8655  -55.5173 H         1 UNK         0.0600 
    237 H237       -5.6136  -22.1204  -57.3357 H         1 UNK         0.0600 
    238 H238       -4.3175  -21.1212  -57.9683 H         1 UNK         0.0600 
    239 H239       -4.0863  -22.8588  -57.8143 H         1 UNK         0.0600 
    240 H240       -2.4053  -22.1371  -53.9373 H         1 UNK         0.3000 
    241 H241       -0.3660  -21.6709  -53.3197 H         1 UNK         0.0600 
    242 H242        0.4980  -24.5772  -55.7452 H         1 UNK         0.3800 
    243 H243       -1.0991  -23.9381  -55.4418 H         1 UNK         0.3800 
    244 H244        0.3331  -20.0667  -55.7952 H         1 UNK         0.0800 
    245 H245        1.1078  -20.0173  -54.2376 H         1 UNK         0.0800 
    246 H246       -0.8626  -19.7018  -52.0243 H         1 UNK         0.0800 
    247 H247       -1.5816  -18.1134  -52.0448 H         1 UNK         0.0800 
@<TRIPOS>BOND
     1    1    2 1    
     2    1  127 1    
     3    1  128 1    
     4    1  129 1    
     5    2    3 2    
     6    2    4 am   BACKBONE|DICT|INTERRES
     7    4    5 1    
     8    4  130 1    
     9    5    6 1    
    10    5   65 1    
    11    5  131 1    
    12    6    7 1    
    13    6  132 1    
    14    6  133 1    
    15    7    8 1    
    16    8    9 1    
    17    8  134 1    
    18    8  135 1    
    19    9   10 ar   
    20    9   14 ar   
    21   10   11 ar   
    22   10  136 1    
    23   11   12 ar   
    24   11  126 1    
    25   12   13 ar   
    26   12  137 1    
    27   13   14 ar   
    28   13   15 1    
    29   14  138 1    
    30   15   16 1    
    31   15  139 1    
    32   15  140 1    
    33   16   17 1    
    34   17   18 1    
    35   17  141 1    
    36   17  142 1    
    37   18   19 1    
    38   18   67 1    
    39   18  143 1    
    40   19   20 am   BACKBONE|DICT|INTERRES
    41   19  144 1    
    42   20   21 2    
    43   20   22 1    
    44   22   23 1    
    45   22   24 1    
    46   22  145 1    
    47   23  146 1    
    48   23  147 1    
    49   23  148 1    
    50   24   25 am   BACKBONE|DICT|INTERRES
    51   24  149 1    
    52   25   26 2    
    53   25   27 1    
    54   27   28 1    
    55   27   29 1    
    56   27  150 1    
    57   28  151 1    
    58   28  152 1    
    59   28  153 1    
    60   29   30 am   BACKBONE|DICT|INTERRES
    61   29  154 1    
    62   30   31 2    
    63   30   32 1    
    64   32   33 1    
    65   32   34 1    
    66   32  155 1    
    67   33  156 1    
    68   33  157 1    
    69   33  158 1    
    70   34   35 am   BACKBONE|DICT|INTERRES
    71   34  159 1    
    72   35   36 2    
    73   35   37 1    
    74   37   38 1    
    75   37   39 1    
    76   37  160 1    
    77   38  161 1    
    78   38  162 1    
    79   38  163 1    
    80   39   40 am   BACKBONE|DICT|INTERRES
    81   39  164 1    
    82   40   41 2    
    83   40   42 1    
    84   42   43 1    
    85   42   44 1    
    86   42  165 1    
    87   43  166 1    
    88   43  167 1    
    89   43  168 1    
    90   44   45 am   BACKBONE|DICT|INTERRES
    91   44  169 1    
    92   45   46 2    
    93   45   47 1    
    94   47   48 1    
    95   47   49 1    
    96   47  170 1    
    97   48  171 1    
    98   48  172 1    
    99   48  173 1    
   100   49   50 am   BACKBONE|DICT|INTERRES
   101   49  174 1    
   102   50   51 2    
   103   50   52 1    
   104   52   53 1    
   105   52   54 1    
   106   52  175 1    
   107   53  176 1    
   108   53  177 1    
   109   53  178 1    
   110   54   55 am   BACKBONE|DICT|INTERRES
   111   54  179 1    
   112   55   56 2    
   113   55   57 1    
   114   57   58 1    
   115   57   59 1    
   116   57  180 1    
   117   58  181 1    
   118   58  182 1    
   119   58  183 1    
   120   59   60 am   BACKBONE|DICT|INTERRES
   121   59  184 1    
   122   60   61 2    
   123   60   62 1    
   124   62   63 1    
   125   62   64 1    
   126   62  185 1    
   127   63  186 1    
   128   63  187 1    
   129   63  188 1    
   130   64   65 am   BACKBONE|DICT|INTERRES
   131   64  189 1    
   132   65   66 2    
   133   67   68 2    
   134   67   69 am   BACKBONE|DICT|INTERRES
   135   69   70 1    
   136   69  190 1    
   137   70   71 1    
   138   70   72 1    
   139   70  191 1    
   140   71  192 1    
   141   71  193 1    
   142   71  194 1    
   143   72   73 2    
   144   72   74 am   BACKBONE|DICT|INTERRES
   145   74   75 1    
   146   74  195 1    
   147   75   76 1    
   148   75   77 1    
   149   75  196 1    
   150   76  197 1    
   151   76  198 1    
   152   76  199 1    
   153   77   78 2    
   154   77   79 am   BACKBONE|DICT|INTERRES
   155   79   80 1    
   156   79  200 1    
   157   80   81 1    
   158   80   82 1    
   159   80  201 1    
   160   81  202 1    
   161   81  203 1    
   162   81  204 1    
   163   82   83 2    
   164   82   84 am   BACKBONE|DICT|INTERRES
   165   84   85 1    
   166   84  205 1    
   167   85   86 1    
   168   85   87 1    
   169   85  206 1    
   170   86  207 1    
   171   86  208 1    
   172   86  209 1    
   173   87   88 2    
   174   87   89 am   BACKBONE|DICT|INTERRES
   175   89   90 1    
   176   89  210 1    
   177   90   91 1    
   178   90   92 1    
   179   90  211 1    
   180   91  212 1    
   181   91  213 1    
   182   91  214 1    
   183   92   93 2    
   184   92   94 am   BACKBONE|DICT|INTERRES
   185   94   95 1    
   186   94  215 1    
   187   95   96 1    
   188   95   97 1    
   189   95  216 1    
   190   96  217 1    
   191   96  218 1    
   192   96  219 1    
   193   97   98 2    
   194   97   99 am   BACKBONE|DICT|INTERRES
   195   99  100 1    
   196   99  220 1    
   197  100  101 1    
   198  100  102 1    
   199  100  221 1    
   200  101  222 1    
   201  101  223 1    
   202  101  224 1    
   203  102  103 2    
   204  102  104 am   BACKBONE|DICT|INTERRES
   205  104  105 1    
   206  104  225 1    
   207  105  106 1    
   208  105  107 1    
   209  105  226 1    
   210  106  227 1    
   211  106  228 1    
   212  106  229 1    
   213  107  108 2    
   214  107  109 am   BACKBONE|DICT|INTERRES
   215  109  110 1    
   216  109  230 1    
   217  110  111 1    
   218  110  112 1    
   219  110  231 1    
   220  111  232 1    
   221  111  233 1    
   222  111  234 1    
   223  112  113 2    
   224  112  114 am   BACKBONE|DICT|INTERRES
   225  114  115 1    
   226  114  235 1    
   227  115  116 1    
   228  115  117 1    
   229  115  236 1    
   230  116  237 1    
   231  116  238 1    
   232  116  239 1    
   233  117  118 2    
   234  117  119 am   BACKBONE|DICT|INTERRES
   235  119  120 1    
   236  119  240 1    
   237  120  121 1    
   238  120  124 1    
   239  120  241 1    
   240  121  122 am   BACKBONE|DICT|INTERRES
   241  121  123 2    
   242  122  242 1    
   243  122  243 1    
   244  124  125 1    
   245  124  244 1    
   246  124  245 1    
   247  125  126 1    
   248  126  246 1    
   249  126  247 1    
@<TRIPOS>SUBSTRUCTURE
     1 UNK         1 GROUP             0       ****    0 ROOT    
