@<TRIPOS>MOLECULE
3R540
247   249    1
SMALL
USER_CHARGES


@<TRIPOS>ATOM
      1 CA          4.4911  -13.5189  -52.2276 C.3       0 UNK        -0.1800 
      2 C           4.0393  -13.1769  -50.8147 C.2       0 UNK         0.5000 
      3 O           2.8566  -13.3260  -50.5102 O.2       0 UNK        -0.5000 
      4 N           4.9856  -12.7317  -49.9723 N.am      1 UNK        -0.5000 
      5 CA          4.8450  -12.3396  -48.5607 C.3       1 UNK         0.1400 
      6 C6          5.0358  -13.5204  -47.5571 C.3       23 UNK        -0.0398 
      7 S7          3.7965  -14.8633  -47.6104 S.3       23 UNK        -0.2404 
      8 C8          4.6364  -16.0912  -48.6619 C.3       23 UNK        -0.0205 
      9 C9          3.7089  -17.1985  -49.1515 C.ar      23 UNK        -0.0193 
     10 C10         2.4709  -16.8934  -49.7311 C.ar      23 UNK        -0.1150 
     11 C11         1.6518  -17.8991  -50.2536 C.ar      23 UNK        -0.0193 
     12 C12         2.1027  -19.2228  -50.2147 C.ar      23 UNK        -0.1150 
     13 C13         3.3260  -19.5479  -49.6255 C.ar      23 UNK        -0.0193 
     14 C14         4.1232  -18.5326  -49.0910 C.ar      23 UNK        -0.1150 
     15 C15         3.7908  -20.9969  -49.5991 C.3       23 UNK        -0.0205 
     16 S16         3.2922  -21.8532  -48.0729 S.3       23 UNK        -0.2404 
     17 C17         1.4728  -21.7295  -48.1612 C.3       23 UNK        -0.0398 
     18 CA          0.7688  -22.6567  -47.1476 C.3       11 UNK         0.1400 
     19 N           1.0709  -22.2898  -45.7592 N.am      11 UNK        -0.5000 
     20 C           0.8189  -23.0538  -44.6876 C.2       10 UNK         0.5000 
     21 O           0.2815  -24.1608  -44.7486 O.2       10 UNK        -0.5000 
     22 CA          1.1938  -22.4606  -43.3182 C.3       10 UNK         0.1400 
     23 CB          2.7072  -22.5543  -43.0705 C.3       10 UNK        -0.1800 
     24 N           0.7549  -21.0700  -43.1969 N.am      10 UNK        -0.5000 
     25 C          -0.5218  -20.7003  -43.0235 C.2       9 UNK         0.5000 
     26 O          -1.4397  -21.5007  -42.8479 O.2       9 UNK        -0.5000 
     27 CA         -0.8402  -19.1929  -43.0715 C.3       9 UNK         0.1400 
     28 CB         -0.7137  -18.5673  -41.6751 C.3       9 UNK        -0.1800 
     29 N          -0.0040  -18.4503  -44.0146 N.am      9 UNK        -0.5000 
     30 C          -0.0099  -18.6270  -45.3435 C.2       8 UNK         0.5000 
     31 O          -0.7429  -19.4217  -45.9274 O.2       8 UNK        -0.5000 
     32 CA          1.0116  -17.8147  -46.1563 C.3       8 UNK         0.1400 
     33 CB          0.4690  -16.4089  -46.4410 C.3       8 UNK        -0.1800 
     34 N           2.3158  -17.7257  -45.4979 N.am      8 UNK        -0.5000 
     35 C           3.0907  -18.7842  -45.2209 C.2       7 UNK         0.5000 
     36 O           2.7804  -19.9447  -45.4826 O.2       7 UNK        -0.5000 
     37 CA          4.3939  -18.5075  -44.4526 C.3       7 UNK         0.1400 
     38 CB          5.4178  -17.7723  -45.3299 C.3       7 UNK        -0.1800 
     39 N           4.1525  -17.7397  -43.2324 N.am      7 UNK        -0.5000 
     40 C           3.4391  -18.1788  -42.1851 C.2       6 UNK         0.5000 
     41 O           2.9624  -19.3101  -42.1052 O.2       6 UNK        -0.5000 
     42 CA          3.1826  -17.1687  -41.0508 C.3       6 UNK         0.1400 
     43 CB          4.3009  -17.2427  -40.0006 C.3       6 UNK        -0.1800 
     44 N           3.0472  -15.7857  -41.5175 N.am      6 UNK        -0.5000 
     45 C           2.1036  -15.3531  -42.3644 C.2       5 UNK         0.5000 
     46 O           1.2545  -16.0856  -42.8778 O.2       5 UNK        -0.5000 
     47 CA          2.1667  -13.8627  -42.7385 C.3       5 UNK         0.1400 
     48 CB          3.1527  -13.6539  -43.8990 C.3       5 UNK        -0.1800 
     49 N           0.8514  -13.3367  -43.1093 N.am      5 UNK        -0.5000 
     50 C          -0.1418  -13.1192  -42.2324 C.2       4 UNK         0.5000 
     51 O          -0.0238  -13.3200  -41.0221 O.2       4 UNK        -0.5000 
     52 CA         -1.4781  -12.5525  -42.7577 C.3       4 UNK         0.1400 
     53 CB         -1.7437  -11.1597  -42.1615 C.3       4 UNK        -0.1800 
     54 N          -1.5285  -12.4410  -44.2141 N.am      4 UNK        -0.5000 
     55 C          -1.9628  -13.3933  -45.0488 C.2       3 UNK         0.5000 
     56 O          -2.4188  -14.4757  -44.6802 O.2       3 UNK        -0.5000 
     57 CA         -1.8600  -13.0869  -46.5586 C.3       3 UNK         0.1400 
     58 CB         -3.2150  -12.6130  -47.1053 C.3       3 UNK        -0.1800 
     59 N          -0.8281  -12.1019  -46.9117 N.am      3 UNK        -0.5000 
     60 C           0.4806  -12.2787  -46.6946 C.2       2 UNK         0.5000 
     61 O           0.9401  -13.2572  -46.1056 O.2       2 UNK        -0.5000 
     62 CA          1.4342  -11.1749  -47.1622 C.3       2 UNK         0.1400 
     63 CB          1.5940  -10.0907  -46.0831 C.3       2 UNK        -0.1800 
     64 N           2.7176  -11.8103  -47.4245 N.am      2 UNK        -0.5000 
     65 C           3.6334  -11.4075  -48.3069 C.2       1 UNK         0.5000 
     66 O           3.5595  -10.3403  -48.9215 O.2       1 UNK        -0.5000 
     67 C          -0.7446  -22.7302  -47.4446 C.2       11 UNK         0.5000 
     68 O          -1.1263  -23.3762  -48.4203 O.2       11 UNK        -0.5000 
     69 N          -1.5854  -22.1170  -46.5987 N.am      12 UNK        -0.5000 
     70 CA         -3.0495  -22.1399  -46.6643 C.3       12 UNK         0.1400 
     71 CB         -3.6266  -21.3877  -45.4570 C.3       12 UNK        -0.1800 
     72 C          -3.6464  -23.5587  -46.7222 C.2       12 UNK         0.5000 
     73 O          -4.6398  -23.7698  -47.4169 O.2       12 UNK        -0.5000 
     74 N          -3.0069  -24.5099  -46.0268 N.am      13 UNK        -0.5000 
     75 CA         -3.3763  -25.9253  -46.0170 C.3       13 UNK         0.1400 
     76 CB         -2.6229  -26.6277  -44.8776 C.3       13 UNK        -0.1800 
     77 C          -3.1101  -26.6360  -47.3588 C.2       13 UNK         0.5000 
     78 O          -3.8314  -27.5756  -47.6947 O.2       13 UNK        -0.5000 
     79 N          -2.0904  -26.1798  -48.0993 N.am      14 UNK        -0.5000 
     80 CA         -1.7515  -26.6763  -49.4329 C.3       14 UNK         0.1400 
     81 CB         -0.2496  -26.4744  -49.6899 C.3       14 UNK        -0.1800 
     82 C          -2.5933  -25.9820  -50.5170 C.2       14 UNK         0.5000 
     83 O          -3.0131  -26.6386  -51.4703 O.2       14 UNK        -0.5000 
     84 N          -2.8319  -24.6740  -50.3419 N.am      15 UNK        -0.5000 
     85 CA         -3.6805  -23.8432  -51.1959 C.3       15 UNK         0.1400 
     86 CB         -3.5505  -22.3761  -50.7510 C.3       15 UNK        -0.1800 
     87 C          -5.1512  -24.2985  -51.1715 C.2       15 UNK         0.5000 
     88 O          -5.7607  -24.4681  -52.2291 O.2       15 UNK        -0.5000 
     89 N          -5.6893  -24.4863  -49.9549 N.am      16 UNK        -0.5000 
     90 CA         -7.0134  -25.0311  -49.6203 C.3       16 UNK         0.1400 
     91 CB         -7.0558  -26.5329  -49.9682 C.3       16 UNK        -0.1800 
     92 C          -8.2093  -24.2633  -50.2293 C.2       16 UNK         0.5000 
     93 O          -9.3088  -24.8129  -50.3086 O.2       16 UNK        -0.5000 
     94 N          -7.9613  -23.0251  -50.6845 N.am      17 UNK        -0.5000 
     95 CA         -8.8303  -22.1762  -51.5102 C.3       17 UNK         0.1400 
     96 CB        -10.1033  -21.7682  -50.7410 C.3       17 UNK        -0.1800 
     97 C          -9.1434  -22.7660  -52.9073 C.2       17 UNK         0.5000 
     98 O         -10.0337  -22.2591  -53.5915 O.2       17 UNK        -0.5000 
     99 N          -8.4035  -23.8047  -53.3210 N.am      18 UNK        -0.5000 
    100 CA        -8.5193  -24.4531  -54.6264 C.3       18 UNK         0.1400 
    101 CB        -8.1289  -25.9327  -54.4869 C.3       18 UNK        -0.1800 
    102 C         -7.6350  -23.7550  -55.6723 C.2       18 UNK         0.5000 
    103 O         -8.0231  -23.6635  -56.8376 O.2       18 UNK        -0.5000 
    104 N         -6.4770  -23.2547  -55.2302 N.am      19 UNK        -0.5000 
    105 CA        -5.5388  -22.4518  -56.0018 C.3       19 UNK         0.1400 
    106 CB        -4.5550  -23.3683  -56.7477 C.3       19 UNK        -0.1800 
    107 C         -4.8030  -21.5312  -55.0224 C.2       19 UNK         0.5000 
    108 O         -4.6320  -21.9029  -53.8594 O.2       19 UNK        -0.5000 
    109 N         -4.3921  -20.3490  -55.4990 N.am      20 UNK        -0.5000 
    110 CA        -3.6616  -19.2785  -54.7996 C.3       20 UNK         0.1400 
    111 CB        -2.2861  -19.7701  -54.3107 C.3       20 UNK        -0.1800 
    112 C         -4.4401  -18.5863  -53.6588 C.2       20 UNK         0.5000 
    113 O         -4.4241  -17.3573  -53.5861 O.2       20 UNK        -0.5000 
    114 N         -5.1133  -19.3783  -52.8123 N.am      21 UNK        -0.5000 
    115 CA        -5.9434  -18.9856  -51.6678 C.3       21 UNK         0.1400 
    116 CB        -7.2370  -18.2980  -52.1504 C.3       21 UNK        -0.1800 
    117 C         -5.1695  -18.1652  -50.6133 C.2       21 UNK         0.5000 
    118 O         -5.6583  -17.1380  -50.1388 O.2       21 UNK        -0.5000 
    119 N         -3.9594  -18.6368  -50.2888 N.am      22 UNK        -0.5000 
    120 CA        -3.0371  -18.0432  -49.3075 C.3       22 UNK         0.1400 
    121 C         -3.6251  -17.9857  -47.8695 C.2       22 UNK         0.5000 
    122 N         -3.3170  -16.9438  -47.1095 N.am      22 UNK        -0.7600 
    123 O         -4.3373  -18.8862  -47.4336 O.2       22 UNK        -0.5000 
    124 C124       -1.6669  -18.7707  -49.3053 C.3       23 UNK        -0.0398 
    125 S125       -0.9267  -18.8456  -50.9723 S.3       23 UNK        -0.2404 
    126 C126        0.3247  -17.5142  -50.9084 C.3       23 UNK        -0.0205 
    127 H127        5.5589  -13.3484  -52.3669 H         1 UNK         0.0600 
    128 H128        3.9517  -12.9089  -52.9522 H         1 UNK         0.0600 
    129 H129        4.2839  -14.5676  -52.4416 H         1 UNK         0.0600 
    130 H130        5.9202  -12.6188  -50.3382 H         1 UNK         0.3000 
    131 H131        5.7016  -11.6857  -48.3892 H         1 UNK         0.0600 
    132 H132        5.0597  -13.1344  -46.5367 H         1 UNK         0.0800 
    133 H133        6.0221  -13.9602  -47.7095 H         1 UNK         0.0800 
    134 H134        5.0613  -15.5966  -49.5347 H         1 UNK         0.0800 
    135 H135        5.4771  -16.5080  -48.1065 H         1 UNK         0.0800 
    136 H136        2.1526  -15.8619  -49.7913 H         1 UNK         0.1150 
    137 H137        1.5069  -20.0128  -50.6467 H         1 UNK         0.1150 
    138 H138        5.0791  -18.7826  -48.6531 H         1 UNK         0.1150 
    139 H139        3.3982  -21.5373  -50.4618 H         1 UNK         0.0800 
    140 H140        4.8775  -21.0373  -49.6860 H         1 UNK         0.0800 
    141 H141        1.1707  -21.9771  -49.1807 H         1 UNK         0.0800 
    142 H142        1.1784  -20.6931  -47.9879 H         1 UNK         0.0800 
    143 H143        1.1527  -23.6672  -47.3035 H         1 UNK         0.0600 
    144 H144        1.5611  -21.4075  -45.6280 H         1 UNK         0.3000 
    145 H145        0.6927  -23.0515  -42.5484 H         1 UNK         0.0600 
    146 H146        3.0509  -23.5868  -43.1424 H         1 UNK         0.0600 
    147 H147        3.2752  -21.9681  -43.7931 H         1 UNK         0.0600 
    148 H148        2.9647  -22.1938  -42.0744 H         1 UNK         0.0600 
    149 H149        1.4683  -20.3559  -43.2872 H         1 UNK         0.3000 
    150 H150       -1.8767  -19.0860  -43.3983 H         1 UNK         0.0600 
    151 H151       -0.9803  -17.5102  -41.6893 H         1 UNK         0.0600 
    152 H152        0.3022  -18.6524  -41.2902 H         1 UNK         0.0600 
    153 H153       -1.3766  -19.0621  -40.9643 H         1 UNK         0.0600 
    154 H154        0.5963  -17.7283  -43.6240 H         1 UNK         0.3000 
    155 H155        1.1581  -18.3224  -47.1119 H         1 UNK         0.0600 
    156 H156       -0.5099  -16.4560  -46.9161 H         1 UNK         0.0600 
    157 H157        1.1236  -15.8599  -47.1153 H         1 UNK         0.0600 
    158 H158        0.3605  -15.8269  -45.5251 H         1 UNK         0.0600 
    159 H159        2.6163  -16.8059  -45.2136 H         1 UNK         0.3000 
    160 H160        4.8221  -19.4709  -44.1674 H         1 UNK         0.0600 
    161 H161        5.5986  -18.3179  -46.2565 H         1 UNK         0.0600 
    162 H162        6.3758  -17.6755  -44.8190 H         1 UNK         0.0600 
    163 H163        5.0787  -16.7709  -45.5954 H         1 UNK         0.0600 
    164 H164        4.5039  -16.7945  -43.2089 H         1 UNK         0.3000 
    165 H165        2.2445  -17.4469  -40.5674 H         1 UNK         0.0600 
    166 H166        4.0857  -16.5980  -39.1483 H         1 UNK         0.0600 
    167 H167        4.4100  -18.2585  -39.6181 H         1 UNK         0.0600 
    168 H168        5.2641  -16.9429  -40.4152 H         1 UNK         0.0600 
    169 H169        3.7147  -15.1231  -41.1498 H         1 UNK         0.3000 
    170 H170        2.5261  -13.2978  -41.8757 H         1 UNK         0.0600 
    171 H171        3.1596  -12.6174  -44.2361 H         1 UNK         0.0600 
    172 H172        4.1705  -13.9041  -43.5984 H         1 UNK         0.0600 
    173 H173        2.9041  -14.2844  -44.7527 H         1 UNK         0.0600 
    174 H174        0.6764  -13.2305  -44.1026 H         1 UNK         0.3000 
    175 H175       -2.2698  -13.2226  -42.4163 H         1 UNK         0.0600 
    176 H176       -0.9727  -10.4445  -42.4507 H         1 UNK         0.0600 
    177 H177       -2.7064  -10.7674  -42.4898 H         1 UNK         0.0600 
    178 H178       -1.7659  -11.1957  -41.0715 H         1 UNK         0.0600 
    179 H179       -1.1688  -11.5870  -44.6136 H         1 UNK         0.3000 
    180 H180       -1.6012  -14.0231  -47.0570 H         1 UNK         0.0600 
    181 H181       -3.1833  -12.4892  -48.1879 H         1 UNK         0.0600 
    182 H182       -3.5148  -11.6610  -46.6655 H         1 UNK         0.0600 
    183 H183       -4.0006  -13.3376  -46.8862 H         1 UNK         0.0600 
    184 H184       -1.1435  -11.2662  -47.3832 H         1 UNK         0.3000 
    185 H185        1.0432  -10.7360  -48.0825 H         1 UNK         0.0600 
    186 H186        1.9676  -10.5074  -45.1468 H         1 UNK         0.0600 
    187 H187        2.2886   -9.3141  -46.4037 H         1 UNK         0.0600 
    188 H188        0.6407   -9.6055  -45.8710 H         1 UNK         0.0600 
    189 H189        2.7977  -12.7366  -47.0173 H         1 UNK         0.3000 
    190 H190       -1.1822  -21.5195  -45.8872 H         1 UNK         0.3000 
    191 H191       -3.3417  -21.6058  -47.5688 H         1 UNK         0.0600 
    192 H192       -3.4238  -21.9097  -44.5220 H         1 UNK         0.0600 
    193 H193       -4.7087  -21.2855  -45.5465 H         1 UNK         0.0600 
    194 H194       -3.2143  -20.3820  -45.3780 H         1 UNK         0.0600 
    195 H195       -2.1850  -24.2500  -45.4975 H         1 UNK         0.3000 
    196 H196       -4.4470  -25.9953  -45.8135 H         1 UNK         0.0600 
    197 H197       -2.8882  -27.6845  -44.8257 H         1 UNK         0.0600 
    198 H198       -2.8658  -26.1842  -43.9119 H         1 UNK         0.0600 
    199 H199       -1.5421  -26.5656  -45.0124 H         1 UNK         0.0600 
    200 H200       -1.5869  -25.3612  -47.7834 H         1 UNK         0.3000 
    201 H201       -1.9572  -27.7479  -49.4810 H         1 UNK         0.0600 
    202 H202        0.3508  -26.9874  -48.9385 H         1 UNK         0.0600 
    203 H203        0.0293  -25.4205  -49.6789 H         1 UNK         0.0600 
    204 H204        0.0345  -26.8766  -50.6631 H         1 UNK         0.0600 
    205 H205       -2.3776  -24.2068  -49.5623 H         1 UNK         0.3000 
    206 H206       -3.3200  -23.9263  -52.2233 H         1 UNK         0.0600 
    207 H207       -4.1889  -21.7247  -51.3443 H         1 UNK         0.0600 
    208 H208       -3.8397  -22.2447  -49.7098 H         1 UNK         0.0600 
    209 H209       -2.5261  -22.0194  -50.8619 H         1 UNK         0.0600 
    210 H210       -5.1186  -24.2658  -49.1411 H         1 UNK         0.3000 
    211 H211       -7.1138  -24.9370  -48.5382 H         1 UNK         0.0600 
    212 H212       -7.0155  -26.6976  -51.0456 H         1 UNK         0.0600 
    213 H213       -7.9694  -26.9996  -49.5983 H         1 UNK         0.0600 
    214 H214       -6.2173  -27.0642  -49.5170 H         1 UNK         0.0600 
    215 H215       -7.0184  -22.6870  -50.5596 H         1 UNK         0.3000 
    216 H216       -8.2614  -21.2658  -51.6999 H         1 UNK         0.0600 
    217 H217      -10.6617  -21.0059  -51.2853 H         1 UNK         0.0600 
    218 H218       -9.8573  -21.3515  -49.7643 H         1 UNK         0.0600 
    219 H219      -10.7741  -22.6136  -50.5870 H         1 UNK         0.0600 
    220 H220       -7.6473  -24.1311  -52.7272 H         1 UNK         0.3000 
    221 H221       -9.5552  -24.4053  -54.9689 H         1 UNK         0.0600 
    222 H222       -7.0973  -26.0488  -54.1518 H         1 UNK         0.0600 
    223 H223       -8.7721  -26.4429  -53.7695 H         1 UNK         0.0600 
    224 H224       -8.2259  -26.4534  -55.4404 H         1 UNK         0.0600 
    225 H225       -6.2251  -23.3630  -54.2532 H         1 UNK         0.3000 
    226 H226       -6.0863  -21.8360  -56.7184 H         1 UNK         0.0600 
    227 H227       -5.0762  -24.0201  -57.4489 H         1 UNK         0.0600 
    228 H228       -3.8335  -22.7846  -57.3206 H         1 UNK         0.0600 
    229 H229       -3.9945  -23.9997  -56.0569 H         1 UNK         0.0600 
    230 H230       -4.6130  -20.1371  -56.4622 H         1 UNK         0.3000 
    231 H231       -3.4785  -18.5136  -55.5560 H         1 UNK         0.0600 
    232 H232       -2.3729  -20.5040  -53.5088 H         1 UNK         0.0600 
    233 H233       -1.7177  -20.2251  -55.1217 H         1 UNK         0.0600 
    234 H234       -1.6940  -18.9385  -53.9275 H         1 UNK         0.0600 
    235 H235       -5.0323  -20.3779  -52.9893 H         1 UNK         0.3000 
    236 H236       -6.2327  -19.9118  -51.1699 H         1 UNK         0.0600 
    237 H237       -7.0313  -17.3392  -52.6273 H         1 UNK         0.0600 
    238 H238       -7.7706  -18.9211  -52.8682 H         1 UNK         0.0600 
    239 H239       -7.9150  -18.1111  -51.3169 H         1 UNK         0.0600 
    240 H240       -3.6249  -19.4654  -50.7556 H         1 UNK         0.3000 
    241 H241       -2.8661  -17.0150  -49.6325 H         1 UNK         0.0600 
    242 H242       -3.6809  -16.9022  -46.1707 H         1 UNK         0.3800 
    243 H243       -2.7577  -16.1834  -47.4551 H         1 UNK         0.3800 
    244 H244       -0.9685  -18.2818  -48.6248 H         1 UNK         0.0800 
    245 H245       -1.7781  -19.7927  -48.9377 H         1 UNK         0.0800 
    246 H246       -0.1060  -16.6473  -50.4048 H         1 UNK         0.0800 
    247 H247        0.5363  -17.2003  -51.9312 H         1 UNK         0.0800 
@<TRIPOS>BOND
     1    1    2 1    
     2    1  127 1    
     3    1  128 1    
     4    1  129 1    
     5    2    3 2    
     6    2    4 am   BACKBONE|DICT|INTERRES
     7    4    5 1    
     8    4  130 1    
     9    5    6 1    
    10    5   65 1    
    11    5  131 1    
    12    6    7 1    
    13    6  132 1    
    14    6  133 1    
    15    7    8 1    
    16    8    9 1    
    17    8  134 1    
    18    8  135 1    
    19    9   10 ar   
    20    9   14 ar   
    21   10   11 ar   
    22   10  136 1    
    23   11   12 ar   
    24   11  126 1    
    25   12   13 ar   
    26   12  137 1    
    27   13   14 ar   
    28   13   15 1    
    29   14  138 1    
    30   15   16 1    
    31   15  139 1    
    32   15  140 1    
    33   16   17 1    
    34   17   18 1    
    35   17  141 1    
    36   17  142 1    
    37   18   19 1    
    38   18   67 1    
    39   18  143 1    
    40   19   20 am   BACKBONE|DICT|INTERRES
    41   19  144 1    
    42   20   21 2    
    43   20   22 1    
    44   22   23 1    
    45   22   24 1    
    46   22  145 1    
    47   23  146 1    
    48   23  147 1    
    49   23  148 1    
    50   24   25 am   BACKBONE|DICT|INTERRES
    51   24  149 1    
    52   25   26 2    
    53   25   27 1    
    54   27   28 1    
    55   27   29 1    
    56   27  150 1    
    57   28  151 1    
    58   28  152 1    
    59   28  153 1    
    60   29   30 am   BACKBONE|DICT|INTERRES
    61   29  154 1    
    62   30   31 2    
    63   30   32 1    
    64   32   33 1    
    65   32   34 1    
    66   32  155 1    
    67   33  156 1    
    68   33  157 1    
    69   33  158 1    
    70   34   35 am   BACKBONE|DICT|INTERRES
    71   34  159 1    
    72   35   36 2    
    73   35   37 1    
    74   37   38 1    
    75   37   39 1    
    76   37  160 1    
    77   38  161 1    
    78   38  162 1    
    79   38  163 1    
    80   39   40 am   BACKBONE|DICT|INTERRES
    81   39  164 1    
    82   40   41 2    
    83   40   42 1    
    84   42   43 1    
    85   42   44 1    
    86   42  165 1    
    87   43  166 1    
    88   43  167 1    
    89   43  168 1    
    90   44   45 am   BACKBONE|DICT|INTERRES
    91   44  169 1    
    92   45   46 2    
    93   45   47 1    
    94   47   48 1    
    95   47   49 1    
    96   47  170 1    
    97   48  171 1    
    98   48  172 1    
    99   48  173 1    
   100   49   50 am   BACKBONE|DICT|INTERRES
   101   49  174 1    
   102   50   51 2    
   103   50   52 1    
   104   52   53 1    
   105   52   54 1    
   106   52  175 1    
   107   53  176 1    
   108   53  177 1    
   109   53  178 1    
   110   54   55 am   BACKBONE|DICT|INTERRES
   111   54  179 1    
   112   55   56 2    
   113   55   57 1    
   114   57   58 1    
   115   57   59 1    
   116   57  180 1    
   117   58  181 1    
   118   58  182 1    
   119   58  183 1    
   120   59   60 am   BACKBONE|DICT|INTERRES
   121   59  184 1    
   122   60   61 2    
   123   60   62 1    
   124   62   63 1    
   125   62   64 1    
   126   62  185 1    
   127   63  186 1    
   128   63  187 1    
   129   63  188 1    
   130   64   65 am   BACKBONE|DICT|INTERRES
   131   64  189 1    
   132   65   66 2    
   133   67   68 2    
   134   67   69 am   BACKBONE|DICT|INTERRES
   135   69   70 1    
   136   69  190 1    
   137   70   71 1    
   138   70   72 1    
   139   70  191 1    
   140   71  192 1    
   141   71  193 1    
   142   71  194 1    
   143   72   73 2    
   144   72   74 am   BACKBONE|DICT|INTERRES
   145   74   75 1    
   146   74  195 1    
   147   75   76 1    
   148   75   77 1    
   149   75  196 1    
   150   76  197 1    
   151   76  198 1    
   152   76  199 1    
   153   77   78 2    
   154   77   79 am   BACKBONE|DICT|INTERRES
   155   79   80 1    
   156   79  200 1    
   157   80   81 1    
   158   80   82 1    
   159   80  201 1    
   160   81  202 1    
   161   81  203 1    
   162   81  204 1    
   163   82   83 2    
   164   82   84 am   BACKBONE|DICT|INTERRES
   165   84   85 1    
   166   84  205 1    
   167   85   86 1    
   168   85   87 1    
   169   85  206 1    
   170   86  207 1    
   171   86  208 1    
   172   86  209 1    
   173   87   88 2    
   174   87   89 am   BACKBONE|DICT|INTERRES
   175   89   90 1    
   176   89  210 1    
   177   90   91 1    
   178   90   92 1    
   179   90  211 1    
   180   91  212 1    
   181   91  213 1    
   182   91  214 1    
   183   92   93 2    
   184   92   94 am   BACKBONE|DICT|INTERRES
   185   94   95 1    
   186   94  215 1    
   187   95   96 1    
   188   95   97 1    
   189   95  216 1    
   190   96  217 1    
   191   96  218 1    
   192   96  219 1    
   193   97   98 2    
   194   97   99 am   BACKBONE|DICT|INTERRES
   195   99  100 1    
   196   99  220 1    
   197  100  101 1    
   198  100  102 1    
   199  100  221 1    
   200  101  222 1    
   201  101  223 1    
   202  101  224 1    
   203  102  103 2    
   204  102  104 am   BACKBONE|DICT|INTERRES
   205  104  105 1    
   206  104  225 1    
   207  105  106 1    
   208  105  107 1    
   209  105  226 1    
   210  106  227 1    
   211  106  228 1    
   212  106  229 1    
   213  107  108 2    
   214  107  109 am   BACKBONE|DICT|INTERRES
   215  109  110 1    
   216  109  230 1    
   217  110  111 1    
   218  110  112 1    
   219  110  231 1    
   220  111  232 1    
   221  111  233 1    
   222  111  234 1    
   223  112  113 2    
   224  112  114 am   BACKBONE|DICT|INTERRES
   225  114  115 1    
   226  114  235 1    
   227  115  116 1    
   228  115  117 1    
   229  115  236 1    
   230  116  237 1    
   231  116  238 1    
   232  116  239 1    
   233  117  118 2    
   234  117  119 am   BACKBONE|DICT|INTERRES
   235  119  120 1    
   236  119  240 1    
   237  120  121 1    
   238  120  124 1    
   239  120  241 1    
   240  121  122 am   BACKBONE|DICT|INTERRES
   241  121  123 2    
   242  122  242 1    
   243  122  243 1    
   244  124  125 1    
   245  124  244 1    
   246  124  245 1    
   247  125  126 1    
   248  126  246 1    
   249  126  247 1    
@<TRIPOS>SUBSTRUCTURE
     1 UNK         1 GROUP             0       ****    0 ROOT    
