@<TRIPOS>MOLECULE
3R540
247   249    1
SMALL
USER_CHARGES


@<TRIPOS>ATOM
      1 CA          3.3820  -14.2983  -43.7470 C.3       0 UNK        -0.1800 
      2 C           2.7472  -13.7647  -45.0214 C.2       0 UNK         0.5000 
      3 O           1.7495  -13.0479  -44.9538 O.2       0 UNK        -0.5000 
      4 N           3.3389  -14.0841  -46.1817 N.am      1 UNK        -0.5000 
      5 CA          2.8740  -13.7068  -47.5272 C.3       1 UNK         0.1400 
      6 C6          3.7369  -14.3579  -48.6353 C.3       23 UNK        -0.0398 
      7 S7          3.3866  -16.1364  -48.8292 S.3       23 UNK        -0.2404 
      8 C8          2.0186  -16.0727  -50.0302 C.3       23 UNK        -0.0205 
      9 C9          2.0873  -17.2211  -51.0220 C.ar      23 UNK        -0.0193 
     10 C10         2.8083  -17.0698  -52.2085 C.ar      23 UNK        -0.1150 
     11 C11         2.8589  -18.1031  -53.1469 C.ar      23 UNK        -0.0193 
     12 C12         2.1668  -19.2917  -52.8982 C.ar      23 UNK        -0.1150 
     13 C13         1.4472  -19.4585  -51.7104 C.ar      23 UNK        -0.0193 
     14 C14         1.4222  -18.4238  -50.7709 C.ar      23 UNK        -0.1150 
     15 C15         0.6950  -20.7550  -51.4526 C.3       23 UNK        -0.0205 
     16 S16         1.7527  -21.9850  -50.6322 S.3       23 UNK        -0.2404 
     17 C17         1.5514  -21.5522  -48.8703 C.3       23 UNK        -0.0398 
     18 CA          1.0780  -22.7677  -48.0359 C.3       11 UNK         0.1400 
     19 N           1.4937  -22.6709  -46.6346 N.am      11 UNK        -0.5000 
     20 C           1.5103  -23.7091  -45.7868 C.2       10 UNK         0.5000 
     21 O           1.1829  -24.8546  -46.0989 O.2       10 UNK        -0.5000 
     22 CA          1.9172  -23.4006  -44.3353 C.3       10 UNK         0.1400 
     23 CB          3.4442  -23.2985  -44.2060 C.3       10 UNK        -0.1800 
     24 N           1.3025  -22.1767  -43.8174 N.am      10 UNK        -0.5000 
     25 C          -0.0133  -21.9823  -43.6725 C.2       9 UNK         0.5000 
     26 O          -0.8591  -22.8090  -44.0062 O.2       9 UNK        -0.5000 
     27 CA         -0.4815  -20.6444  -43.0814 C.3       9 UNK         0.1400 
     28 CB         -0.4463  -20.6696  -41.5426 C.3       9 UNK        -0.1800 
     29 N           0.2004  -19.4630  -43.6137 N.am      9 UNK        -0.5000 
     30 C           1.4612  -19.0429  -43.4399 C.2       8 UNK         0.5000 
     31 O           2.3442  -19.7012  -42.8891 O.2       8 UNK        -0.5000 
     32 CA          1.7671  -17.6203  -43.9486 C.3       8 UNK         0.1400 
     33 CB          2.1739  -17.6543  -45.4303 C.3       8 UNK        -0.1800 
     34 N           0.6246  -16.7166  -43.7694 N.am      8 UNK        -0.5000 
     35 C           0.1106  -16.3642  -42.5789 C.2       7 UNK         0.5000 
     36 O           0.6356  -16.6371  -41.4990 O.2       7 UNK        -0.5000 
     37 CA         -1.2400  -15.6267  -42.5924 C.3       7 UNK         0.1400 
     38 CB         -1.0418  -14.1101  -42.7252 C.3       7 UNK        -0.1800 
     39 N          -2.1045  -16.1121  -43.6697 N.am      7 UNK        -0.5000 
     40 C          -2.8355  -17.2357  -43.6047 C.2       6 UNK         0.5000 
     41 O          -2.9156  -17.9401  -42.5989 O.2       6 UNK        -0.5000 
     42 CA         -3.5896  -17.6630  -44.8810 C.3       6 UNK         0.1400 
     43 CB         -5.0292  -17.1288  -44.8659 C.3       6 UNK        -0.1800 
     44 N          -2.9305  -17.2195  -46.1096 N.am      6 UNK        -0.5000 
     45 C          -1.7679  -17.7062  -46.5651 C.2       5 UNK         0.5000 
     46 O          -1.1699  -18.6440  -46.0392 O.2       5 UNK        -0.5000 
     47 CA         -1.1419  -16.9821  -47.7729 C.3       5 UNK         0.1400 
     48 CB         -1.5855  -17.6430  -49.0816 C.3       5 UNK        -0.1800 
     49 N          -1.4623  -15.5499  -47.8201 N.am      5 UNK        -0.5000 
     50 C          -1.0797  -14.6677  -46.8881 C.2       4 UNK         0.5000 
     51 O          -0.3650  -14.9698  -45.9325 O.2       4 UNK        -0.5000 
     52 CA         -1.6843  -13.2606  -46.9821 C.3       4 UNK         0.1400 
     53 CB         -3.1371  -13.3070  -46.4582 C.3       4 UNK        -0.1800 
     54 N          -0.8879  -12.3096  -46.2034 N.am      4 UNK        -0.5000 
     55 C          -1.0808  -10.9818  -46.1818 C.2       3 UNK         0.5000 
     56 O          -1.9211  -10.4020  -46.8710 O.2       3 UNK        -0.5000 
     57 CA         -0.1790  -10.1497  -45.2560 C.3       3 UNK         0.1400 
     58 CB         -0.3600  -10.5368  -43.7790 C.3       3 UNK        -0.1800 
     59 N           1.2165  -10.3148  -45.6424 N.am      3 UNK        -0.5000 
     60 C           1.9001   -9.4732  -46.4305 C.2       2 UNK         0.5000 
     61 O           1.4636   -8.3887  -46.8187 O.2       2 UNK        -0.5000 
     62 CA          3.3067   -9.9223  -46.8816 C.3       2 UNK         0.1400 
     63 CB          4.3819   -9.3482  -45.9464 C.3       2 UNK        -0.1800 
     64 N           3.4528  -11.3780  -46.9382 N.am      2 UNK        -0.5000 
     65 C           2.7681  -12.1835  -47.7629 C.2       1 UNK         0.5000 
     66 O           2.0445  -11.7689  -48.6690 O.2       1 UNK        -0.5000 
     67 C          -0.4404  -23.0156  -48.1605 C.2       11 UNK         0.5000 
     68 O          -0.8553  -23.8303  -48.9841 O.2       11 UNK        -0.5000 
     69 N          -1.2362  -22.3626  -47.2996 N.am      12 UNK        -0.5000 
     70 CA         -2.6830  -22.5643  -47.2129 C.3       12 UNK         0.1400 
     71 CB         -3.3100  -21.4875  -46.3156 C.3       12 UNK        -0.1800 
     72 C          -3.0488  -23.9767  -46.7248 C.2       12 UNK         0.5000 
     73 O          -3.9597  -24.5880  -47.2786 O.2       12 UNK        -0.5000 
     74 N          -2.3136  -24.4932  -45.7310 N.am      13 UNK        -0.5000 
     75 CA         -2.4474  -25.8588  -45.2232 C.3       13 UNK         0.1400 
     76 CB         -1.5703  -26.0398  -43.9753 C.3       13 UNK        -0.1800 
     77 C          -2.1139  -26.9159  -46.2906 C.2       13 UNK         0.5000 
     78 O          -2.8733  -27.8719  -46.4503 O.2       13 UNK        -0.5000 
     79 N          -1.0210  -26.6978  -47.0372 N.am      14 UNK        -0.5000 
     80 CA         -0.5992  -27.5391  -48.1607 C.3       14 UNK         0.1400 
     81 CB          0.7873  -27.0880  -48.6441 C.3       14 UNK        -0.1800 
     82 C          -1.6082  -27.5456  -49.3268 C.2       14 UNK         0.5000 
     83 O          -1.8131  -28.5888  -49.9480 O.2       14 UNK        -0.5000 
     84 N          -2.2404  -26.3927  -49.5810 N.am      15 UNK        -0.5000 
     85 CA         -3.2846  -26.2076  -50.5905 C.3       15 UNK         0.1400 
     86 CB         -3.3621  -24.7169  -50.9446 C.3       15 UNK        -0.1800 
     87 C          -4.6740  -26.7289  -50.1650 C.2       15 UNK         0.5000 
     88 O          -5.5791  -26.7470  -51.0001 O.2       15 UNK        -0.5000 
     89 N          -4.8206  -27.1379  -48.8959 N.am      16 UNK        -0.5000 
     90 CA         -6.0522  -27.5849  -48.2392 C.3       16 UNK         0.1400 
     91 CB         -6.6166  -28.8614  -48.8990 C.3       16 UNK        -0.1800 
     92 C          -7.0862  -26.4471  -48.1014 C.2       16 UNK         0.5000 
     93 O          -8.2464  -26.6038  -48.4876 O.2       16 UNK        -0.5000 
     94 N          -6.6264  -25.3316  -47.5199 N.am      17 UNK        -0.5000 
     95 CA         -7.3446  -24.0922  -47.2174 C.3       17 UNK         0.1400 
     96 CB         -8.6021  -24.3558  -46.3575 C.3       17 UNK        -0.1800 
     97 C          -7.6112  -23.2298  -48.4684 C.2       17 UNK         0.5000 
     98 O          -6.9645  -23.4176  -49.5005 O.2       17 UNK        -0.5000 
     99 N          -8.5158  -22.2488  -48.3200 N.am      18 UNK        -0.5000 
    100 CA        -8.9079  -21.2277  -49.3040 C.3       18 UNK         0.1400 
    101 CB        -9.5432  -21.8745  -50.5530 C.3       18 UNK        -0.1800 
    102 C         -7.7809  -20.2302  -49.6582 C.2       18 UNK         0.5000 
    103 O         -7.8384  -19.5952  -50.7133 O.2       18 UNK        -0.5000 
    104 N         -6.7877  -20.1002  -48.7636 N.am      19 UNK        -0.5000 
    105 CA        -5.5616  -19.2955  -48.8502 C.3       19 UNK         0.1400 
    106 CB        -5.8721  -17.7883  -48.9497 C.3       19 UNK        -0.1800 
    107 C         -4.6045  -19.7684  -49.9621 C.2       19 UNK         0.5000 
    108 O         -3.5000  -20.2111  -49.6536 O.2       19 UNK        -0.5000 
    109 N         -5.0615  -19.6912  -51.2189 N.am      20 UNK        -0.5000 
    110 CA        -4.4109  -20.1754  -52.4394 C.3       20 UNK         0.1400 
    111 CB        -4.3458  -21.7144  -52.4274 C.3       20 UNK        -0.1800 
    112 C         -3.0404  -19.5233  -52.7200 C.2       20 UNK         0.5000 
    113 O         -2.0925  -20.2154  -53.0952 O.2       20 UNK        -0.5000 
    114 N         -2.9644  -18.1949  -52.5537 N.am      21 UNK        -0.5000 
    115 CA        -1.8008  -17.3815  -52.9182 C.3       21 UNK         0.1400 
    116 CB        -2.0350  -15.9335  -52.4574 C.3       21 UNK        -0.1800 
    117 C         -1.5357  -17.4194  -54.4368 C.2       21 UNK         0.5000 
    118 O         -2.4908  -17.4225  -55.2191 O.2       21 UNK        -0.5000 
    119 N         -0.2559  -17.4421  -54.8256 N.am      22 UNK        -0.5000 
    120 CA         0.1756  -17.4409  -56.2313 C.3       22 UNK         0.1400 
    121 C         -0.1007  -16.1005  -56.9768 C.2       22 UNK         0.5000 
    122 N         -0.1643  -16.1264  -58.3017 N.am      22 UNK        -0.7600 
    123 O         -0.2357  -15.0363  -56.3756 O.2       22 UNK        -0.5000 
    124 C124        1.6447  -17.9148  -56.3828 C.3       23 UNK        -0.0398 
    125 S125        2.8889  -16.8213  -55.6086 S.3       23 UNK        -0.2404 
    126 C126        3.6870  -17.9344  -54.4108 C.3       23 UNK        -0.0205 
    127 H127        3.9390  -13.5060  -43.2474 H         1 UNK         0.0600 
    128 H128        4.0635  -15.1241  -43.9516 H         1 UNK         0.0600 
    129 H129        2.6117  -14.6536  -43.0634 H         1 UNK         0.0600 
    130 H130        4.1598  -14.6722  -46.1630 H         1 UNK         0.3000 
    131 H131        1.8543  -14.0855  -47.6219 H         1 UNK         0.0600 
    132 H132        3.5932  -13.8725  -49.6025 H         1 UNK         0.0800 
    133 H133        4.7977  -14.2358  -48.4106 H         1 UNK         0.0800 
    134 H134        2.0286  -15.1321  -50.5821 H         1 UNK         0.0800 
    135 H135        1.0716  -16.0861  -49.4931 H         1 UNK         0.0800 
    136 H136        3.3364  -16.1464  -52.4019 H         1 UNK         0.1150 
    137 H137        2.1986  -20.0948  -53.6211 H         1 UNK         0.1150 
    138 H138        0.8849  -18.5538  -49.8447 H         1 UNK         0.1150 
    139 H139       -0.2087  -20.5725  -50.8681 H         1 UNK         0.0800 
    140 H140        0.3553  -21.1720  -52.4017 H         1 UNK         0.0800 
    141 H141        0.8827  -20.6993  -48.7452 H         1 UNK         0.0800 
    142 H142        2.5294  -21.2163  -48.5227 H         1 UNK         0.0800 
    143 H143        1.5745  -23.6552  -48.4360 H         1 UNK         0.0600 
    144 H144        1.7637  -21.7611  -46.2916 H         1 UNK         0.3000 
    145 H145        1.5771  -24.2318  -43.7142 H         1 UNK         0.0600 
    146 H146        3.7428  -23.1729  -43.1651 H         1 UNK         0.0600 
    147 H147        3.9293  -24.2028  -44.5760 H         1 UNK         0.0600 
    148 H148        3.8423  -22.4555  -44.7720 H         1 UNK         0.0600 
    149 H149        1.9214  -21.4329  -43.5053 H         1 UNK         0.3000 
    150 H150       -1.5253  -20.5256  -43.3765 H         1 UNK         0.0600 
    151 H151       -1.0477  -21.4922  -41.1539 H         1 UNK         0.0600 
    152 H152       -0.8507  -19.7461  -41.1272 H         1 UNK         0.0600 
    153 H153        0.5660  -20.7959  -41.1580 H         1 UNK         0.0600 
    154 H154       -0.3839  -18.8841  -44.2077 H         1 UNK         0.3000 
    155 H155        2.6029  -17.2262  -43.3677 H         1 UNK         0.0600 
    156 H156        1.4301  -18.1581  -46.0462 H         1 UNK         0.0600 
    157 H157        3.1164  -18.1870  -45.5609 H         1 UNK         0.0600 
    158 H158        2.3082  -16.6515  -45.8319 H         1 UNK         0.0600 
    159 H159        0.1820  -16.3589  -44.6092 H         1 UNK         0.3000 
    160 H160       -1.7326  -15.8139  -41.6357 H         1 UNK         0.0600 
    161 H161       -0.5074  -13.8515  -43.6371 H         1 UNK         0.0600 
    162 H162       -0.4606  -13.7199  -41.8889 H         1 UNK         0.0600 
    163 H163       -1.9959  -13.5832  -42.7340 H         1 UNK         0.0600 
    164 H164       -2.0421  -15.6175  -44.5473 H         1 UNK         0.3000 
    165 H165       -3.6313  -18.7542  -44.8880 H         1 UNK         0.0600 
    166 H166       -5.5943  -17.4949  -45.7231 H         1 UNK         0.0600 
    167 H167       -5.5570  -17.4540  -43.9683 H         1 UNK         0.0600 
    168 H168       -5.0553  -16.0385  -44.8855 H         1 UNK         0.0600 
    169 H169       -3.3597  -16.4527  -46.6040 H         1 UNK         0.3000 
    170 H170       -0.0590  -17.0862  -47.6836 H         1 UNK         0.0600 
    171 H171       -1.3725  -18.7127  -49.0724 H         1 UNK         0.0600 
    172 H172       -2.6534  -17.5217  -49.2553 H         1 UNK         0.0600 
    173 H173       -1.0612  -17.2158  -49.9335 H         1 UNK         0.0600 
    174 H174       -2.0584  -15.2426  -48.5750 H         1 UNK         0.3000 
    175 H175       -1.6750  -12.9503  -48.0288 H         1 UNK         0.0600 
    176 H176       -3.1714  -13.5516  -45.3957 H         1 UNK         0.0600 
    177 H177       -3.6489  -12.3550  -46.5945 H         1 UNK         0.0600 
    178 H178       -3.7297  -14.0543  -46.9869 H         1 UNK         0.0600 
    179 H179       -0.1385  -12.7260  -45.6545 H         1 UNK         0.3000 
    180 H180       -0.4771   -9.1038  -45.3561 H         1 UNK         0.0600 
    181 H181        0.0158  -11.5369  -43.5687 H         1 UNK         0.0600 
    182 H182       -1.4119  -10.5112  -43.4919 H         1 UNK         0.0600 
    183 H183        0.1722   -9.8433  -43.1280 H         1 UNK         0.0600 
    184 H184        1.6308  -11.2122  -45.4056 H         1 UNK         0.3000 
    185 H185        3.4753   -9.5258  -47.8849 H         1 UNK         0.0600 
    186 H186        4.3185   -8.2602  -45.9005 H         1 UNK         0.0600 
    187 H187        4.2736   -9.7266  -44.9291 H         1 UNK         0.0600 
    188 H188        5.3838   -9.5998  -46.2947 H         1 UNK         0.0600 
    189 H189        4.0237  -11.8047  -46.2234 H         1 UNK         0.3000 
    190 H190       -0.8247  -21.7316  -46.6288 H         1 UNK         0.3000 
    191 H191       -3.0974  -22.4495  -48.2165 H         1 UNK         0.0600 
    192 H192       -2.9162  -21.5231  -45.3000 H         1 UNK         0.0600 
    193 H193       -4.3918  -21.6117  -46.2548 H         1 UNK         0.0600 
    194 H194       -3.1199  -20.4922  -46.7154 H         1 UNK         0.0600 
    195 H195       -1.6264  -23.9026  -45.2680 H         1 UNK         0.3000 
    196 H196       -3.4888  -26.0026  -44.9278 H         1 UNK         0.0600 
    197 H197       -1.6647  -27.0494  -43.5739 H         1 UNK         0.0600 
    198 H198       -1.8627  -25.3472  -43.1859 H         1 UNK         0.0600 
    199 H199       -0.5159  -25.8696  -44.1939 H         1 UNK         0.0600 
    200 H200       -0.4281  -25.9042  -46.8159 H         1 UNK         0.3000 
    201 H201       -0.5136  -28.5637  -47.7933 H         1 UNK         0.0600 
    202 H202        1.5238  -27.1503  -47.8427 H         1 UNK         0.0600 
    203 H203        0.7731  -26.0595  -49.0053 H         1 UNK         0.0600 
    204 H204        1.1407  -27.7184  -49.4610 H         1 UNK         0.0600 
    205 H205       -1.9610  -25.5625  -49.0684 H         1 UNK         0.3000 
    206 H206       -2.9960  -26.7534  -51.4910 H         1 UNK         0.0600 
    207 H207       -2.4020  -24.3421  -51.2997 H         1 UNK         0.0600 
    208 H208       -4.0918  -24.5436  -51.7361 H         1 UNK         0.0600 
    209 H209       -3.6615  -24.1157  -50.0851 H         1 UNK         0.0600 
    210 H210       -4.0120  -27.0680  -48.2914 H         1 UNK         0.3000 
    211 H211       -5.7637  -27.8535  -47.2219 H         1 UNK         0.0600 
    212 H212       -6.9904  -28.6737  -49.9056 H         1 UNK         0.0600 
    213 H213       -7.4459  -29.2633  -48.3160 H         1 UNK         0.0600 
    214 H214       -5.8570  -29.6406  -48.9623 H         1 UNK         0.0600 
    215 H215       -5.6216  -25.2673  -47.3628 H         1 UNK         0.3000 
    216 H216       -6.6532  -23.5119  -46.6048 H         1 UNK         0.0600 
    217 H217       -8.9762  -23.4368  -45.9057 H         1 UNK         0.0600 
    218 H218       -8.3822  -25.0416  -45.5392 H         1 UNK         0.0600 
    219 H219       -9.4139  -24.7866  -46.9445 H         1 UNK         0.0600 
    220 H220       -8.9858  -22.1801  -47.4278 H         1 UNK         0.3000 
    221 H221       -9.6833  -20.6320  -48.8205 H         1 UNK         0.0600 
    222 H222       -8.8080  -22.4165  -51.1484 H         1 UNK         0.0600 
    223 H223      -10.3333  -22.5729  -50.2774 H         1 UNK         0.0600 
    224 H224       -9.9915  -21.1196  -51.1999 H         1 UNK         0.0600 
    225 H225       -6.8525  -20.6831  -47.9424 H         1 UNK         0.3000 
    226 H226       -5.0412  -19.4490  -47.9038 H         1 UNK         0.0600 
    227 H227       -6.5115  -17.4657  -48.1281 H         1 UNK         0.0600 
    228 H228       -4.9588  -17.1964  -48.8981 H         1 UNK         0.0600 
    229 H229       -6.3745  -17.5285  -49.8815 H         1 UNK         0.0600 
    230 H230       -6.0214  -19.3747  -51.3267 H         1 UNK         0.3000 
    231 H231       -5.0599  -19.8825  -53.2657 H         1 UNK         0.0600 
    232 H232       -5.3223  -22.1533  -52.2209 H         1 UNK         0.0600 
    233 H233       -3.6500  -22.0688  -51.6675 H         1 UNK         0.0600 
    234 H234       -4.0085  -22.1032  -53.3888 H         1 UNK         0.0600 
    235 H235       -3.7946  -17.6985  -52.2677 H         1 UNK         0.3000 
    236 H236       -0.9320  -17.7834  -52.3944 H         1 UNK         0.0600 
    237 H237       -1.1451  -15.3255  -52.6252 H         1 UNK         0.0600 
    238 H238       -2.8568  -15.4680  -53.0031 H         1 UNK         0.0600 
    239 H239       -2.2718  -15.8783  -51.3959 H         1 UNK         0.0600 
    240 H240        0.4821  -17.4022  -54.1373 H         1 UNK         0.3000 
    241 H241       -0.4397  -18.1905  -56.7335 H         1 UNK         0.0600 
    242 H242       -0.3333  -15.2655  -58.7990 H         1 UNK         0.3800 
    243 H243       -0.0576  -16.9829  -58.8234 H         1 UNK         0.3800 
    244 H244        1.7392  -18.9210  -55.9730 H         1 UNK         0.0800 
    245 H245        1.8995  -18.0132  -57.4391 H         1 UNK         0.0800 
    246 H246        3.8943  -18.8987  -54.8776 H         1 UNK         0.0800 
    247 H247        4.6585  -17.5166  -54.1427 H         1 UNK         0.0800 
@<TRIPOS>BOND
     1    1    2 1    
     2    1  127 1    
     3    1  128 1    
     4    1  129 1    
     5    2    3 2    
     6    2    4 am   BACKBONE|DICT|INTERRES
     7    4    5 1    
     8    4  130 1    
     9    5    6 1    
    10    5   65 1    
    11    5  131 1    
    12    6    7 1    
    13    6  132 1    
    14    6  133 1    
    15    7    8 1    
    16    8    9 1    
    17    8  134 1    
    18    8  135 1    
    19    9   10 ar   
    20    9   14 ar   
    21   10   11 ar   
    22   10  136 1    
    23   11   12 ar   
    24   11  126 1    
    25   12   13 ar   
    26   12  137 1    
    27   13   14 ar   
    28   13   15 1    
    29   14  138 1    
    30   15   16 1    
    31   15  139 1    
    32   15  140 1    
    33   16   17 1    
    34   17   18 1    
    35   17  141 1    
    36   17  142 1    
    37   18   19 1    
    38   18   67 1    
    39   18  143 1    
    40   19   20 am   BACKBONE|DICT|INTERRES
    41   19  144 1    
    42   20   21 2    
    43   20   22 1    
    44   22   23 1    
    45   22   24 1    
    46   22  145 1    
    47   23  146 1    
    48   23  147 1    
    49   23  148 1    
    50   24   25 am   BACKBONE|DICT|INTERRES
    51   24  149 1    
    52   25   26 2    
    53   25   27 1    
    54   27   28 1    
    55   27   29 1    
    56   27  150 1    
    57   28  151 1    
    58   28  152 1    
    59   28  153 1    
    60   29   30 am   BACKBONE|DICT|INTERRES
    61   29  154 1    
    62   30   31 2    
    63   30   32 1    
    64   32   33 1    
    65   32   34 1    
    66   32  155 1    
    67   33  156 1    
    68   33  157 1    
    69   33  158 1    
    70   34   35 am   BACKBONE|DICT|INTERRES
    71   34  159 1    
    72   35   36 2    
    73   35   37 1    
    74   37   38 1    
    75   37   39 1    
    76   37  160 1    
    77   38  161 1    
    78   38  162 1    
    79   38  163 1    
    80   39   40 am   BACKBONE|DICT|INTERRES
    81   39  164 1    
    82   40   41 2    
    83   40   42 1    
    84   42   43 1    
    85   42   44 1    
    86   42  165 1    
    87   43  166 1    
    88   43  167 1    
    89   43  168 1    
    90   44   45 am   BACKBONE|DICT|INTERRES
    91   44  169 1    
    92   45   46 2    
    93   45   47 1    
    94   47   48 1    
    95   47   49 1    
    96   47  170 1    
    97   48  171 1    
    98   48  172 1    
    99   48  173 1    
   100   49   50 am   BACKBONE|DICT|INTERRES
   101   49  174 1    
   102   50   51 2    
   103   50   52 1    
   104   52   53 1    
   105   52   54 1    
   106   52  175 1    
   107   53  176 1    
   108   53  177 1    
   109   53  178 1    
   110   54   55 am   BACKBONE|DICT|INTERRES
   111   54  179 1    
   112   55   56 2    
   113   55   57 1    
   114   57   58 1    
   115   57   59 1    
   116   57  180 1    
   117   58  181 1    
   118   58  182 1    
   119   58  183 1    
   120   59   60 am   BACKBONE|DICT|INTERRES
   121   59  184 1    
   122   60   61 2    
   123   60   62 1    
   124   62   63 1    
   125   62   64 1    
   126   62  185 1    
   127   63  186 1    
   128   63  187 1    
   129   63  188 1    
   130   64   65 am   BACKBONE|DICT|INTERRES
   131   64  189 1    
   132   65   66 2    
   133   67   68 2    
   134   67   69 am   BACKBONE|DICT|INTERRES
   135   69   70 1    
   136   69  190 1    
   137   70   71 1    
   138   70   72 1    
   139   70  191 1    
   140   71  192 1    
   141   71  193 1    
   142   71  194 1    
   143   72   73 2    
   144   72   74 am   BACKBONE|DICT|INTERRES
   145   74   75 1    
   146   74  195 1    
   147   75   76 1    
   148   75   77 1    
   149   75  196 1    
   150   76  197 1    
   151   76  198 1    
   152   76  199 1    
   153   77   78 2    
   154   77   79 am   BACKBONE|DICT|INTERRES
   155   79   80 1    
   156   79  200 1    
   157   80   81 1    
   158   80   82 1    
   159   80  201 1    
   160   81  202 1    
   161   81  203 1    
   162   81  204 1    
   163   82   83 2    
   164   82   84 am   BACKBONE|DICT|INTERRES
   165   84   85 1    
   166   84  205 1    
   167   85   86 1    
   168   85   87 1    
   169   85  206 1    
   170   86  207 1    
   171   86  208 1    
   172   86  209 1    
   173   87   88 2    
   174   87   89 am   BACKBONE|DICT|INTERRES
   175   89   90 1    
   176   89  210 1    
   177   90   91 1    
   178   90   92 1    
   179   90  211 1    
   180   91  212 1    
   181   91  213 1    
   182   91  214 1    
   183   92   93 2    
   184   92   94 am   BACKBONE|DICT|INTERRES
   185   94   95 1    
   186   94  215 1    
   187   95   96 1    
   188   95   97 1    
   189   95  216 1    
   190   96  217 1    
   191   96  218 1    
   192   96  219 1    
   193   97   98 2    
   194   97   99 am   BACKBONE|DICT|INTERRES
   195   99  100 1    
   196   99  220 1    
   197  100  101 1    
   198  100  102 1    
   199  100  221 1    
   200  101  222 1    
   201  101  223 1    
   202  101  224 1    
   203  102  103 2    
   204  102  104 am   BACKBONE|DICT|INTERRES
   205  104  105 1    
   206  104  225 1    
   207  105  106 1    
   208  105  107 1    
   209  105  226 1    
   210  106  227 1    
   211  106  228 1    
   212  106  229 1    
   213  107  108 2    
   214  107  109 am   BACKBONE|DICT|INTERRES
   215  109  110 1    
   216  109  230 1    
   217  110  111 1    
   218  110  112 1    
   219  110  231 1    
   220  111  232 1    
   221  111  233 1    
   222  111  234 1    
   223  112  113 2    
   224  112  114 am   BACKBONE|DICT|INTERRES
   225  114  115 1    
   226  114  235 1    
   227  115  116 1    
   228  115  117 1    
   229  115  236 1    
   230  116  237 1    
   231  116  238 1    
   232  116  239 1    
   233  117  118 2    
   234  117  119 am   BACKBONE|DICT|INTERRES
   235  119  120 1    
   236  119  240 1    
   237  120  121 1    
   238  120  124 1    
   239  120  241 1    
   240  121  122 am   BACKBONE|DICT|INTERRES
   241  121  123 2    
   242  122  242 1    
   243  122  243 1    
   244  124  125 1    
   245  124  244 1    
   246  124  245 1    
   247  125  126 1    
   248  126  246 1    
   249  126  247 1    
@<TRIPOS>SUBSTRUCTURE
     1 UNK         1 GROUP             0       ****    0 ROOT    
