@<TRIPOS>MOLECULE
3R540
247   249    1
SMALL
USER_CHARGES


@<TRIPOS>ATOM
      1 CA          3.1588  -12.6071  -46.1214 C.3       0 UNK        -0.1800 
      2 C           1.6872  -12.9922  -46.1186 C.2       0 UNK         0.5000 
      3 O           1.1073  -13.1867  -45.0498 O.2       0 UNK        -0.5000 
      4 N           1.0807  -13.0973  -47.3081 N.am      1 UNK        -0.5000 
      5 CA         -0.3186  -13.4943  -47.5128 C.3       1 UNK         0.1400 
      6 C6         -0.6534  -13.7588  -49.0025 C.3       23 UNK        -0.0398 
      7 S7          0.4781  -14.9551  -49.7885 S.3       23 UNK        -0.2404 
      8 C8         -0.4810  -16.4908  -49.6435 C.3       23 UNK        -0.0205 
      9 C9          0.3059  -17.6769  -50.1761 C.ar      23 UNK        -0.0193 
     10 C10         0.0693  -18.1820  -51.4584 C.ar      23 UNK        -0.1150 
     11 C11         0.8031  -19.2758  -51.9411 C.ar      23 UNK        -0.0193 
     12 C12         1.7584  -19.8706  -51.1092 C.ar      23 UNK        -0.1150 
     13 C13         1.9933  -19.3832  -49.8206 C.ar      23 UNK        -0.0193 
     14 C14         1.2757  -18.2741  -49.3710 C.ar      23 UNK        -0.1150 
     15 C15         3.0137  -20.0511  -48.9063 C.3       23 UNK        -0.0205 
     16 S16         2.6059  -21.7901  -48.5316 S.3       23 UNK        -0.2404 
     17 C17         0.8506  -21.6790  -48.0490 C.3       23 UNK        -0.0398 
     18 CA          0.4226  -22.8342  -47.1135 C.3       11 UNK         0.1400 
     19 N           0.9083  -22.6647  -45.7387 N.am      11 UNK        -0.5000 
     20 C           0.7673  -23.5779  -44.7664 C.2       10 UNK         0.5000 
     21 O           0.2452  -24.6793  -44.9381 O.2       10 UNK        -0.5000 
     22 CA          1.2285  -23.1796  -43.3532 C.3       10 UNK         0.1400 
     23 CB          2.7567  -23.2613  -43.2240 C.3       10 UNK        -0.1800 
     24 N           0.7611  -21.8472  -42.9693 N.am      10 UNK        -0.5000 
     25 C          -0.5282  -21.5158  -42.8025 C.2       9 UNK         0.5000 
     26 O          -1.4562  -22.3181  -42.8939 O.2       9 UNK        -0.5000 
     27 CA         -0.8415  -20.0309  -42.5383 C.3       9 UNK         0.1400 
     28 CB         -0.6406  -19.6785  -41.0572 C.3       9 UNK        -0.1800 
     29 N          -0.0409  -19.1331  -43.3695 N.am      9 UNK        -0.5000 
     30 C          -0.0798  -19.0978  -44.7078 C.2       8 UNK         0.5000 
     31 O          -0.8444  -19.7759  -45.3919 O.2       8 UNK        -0.5000 
     32 CA          0.9572  -18.2078  -45.4064 C.3       8 UNK         0.1400 
     33 CB          0.4893  -16.7478  -45.4925 C.3       8 UNK        -0.1800 
     34 N           2.2706  -18.2818  -44.7694 N.am      8 UNK        -0.5000 
     35 C           3.0521  -19.3705  -44.7912 C.2       7 UNK         0.5000 
     36 O           2.7528  -20.4111  -45.3745 O.2       7 UNK        -0.5000 
     37 CA          4.3659  -19.2960  -43.9935 C.3       7 UNK         0.1400 
     38 CB          5.4457  -18.5577  -44.7986 C.3       7 UNK        -0.1800 
     39 N           4.1919  -18.6424  -42.6958 N.am      7 UNK        -0.5000 
     40 C           3.4644  -19.1457  -41.6883 C.2       6 UNK         0.5000 
     41 O           2.9124  -20.2448  -41.7274 O.2       6 UNK        -0.5000 
     42 CA          3.2778  -18.2458  -40.4509 C.3       6 UNK         0.1400 
     43 CB          4.4327  -18.4468  -39.4587 C.3       6 UNK        -0.1800 
     44 N           3.1548  -16.8193  -40.7725 N.am      6 UNK        -0.5000 
     45 C           2.2069  -16.2943  -41.5608 C.2       5 UNK         0.5000 
     46 O           1.3494  -16.9708  -42.1323 O.2       5 UNK        -0.5000 
     47 CA          2.2751  -14.7730  -41.7936 C.3       5 UNK         0.1400 
     48 CB          3.3924  -14.4411  -42.7955 C.3       5 UNK        -0.1800 
     49 N           1.0222  -14.2207  -42.3074 N.am      5 UNK        -0.5000 
     50 C          -0.1478  -14.1965  -41.6539 C.2       4 UNK         0.5000 
     51 O          -0.3020  -14.6043  -40.5005 O.2       4 UNK        -0.5000 
     52 CA         -1.3236  -13.5674  -42.4295 C.3       4 UNK         0.1400 
     53 CB         -2.6171  -13.4388  -41.5983 C.3       4 UNK        -0.1800 
     54 N          -0.9425  -12.2834  -43.0244 N.am      4 UNK        -0.5000 
     55 C          -0.5335  -11.1759  -42.3852 C.2       3 UNK         0.5000 
     56 O          -0.5448  -11.0381  -41.1615 O.2       3 UNK        -0.5000 
     57 CA          0.0132  -10.0306  -43.2592 C.3       3 UNK         0.1400 
     58 CB          1.5483   -9.9970  -43.1854 C.3       3 UNK        -0.1800 
     59 N          -0.3853  -10.1441  -44.6627 N.am      3 UNK        -0.5000 
     60 C          -1.5831   -9.7912  -45.1483 C.2       2 UNK         0.5000 
     61 O          -2.4766   -9.2864  -44.4678 O.2       2 UNK        -0.5000 
     62 CA         -1.8240  -10.0543  -46.6467 C.3       2 UNK         0.1400 
     63 CB         -1.5045   -8.7980  -47.4712 C.3       2 UNK        -0.1800 
     64 N          -1.0338  -11.1765  -47.1601 N.am      2 UNK        -0.5000 
     65 C          -1.3015  -12.4675  -46.9162 C.2       1 UNK         0.5000 
     66 O          -2.2487  -12.8537  -46.2312 O.2       1 UNK        -0.5000 
     67 C          -1.1049  -23.0409  -47.1693 C.2       11 UNK         0.5000 
     68 O          -1.5561  -23.9543  -47.8577 O.2       11 UNK        -0.5000 
     69 N          -1.8622  -22.2267  -46.4208 N.am      12 UNK        -0.5000 
     70 CA         -3.3222  -22.3003  -46.3176 C.3       12 UNK         0.1400 
     71 CB         -3.8388  -21.0319  -45.6219 C.3       12 UNK        -0.1800 
     72 C          -3.8399  -23.5604  -45.5934 C.2       12 UNK         0.5000 
     73 O          -4.9941  -23.9397  -45.7955 O.2       12 UNK        -0.5000 
     74 N          -2.9998  -24.1823  -44.7563 N.am      13 UNK        -0.5000 
     75 CA         -3.2795  -25.4702  -44.1254 C.3       13 UNK         0.1400 
     76 CB         -2.4738  -25.5925  -42.8226 C.3       13 UNK        -0.1800 
     77 C          -2.9669  -26.6387  -45.0768 C.2       13 UNK         0.5000 
     78 O          -3.7313  -27.6032  -45.1255 O.2       13 UNK        -0.5000 
     79 N          -1.8477  -26.5367  -45.8066 N.am      14 UNK        -0.5000 
     80 CA         -1.3548  -27.5591  -46.7282 C.3       14 UNK         0.1400 
     81 CB          0.1146  -27.2623  -47.0662 C.3       14 UNK        -0.1800 
     82 C          -2.1839  -27.6869  -48.0193 C.2       14 UNK         0.5000 
     83 O          -2.3489  -28.8013  -48.5185 O.2       14 UNK        -0.5000 
     84 N          -2.6717  -26.5600  -48.5483 N.am      15 UNK        -0.5000 
     85 CA         -3.3940  -26.4688  -49.8144 C.3       15 UNK         0.1400 
     86 CB         -2.3739  -26.3769  -50.9677 C.3       15 UNK        -0.1800 
     87 C          -4.3414  -25.2580  -49.7999 C.2       15 UNK         0.5000 
     88 O          -4.4161  -24.5390  -48.8041 O.2       15 UNK        -0.5000 
     89 N          -5.0484  -25.0394  -50.9167 N.am      16 UNK        -0.5000 
     90 CA         -5.9117  -23.8733  -51.1320 C.3       16 UNK         0.1400 
     91 CB         -6.7503  -24.1030  -52.3975 C.3       16 UNK        -0.1800 
     92 C          -5.1286  -22.5485  -51.2378 C.2       16 UNK         0.5000 
     93 O          -5.6664  -21.4971  -50.8878 O.2       16 UNK        -0.5000 
     94 N          -3.8744  -22.6275  -51.7104 N.am      17 UNK        -0.5000 
     95 CA         -2.9233  -21.5252  -51.8686 C.3       17 UNK         0.1400 
     96 CB         -2.4309  -21.0520  -50.4816 C.3       17 UNK        -0.1800 
     97 C          -3.5032  -20.4074  -52.7608 C.2       17 UNK         0.5000 
     98 O          -3.8903  -20.6878  -53.8981 O.2       17 UNK        -0.5000 
     99 N          -3.5947  -19.1787  -52.2356 N.am      18 UNK        -0.5000 
    100 CA        -4.1362  -18.0053  -52.9243 C.3       18 UNK         0.1400 
    101 CB        -3.9255  -16.7599  -52.0523 C.3       18 UNK        -0.1800 
    102 C         -5.6146  -18.1298  -53.3444 C.2       18 UNK         0.5000 
    103 O         -6.0132  -17.4664  -54.3017 O.2       18 UNK        -0.5000 
    104 N         -6.3932  -19.0027  -52.6844 N.am      19 UNK        -0.5000 
    105 CA        -7.7804  -19.3028  -53.0613 C.3       19 UNK         0.1400 
    106 CB        -8.4771  -20.0661  -51.9252 C.3       19 UNK        -0.1800 
    107 C         -7.8930  -20.0769  -54.3921 C.2       19 UNK         0.5000 
    108 O         -8.9439  -20.0251  -55.0315 O.2       19 UNK        -0.5000 
    109 N         -6.8051  -20.7447  -54.7996 N.am      20 UNK        -0.5000 
    110 CA        -6.6375  -21.3886  -56.1031 C.3       20 UNK         0.1400 
    111 CB        -6.1935  -22.8436  -55.8768 C.3       20 UNK        -0.1800 
    112 C         -5.6276  -20.6165  -56.9783 C.2       20 UNK         0.5000 
    113 O         -5.0993  -21.1820  -57.9377 O.2       20 UNK        -0.5000 
    114 N         -5.3397  -19.3544  -56.6157 N.am      21 UNK        -0.5000 
    115 CA        -4.3744  -18.4399  -57.2407 C.3       21 UNK         0.1400 
    116 CB        -4.8887  -17.9847  -58.6218 C.3       21 UNK        -0.1800 
    117 C         -2.9349  -19.0001  -57.2959 C.2       21 UNK         0.5000 
    118 O         -2.1748  -18.6521  -58.2013 O.2       21 UNK        -0.5000 
    119 N         -2.6005  -19.8766  -56.3387 N.am      22 UNK        -0.5000 
    120 CA        -1.3617  -20.6668  -56.2646 C.3       22 UNK         0.1400 
    121 C         -1.2002  -21.7217  -57.4042 C.2       22 UNK         0.5000 
    122 N         -2.2497  -22.0824  -58.1352 N.am      22 UNK        -0.7600 
    123 O         -0.1127  -22.2530  -57.6124 O.2       22 UNK        -0.5000 
    124 C124       -0.0885  -19.7999  -56.0535 C.3       23 UNK        -0.0398 
    125 S125       -0.1808  -18.7571  -54.5564 S.3       23 UNK        -0.2404 
    126 C126        0.5841  -19.8736  -53.3312 C.3       23 UNK        -0.0205 
    127 H127        3.7610  -13.4279  -45.7333 H         1 UNK         0.0600 
    128 H128        3.3213  -11.7345  -45.4894 H         1 UNK         0.0600 
    129 H129        3.5129  -12.3702  -47.1249 H         1 UNK         0.0600 
    130 H130        1.6167  -12.9487  -48.1514 H         1 UNK         0.3000 
    131 H131       -0.4702  -14.4287  -46.9704 H         1 UNK         0.0600 
    132 H132       -0.5970  -12.8324  -49.5770 H         1 UNK         0.0800 
    133 H133       -1.6801  -14.1145  -49.1078 H         1 UNK         0.0800 
    134 H134       -1.4237  -16.3843  -50.1783 H         1 UNK         0.0800 
    135 H135       -0.7376  -16.6622  -48.5969 H         1 UNK         0.0800 
    136 H136       -0.6861  -17.7166  -52.0740 H         1 UNK         0.1150 
    137 H137        2.3176  -20.7272  -51.4594 H         1 UNK         0.1150 
    138 H138        1.4727  -17.8621  -48.3942 H         1 UNK         0.1150 
    139 H139        3.9959  -20.0118  -49.3787 H         1 UNK         0.0800 
    140 H140        3.1049  -19.5052  -47.9665 H         1 UNK         0.0800 
    141 H141        0.2750  -21.6894  -48.9765 H         1 UNK         0.0800 
    142 H142        0.6542  -20.7150  -47.5787 H         1 UNK         0.0800 
    143 H143        0.8671  -23.7565  -47.4940 H         1 UNK         0.0600 
    144 H144        1.4009  -21.7993  -45.5349 H         1 UNK         0.3000 
    145 H145        0.7959  -23.8962  -42.6519 H         1 UNK         0.0600 
    146 H146        3.0763  -23.0559  -42.2023 H         1 UNK         0.0600 
    147 H147        3.1167  -24.2576  -43.4836 H         1 UNK         0.0600 
    148 H148        3.2592  -22.5505  -43.8795 H         1 UNK         0.0600 
    149 H149        1.4734  -21.1404  -42.8182 H         1 UNK         0.3000 
    150 H150       -1.8910  -19.8628  -42.7879 H         1 UNK         0.0600 
    151 H151       -1.2787  -20.2932  -40.4213 H         1 UNK         0.0600 
    152 H152       -0.8913  -18.6356  -40.8619 H         1 UNK         0.0600 
    153 H153        0.3896  -19.8395  -40.7408 H         1 UNK         0.0600 
    154 H154        0.5859  -18.4929  -42.8872 H         1 UNK         0.3000 
    155 H155        1.0595  -18.5917  -46.4197 H         1 UNK         0.0600 
    156 H156        0.3964  -16.2878  -44.5088 H         1 UNK         0.0600 
    157 H157       -0.4859  -16.6824  -45.9760 H         1 UNK         0.0600 
    158 H158        1.1850  -16.1472  -46.0784 H         1 UNK         0.0600 
    159 H159        2.5459  -17.4932  -44.2037 H         1 UNK         0.3000 
    160 H160        4.7084  -20.3180  -43.8178 H         1 UNK         0.0600 
    161 H161        5.1738  -17.5176  -44.9828 H         1 UNK         0.0600 
    162 H162        5.6014  -19.0331  -45.7682 H         1 UNK         0.0600 
    163 H163        6.4023  -18.5673  -44.2759 H         1 UNK         0.0600 
    164 H164        4.6141  -17.7335  -42.5781 H         1 UNK         0.3000 
    165 H165        2.3519  -18.5521  -39.9604 H         1 UNK         0.0600 
    166 H166        4.2633  -17.8893  -38.5373 H         1 UNK         0.0600 
    167 H167        4.5344  -19.4983  -39.1861 H         1 UNK         0.0600 
    168 H168        5.3860  -18.1227  -39.8780 H         1 UNK         0.0600 
    169 H169        3.8341  -16.2044  -40.3479 H         1 UNK         0.3000 
    170 H170        2.4930  -14.2867  -40.8409 H         1 UNK         0.0600 
    171 H171        4.3651  -14.7746  -42.4324 H         1 UNK         0.0600 
    172 H172        3.2185  -14.9199  -43.7601 H         1 UNK         0.0600 
    173 H173        3.4627  -13.3663  -42.9649 H         1 UNK         0.0600 
    174 H174        1.0469  -13.8622  -43.2585 H         1 UNK         0.3000 
    175 H175       -1.5342  -14.2392  -43.2632 H         1 UNK         0.0600 
    176 H176       -2.9596  -14.4176  -41.2610 H         1 UNK         0.0600 
    177 H177       -2.4745  -12.8209  -40.7115 H         1 UNK         0.0600 
    178 H178       -3.4211  -12.9988  -42.1883 H         1 UNK         0.0600 
    179 H179       -0.8416  -12.2944  -44.0305 H         1 UNK         0.3000 
    180 H180       -0.3702   -9.0907  -42.8564 H         1 UNK         0.0600 
    181 H181        1.9884  -10.9307  -43.5367 H         1 UNK         0.0600 
    182 H182        1.8857   -9.8442  -42.1595 H         1 UNK         0.0600 
    183 H183        1.9569   -9.1837  -43.7854 H         1 UNK         0.0600 
    184 H184        0.2832  -10.5645  -45.2905 H         1 UNK         0.3000 
    185 H185       -2.8834  -10.2866  -46.7762 H         1 UNK         0.0600 
    186 H186       -2.0960   -7.9469  -47.1310 H         1 UNK         0.0600 
    187 H187       -0.4529   -8.5195  -47.3915 H         1 UNK         0.0600 
    188 H188       -1.7334   -8.9498  -48.5262 H         1 UNK         0.0600 
    189 H189       -0.2270  -10.9455  -47.7218 H         1 UNK         0.3000 
    190 H190       -1.4158  -21.4672  -45.9110 H         1 UNK         0.3000 
    191 H191       -3.7266  -22.3188  -47.3318 H         1 UNK         0.0600 
    192 H192       -3.5544  -20.1360  -46.1740 H         1 UNK         0.0600 
    193 H193       -4.9272  -21.0384  -45.5513 H         1 UNK         0.0600 
    194 H194       -3.4428  -20.9425  -44.6096 H         1 UNK         0.0600 
    195 H195       -2.0917  -23.7714  -44.5814 H         1 UNK         0.3000 
    196 H196       -4.3390  -25.5213  -43.8655 H         1 UNK         0.0600 
    197 H197       -2.6827  -26.5391  -42.3228 H         1 UNK         0.0600 
    198 H198       -2.7296  -24.7933  -42.1266 H         1 UNK         0.0600 
    199 H199       -1.3997  -25.5462  -43.0018 H         1 UNK         0.0600 
    200 H200       -1.2479  -25.7290  -45.6686 H         1 UNK         0.3000 
    201 H201       -1.3936  -28.5222  -46.2149 H         1 UNK         0.0600 
    202 H202        0.7325  -27.2570  -46.1680 H         1 UNK         0.0600 
    203 H203        0.2255  -26.2929  -47.5536 H         1 UNK         0.0600 
    204 H204        0.5232  -28.0180  -47.7382 H         1 UNK         0.0600 
    205 H205       -2.5037  -25.6676  -48.0877 H         1 UNK         0.3000 
    206 H206       -4.0115  -27.3597  -49.9451 H         1 UNK         0.0600 
    207 H207       -1.6993  -27.2332  -50.9685 H         1 UNK         0.0600 
    208 H208       -2.8650  -26.3611  -51.9409 H         1 UNK         0.0600 
    209 H209       -1.7650  -25.4751  -50.8882 H         1 UNK         0.0600 
    210 H210       -4.9614  -25.6846  -51.6885 H         1 UNK         0.3000 
    211 H211       -6.5908  -23.7848  -50.2812 H         1 UNK         0.0600 
    212 H212       -6.1162  -24.2862  -53.2649 H         1 UNK         0.0600 
    213 H213       -7.3757  -23.2385  -52.6230 H         1 UNK         0.0600 
    214 H214       -7.4130  -24.9605  -52.2803 H         1 UNK         0.0600 
    215 H215       -3.5433  -23.5355  -52.0000 H         1 UNK         0.3000 
    216 H216       -2.0654  -21.9299  -52.4064 H         1 UNK         0.0600 
    217 H217       -1.6402  -20.3075  -50.5704 H         1 UNK         0.0600 
    218 H218       -2.0183  -21.8882  -49.9175 H         1 UNK         0.0600 
    219 H219       -3.2329  -20.6224  -49.8803 H         1 UNK         0.0600 
    220 H220       -3.2888  -19.0416  -51.2838 H         1 UNK         0.3000 
    221 H221       -3.5589  -17.8732  -53.8421 H         1 UNK         0.0600 
    222 H222       -4.3632  -16.8804  -51.0607 H         1 UNK         0.0600 
    223 H223       -2.8650  -16.5443  -51.9354 H         1 UNK         0.0600 
    224 H224       -4.3791  -15.8783  -52.5075 H         1 UNK         0.0600 
    225 H225       -5.9972  -19.5544  -51.9317 H         1 UNK         0.3000 
    226 H226       -8.3032  -18.3529  -53.1925 H         1 UNK         0.0600 
    227 H227       -8.3873  -19.5363  -50.9767 H         1 UNK         0.0600 
    228 H228       -9.5414  -20.1825  -52.1332 H         1 UNK         0.0600 
    229 H229       -8.0634  -21.0649  -51.7939 H         1 UNK         0.0600 
    230 H230       -5.9720  -20.7160  -54.2219 H         1 UNK         0.3000 
    231 H231       -7.5810  -21.4030  -56.6516 H         1 UNK         0.0600 
    232 H232       -6.9479  -23.3951  -55.3168 H         1 UNK         0.0600 
    233 H233       -5.2536  -22.8958  -55.3255 H         1 UNK         0.0600 
    234 H234       -6.0527  -23.3693  -56.8219 H         1 UNK         0.0600 
    235 H235       -5.8239  -18.9722  -55.8127 H         1 UNK         0.3000 
    236 H236       -4.3284  -17.5592  -56.5988 H         1 UNK         0.0600 
    237 H237       -4.2560  -17.2001  -59.0381 H         1 UNK         0.0600 
    238 H238       -4.9048  -18.8070  -59.3377 H         1 UNK         0.0600 
    239 H239       -5.8987  -17.5806  -58.5522 H         1 UNK         0.0600 
    240 H240       -3.2842  -20.1001  -55.6219 H         1 UNK         0.3000 
    241 H241       -1.4763  -21.2759  -55.3676 H         1 UNK         0.0600 
    242 H242       -2.1300  -22.7728  -58.8591 H         1 UNK         0.3800 
    243 H243       -3.1656  -21.6705  -57.9874 H         1 UNK         0.3800 
    244 H244        0.8006  -20.4281  -55.9824 H         1 UNK         0.0800 
    245 H245        0.0796  -19.1517  -56.9140 H         1 UNK         0.0800 
    246 H246       -0.0334  -20.7662  -53.2317 H         1 UNK         0.0800 
    247 H247        1.5465  -20.2026  -53.7268 H         1 UNK         0.0800 
@<TRIPOS>BOND
     1    1    2 1    
     2    1  127 1    
     3    1  128 1    
     4    1  129 1    
     5    2    3 2    
     6    2    4 am   BACKBONE|DICT|INTERRES
     7    4    5 1    
     8    4  130 1    
     9    5    6 1    
    10    5   65 1    
    11    5  131 1    
    12    6    7 1    
    13    6  132 1    
    14    6  133 1    
    15    7    8 1    
    16    8    9 1    
    17    8  134 1    
    18    8  135 1    
    19    9   10 ar   
    20    9   14 ar   
    21   10   11 ar   
    22   10  136 1    
    23   11   12 ar   
    24   11  126 1    
    25   12   13 ar   
    26   12  137 1    
    27   13   14 ar   
    28   13   15 1    
    29   14  138 1    
    30   15   16 1    
    31   15  139 1    
    32   15  140 1    
    33   16   17 1    
    34   17   18 1    
    35   17  141 1    
    36   17  142 1    
    37   18   19 1    
    38   18   67 1    
    39   18  143 1    
    40   19   20 am   BACKBONE|DICT|INTERRES
    41   19  144 1    
    42   20   21 2    
    43   20   22 1    
    44   22   23 1    
    45   22   24 1    
    46   22  145 1    
    47   23  146 1    
    48   23  147 1    
    49   23  148 1    
    50   24   25 am   BACKBONE|DICT|INTERRES
    51   24  149 1    
    52   25   26 2    
    53   25   27 1    
    54   27   28 1    
    55   27   29 1    
    56   27  150 1    
    57   28  151 1    
    58   28  152 1    
    59   28  153 1    
    60   29   30 am   BACKBONE|DICT|INTERRES
    61   29  154 1    
    62   30   31 2    
    63   30   32 1    
    64   32   33 1    
    65   32   34 1    
    66   32  155 1    
    67   33  156 1    
    68   33  157 1    
    69   33  158 1    
    70   34   35 am   BACKBONE|DICT|INTERRES
    71   34  159 1    
    72   35   36 2    
    73   35   37 1    
    74   37   38 1    
    75   37   39 1    
    76   37  160 1    
    77   38  161 1    
    78   38  162 1    
    79   38  163 1    
    80   39   40 am   BACKBONE|DICT|INTERRES
    81   39  164 1    
    82   40   41 2    
    83   40   42 1    
    84   42   43 1    
    85   42   44 1    
    86   42  165 1    
    87   43  166 1    
    88   43  167 1    
    89   43  168 1    
    90   44   45 am   BACKBONE|DICT|INTERRES
    91   44  169 1    
    92   45   46 2    
    93   45   47 1    
    94   47   48 1    
    95   47   49 1    
    96   47  170 1    
    97   48  171 1    
    98   48  172 1    
    99   48  173 1    
   100   49   50 am   BACKBONE|DICT|INTERRES
   101   49  174 1    
   102   50   51 2    
   103   50   52 1    
   104   52   53 1    
   105   52   54 1    
   106   52  175 1    
   107   53  176 1    
   108   53  177 1    
   109   53  178 1    
   110   54   55 am   BACKBONE|DICT|INTERRES
   111   54  179 1    
   112   55   56 2    
   113   55   57 1    
   114   57   58 1    
   115   57   59 1    
   116   57  180 1    
   117   58  181 1    
   118   58  182 1    
   119   58  183 1    
   120   59   60 am   BACKBONE|DICT|INTERRES
   121   59  184 1    
   122   60   61 2    
   123   60   62 1    
   124   62   63 1    
   125   62   64 1    
   126   62  185 1    
   127   63  186 1    
   128   63  187 1    
   129   63  188 1    
   130   64   65 am   BACKBONE|DICT|INTERRES
   131   64  189 1    
   132   65   66 2    
   133   67   68 2    
   134   67   69 am   BACKBONE|DICT|INTERRES
   135   69   70 1    
   136   69  190 1    
   137   70   71 1    
   138   70   72 1    
   139   70  191 1    
   140   71  192 1    
   141   71  193 1    
   142   71  194 1    
   143   72   73 2    
   144   72   74 am   BACKBONE|DICT|INTERRES
   145   74   75 1    
   146   74  195 1    
   147   75   76 1    
   148   75   77 1    
   149   75  196 1    
   150   76  197 1    
   151   76  198 1    
   152   76  199 1    
   153   77   78 2    
   154   77   79 am   BACKBONE|DICT|INTERRES
   155   79   80 1    
   156   79  200 1    
   157   80   81 1    
   158   80   82 1    
   159   80  201 1    
   160   81  202 1    
   161   81  203 1    
   162   81  204 1    
   163   82   83 2    
   164   82   84 am   BACKBONE|DICT|INTERRES
   165   84   85 1    
   166   84  205 1    
   167   85   86 1    
   168   85   87 1    
   169   85  206 1    
   170   86  207 1    
   171   86  208 1    
   172   86  209 1    
   173   87   88 2    
   174   87   89 am   BACKBONE|DICT|INTERRES
   175   89   90 1    
   176   89  210 1    
   177   90   91 1    
   178   90   92 1    
   179   90  211 1    
   180   91  212 1    
   181   91  213 1    
   182   91  214 1    
   183   92   93 2    
   184   92   94 am   BACKBONE|DICT|INTERRES
   185   94   95 1    
   186   94  215 1    
   187   95   96 1    
   188   95   97 1    
   189   95  216 1    
   190   96  217 1    
   191   96  218 1    
   192   96  219 1    
   193   97   98 2    
   194   97   99 am   BACKBONE|DICT|INTERRES
   195   99  100 1    
   196   99  220 1    
   197  100  101 1    
   198  100  102 1    
   199  100  221 1    
   200  101  222 1    
   201  101  223 1    
   202  101  224 1    
   203  102  103 2    
   204  102  104 am   BACKBONE|DICT|INTERRES
   205  104  105 1    
   206  104  225 1    
   207  105  106 1    
   208  105  107 1    
   209  105  226 1    
   210  106  227 1    
   211  106  228 1    
   212  106  229 1    
   213  107  108 2    
   214  107  109 am   BACKBONE|DICT|INTERRES
   215  109  110 1    
   216  109  230 1    
   217  110  111 1    
   218  110  112 1    
   219  110  231 1    
   220  111  232 1    
   221  111  233 1    
   222  111  234 1    
   223  112  113 2    
   224  112  114 am   BACKBONE|DICT|INTERRES
   225  114  115 1    
   226  114  235 1    
   227  115  116 1    
   228  115  117 1    
   229  115  236 1    
   230  116  237 1    
   231  116  238 1    
   232  116  239 1    
   233  117  118 2    
   234  117  119 am   BACKBONE|DICT|INTERRES
   235  119  120 1    
   236  119  240 1    
   237  120  121 1    
   238  120  124 1    
   239  120  241 1    
   240  121  122 am   BACKBONE|DICT|INTERRES
   241  121  123 2    
   242  122  242 1    
   243  122  243 1    
   244  124  125 1    
   245  124  244 1    
   246  124  245 1    
   247  125  126 1    
   248  126  246 1    
   249  126  247 1    
@<TRIPOS>SUBSTRUCTURE
     1 UNK         1 GROUP             0       ****    0 ROOT    
