@<TRIPOS>MOLECULE
3R540
247   249    1
SMALL
USER_CHARGES


@<TRIPOS>ATOM
      1 CA          2.0170   -8.3125  -45.4505 C.3       0 UNK        -0.1800 
      2 C           2.6565   -9.5454  -46.0721 C.2       0 UNK         0.5000 
      3 O           3.8068   -9.4883  -46.5083 O.2       0 UNK        -0.5000 
      4 N           1.9286  -10.6680  -46.0976 N.am      1 UNK        -0.5000 
      5 CA          2.3895  -11.9735  -46.5805 C.3       1 UNK         0.1400 
      6 C6          1.2016  -12.8129  -47.1134 C.3       23 UNK        -0.0398 
      7 S7          1.7326  -14.2409  -48.1216 S.3       23 UNK        -0.2404 
      8 C8          0.5998  -14.1765  -49.5501 C.3       23 UNK        -0.0205 
      9 C9          0.0360  -15.5521  -49.8817 C.ar      23 UNK        -0.0193 
     10 C10        -1.3322  -15.8093  -49.7482 C.ar      23 UNK        -0.1150 
     11 C11        -1.8591  -17.0674  -50.0571 C.ar      23 UNK        -0.0193 
     12 C12        -0.9921  -18.0746  -50.4956 C.ar      23 UNK        -0.1150 
     13 C13         0.3807  -17.8384  -50.6283 C.ar      23 UNK        -0.0193 
     14 C14         0.8829  -16.5693  -50.3294 C.ar      23 UNK        -0.1150 
     15 C15         1.3402  -18.9309  -51.0980 C.3       23 UNK        -0.0205 
     16 S16         0.9193  -20.6141  -50.5276 S.3       23 UNK        -0.2404 
     17 C17         0.8422  -20.3672  -48.7253 C.3       23 UNK        -0.0398 
     18 CA          0.5684  -21.6598  -47.9237 C.3       11 UNK         0.1400 
     19 N           0.9366  -21.4598  -46.5196 N.am      11 UNK        -0.5000 
     20 C           1.0265  -22.4106  -45.5817 C.2       10 UNK         0.5000 
     21 O           0.8003  -23.6024  -45.7907 O.2       10 UNK        -0.5000 
     22 CA          1.4060  -21.9340  -44.1679 C.3       10 UNK         0.1400 
     23 CB          2.9165  -21.6730  -44.0606 C.3       10 UNK        -0.1800 
     24 N           0.6751  -20.7225  -43.7933 N.am      10 UNK        -0.5000 
     25 C          -0.6147  -20.7068  -43.4297 C.2       9 UNK         0.5000 
     26 O          -1.2991  -21.7219  -43.3004 O.2       9 UNK        -0.5000 
     27 CA         -1.2585  -19.3273  -43.1886 C.3       9 UNK         0.1400 
     28 CB         -1.0375  -18.8771  -41.7368 C.3       9 UNK        -0.1800 
     29 N          -0.7724  -18.2857  -44.0951 N.am      9 UNK        -0.5000 
     30 C          -0.9180  -18.2999  -45.4278 C.2       8 UNK         0.5000 
     31 O          -1.4922  -19.1943  -46.0427 O.2       8 UNK        -0.5000 
     32 CA         -0.2606  -17.1531  -46.2131 C.3       8 UNK         0.1400 
     33 CB         -1.1529  -15.9040  -46.1876 C.3       8 UNK        -0.1800 
     34 N           1.0798  -16.8324  -45.7185 N.am      8 UNK        -0.5000 
     35 C           2.1079  -17.6942  -45.7011 C.2       7 UNK         0.5000 
     36 O           2.0386  -18.8517  -46.1113 O.2       7 UNK        -0.5000 
     37 CA          3.4152  -17.2058  -45.0636 C.3       7 UNK         0.1400 
     38 CB          4.2768  -16.4447  -46.0807 C.3       7 UNK        -0.1800 
     39 N           3.1491  -16.3735  -43.8912 N.am      7 UNK        -0.5000 
     40 C           2.8280  -16.8732  -42.6892 C.2       6 UNK         0.5000 
     41 O           2.7857  -18.0792  -42.4415 O.2       6 UNK        -0.5000 
     42 CA          2.4550  -15.8647  -41.5868 C.3       6 UNK         0.1400 
     43 CB          3.7026  -15.4144  -40.8120 C.3       6 UNK        -0.1800 
     44 N           1.7302  -14.6966  -42.0966 N.am      6 UNK        -0.5000 
     45 C           0.4865  -14.7644  -42.5954 C.2       5 UNK         0.5000 
     46 O          -0.1299  -15.8256  -42.6989 O.2       5 UNK        -0.5000 
     47 CA         -0.1903  -13.4602  -43.0557 C.3       5 UNK         0.1400 
     48 CB         -1.7205  -13.4925  -42.8532 C.3       5 UNK        -0.1800 
     49 N           0.3654  -12.2778  -42.3987 N.am      5 UNK        -0.5000 
     50 C           0.3087  -11.0397  -42.9069 C.2       4 UNK         0.5000 
     51 O          -0.1237  -10.7754  -44.0299 O.2       4 UNK        -0.5000 
     52 CA          0.8574   -9.9137  -42.0240 C.3       4 UNK         0.1400 
     53 CB         -0.0203   -9.6879  -40.7788 C.3       4 UNK        -0.1800 
     54 N           2.2257  -10.2402  -41.6518 N.am      4 UNK        -0.5000 
     55 C           3.1603   -9.3960  -41.2128 C.2       3 UNK         0.5000 
     56 O           2.9574   -8.2029  -40.9856 O.2       3 UNK        -0.5000 
     57 CA          4.5769   -9.9789  -41.0346 C.3       3 UNK         0.1400 
     58 CB          4.6802  -10.8221  -39.7484 C.3       3 UNK        -0.1800 
     59 N           5.0650  -10.7177  -42.2106 N.am      3 UNK        -0.5000 
     60 C           4.6143  -11.8704  -42.7259 C.2       2 UNK         0.5000 
     61 O           3.6882  -12.5250  -42.2403 O.2       2 UNK        -0.5000 
     62 CA          5.2735  -12.3203  -44.0409 C.3       2 UNK         0.1400 
     63 CB          5.7747  -13.7728  -43.9799 C.3       2 UNK        -0.1800 
     64 N           4.3759  -12.0864  -45.1750 N.am      2 UNK        -0.5000 
     65 C           3.1969  -12.6624  -45.4568 C.2       1 UNK         0.5000 
     66 O           2.7268  -13.6308  -44.8550 O.2       1 UNK        -0.5000 
     67 C          -0.8854  -22.1656  -48.0990 C.2       11 UNK         0.5000 
     68 O          -1.1683  -22.8856  -49.0559 O.2       11 UNK        -0.5000 
     69 N          -1.7689  -21.8278  -47.1486 N.am      12 UNK        -0.5000 
     70 CA         -3.1728  -22.2393  -47.0778 C.3       12 UNK         0.1400 
     71 CB         -3.8966  -21.3800  -46.0282 C.3       12 UNK        -0.1800 
     72 C          -3.4129  -23.7427  -46.8128 C.2       12 UNK         0.5000 
     73 O          -4.5734  -24.1583  -46.7898 O.2       12 UNK        -0.5000 
     74 N          -2.3507  -24.5417  -46.6355 N.am      13 UNK        -0.5000 
     75 CA         -2.3965  -26.0004  -46.5027 C.3       13 UNK         0.1400 
     76 CB         -0.9622  -26.5357  -46.3860 C.3       13 UNK        -0.1800 
     77 C          -3.1337  -26.6907  -47.6705 C.2       13 UNK         0.5000 
     78 O          -2.9960  -26.2694  -48.8225 O.2       13 UNK        -0.5000 
     79 N          -3.9198  -27.7259  -47.3396 N.am      14 UNK        -0.5000 
     80 CA         -4.7930  -28.4884  -48.2435 C.3       14 UNK         0.1400 
     81 CB         -3.9543  -29.3287  -49.2299 C.3       14 UNK        -0.1800 
     82 C          -5.8427  -27.5998  -48.9482 C.2       14 UNK         0.5000 
     83 O          -6.0948  -27.7682  -50.1426 O.2       14 UNK        -0.5000 
     84 N          -6.4017  -26.6385  -48.1946 N.am      15 UNK        -0.5000 
     85 CA         -7.3270  -25.5902  -48.6437 C.3       15 UNK         0.1400 
     86 CB         -8.6913  -26.1954  -49.0363 C.3       15 UNK        -0.1800 
     87 C          -6.7078  -24.7240  -49.7594 C.2       15 UNK         0.5000 
     88 O          -7.3246  -24.5212  -50.8049 O.2       15 UNK        -0.5000 
     89 N          -5.4645  -24.2831  -49.5247 N.am      16 UNK        -0.5000 
     90 CA         -4.5730  -23.5852  -50.4553 C.3       16 UNK         0.1400 
     91 CB         -5.0880  -22.1591  -50.7375 C.3       16 UNK        -0.1800 
     92 C          -4.3258  -24.4002  -51.7382 C.2       16 UNK         0.5000 
     93 O          -4.4821  -23.8738  -52.8414 O.2       16 UNK        -0.5000 
     94 N          -3.9832  -25.6847  -51.5649 N.am      17 UNK        -0.5000 
     95 CA         -3.8038  -26.6943  -52.6158 C.3       17 UNK         0.1400 
     96 CB         -2.5055  -26.4196  -53.4023 C.3       17 UNK        -0.1800 
     97 C          -5.0430  -26.8237  -53.5309 C.2       17 UNK         0.5000 
     98 O          -4.9116  -26.8202  -54.7557 O.2       17 UNK        -0.5000 
     99 N          -6.2253  -26.8996  -52.9030 N.am      18 UNK        -0.5000 
    100 CA        -7.5585  -26.8623  -53.5115 C.3       18 UNK         0.1400 
    101 CB        -7.8154  -28.1274  -54.3570 C.3       18 UNK        -0.1800 
    102 C         -7.8173  -25.5460  -54.2789 C.2       18 UNK         0.5000 
    103 O         -8.1989  -25.5709  -55.4508 O.2       18 UNK        -0.5000 
    104 N         -7.6084  -24.4219  -53.5785 N.am      19 UNK        -0.5000 
    105 CA        -7.8121  -23.0351  -54.0072 C.3       19 UNK         0.1400 
    106 CB        -9.3182  -22.7428  -54.1717 C.3       19 UNK        -0.1800 
    107 C         -6.9783  -22.6431  -55.2451 C.2       19 UNK         0.5000 
    108 O         -7.5121  -22.0538  -56.1878 O.2       19 UNK        -0.5000 
    109 N         -5.6840  -22.9812  -55.2190 N.am      20 UNK        -0.5000 
    110 CA        -4.7368  -22.7357  -56.3069 C.3       20 UNK         0.1400 
    111 CB        -4.3674  -24.0763  -56.9605 C.3       20 UNK        -0.1800 
    112 C         -3.4679  -22.0077  -55.8346 C.2       20 UNK         0.5000 
    113 O         -2.9278  -21.1989  -56.5913 O.2       20 UNK        -0.5000 
    114 N         -3.0015  -22.2928  -54.6095 N.am      21 UNK        -0.5000 
    115 CA        -1.7157  -21.8244  -54.0801 C.3       21 UNK         0.1400 
    116 CB        -1.4077  -22.5519  -52.7636 C.3       21 UNK        -0.1800 
    117 C         -1.6326  -20.2986  -53.8904 C.2       21 UNK         0.5000 
    118 O         -0.5516  -19.7295  -54.0425 O.2       21 UNK        -0.5000 
    119 N         -2.7761  -19.6660  -53.6004 N.am      22 UNK        -0.5000 
    120 CA        -2.9167  -18.2043  -53.4928 C.3       22 UNK         0.1400 
    121 C         -2.9963  -17.4697  -54.8659 C.2       22 UNK         0.5000 
    122 N         -3.0077  -18.1578  -56.0029 N.am      22 UNK        -0.7600 
    123 O         -3.0425  -16.2432  -54.9031 O.2       22 UNK        -0.5000 
    124 C124       -4.0961  -17.7912  -52.5707 C.3       23 UNK        -0.0398 
    125 S125       -4.0820  -18.6037  -50.9334 S.3       23 UNK        -0.2404 
    126 C126       -3.3539  -17.3184  -49.8565 C.3       23 UNK        -0.0205 
    127 H127        2.1050   -7.4618  -46.1262 H         1 UNK         0.0600 
    128 H128        2.5188   -8.0617  -44.5158 H         1 UNK         0.0600 
    129 H129        0.9588   -8.4686  -45.2400 H         1 UNK         0.0600 
    130 H130        1.0251  -10.6711  -45.6319 H         1 UNK         0.3000 
    131 H131        3.0702  -11.8091  -47.4188 H         1 UNK         0.0600 
    132 H132        0.5636  -13.1624  -46.3032 H         1 UNK         0.0800 
    133 H133        0.5696  -12.1711  -47.7276 H         1 UNK         0.0800 
    134 H134       -0.2164  -13.4784  -49.3617 H         1 UNK         0.0800 
    135 H135        1.1398  -13.7886  -50.4148 H         1 UNK         0.0800 
    136 H136       -1.9905  -15.0281  -49.3948 H         1 UNK         0.1150 
    137 H137       -1.3828  -19.0543  -50.7274 H         1 UNK         0.1150 
    138 H138        1.9407  -16.3708  -50.4320 H         1 UNK         0.1150 
    139 H139        1.3607  -18.9275  -52.1882 H         1 UNK         0.0800 
    140 H140        2.3557  -18.7061  -50.7684 H         1 UNK         0.0800 
    141 H141        0.1003  -19.6071  -48.4791 H         1 UNK         0.0800 
    142 H142        1.8082  -19.9514  -48.4372 H         1 UNK         0.0800 
    143 H143        1.2261  -22.4420  -48.3083 H         1 UNK         0.0600 
    144 H144        1.1829  -20.5069  -46.2618 H         1 UNK         0.3000 
    145 H145        1.1509  -22.7298  -43.4647 H         1 UNK         0.0600 
    146 H146        3.4851  -22.5699  -44.3090 H         1 UNK         0.0600 
    147 H147        3.2418  -20.8809  -44.7356 H         1 UNK         0.0600 
    148 H148        3.1939  -21.3813  -43.0475 H         1 UNK         0.0600 
    149 H149        1.1661  -19.8437  -43.8821 H         1 UNK         0.3000 
    150 H150       -2.3326  -19.4335  -43.3537 H         1 UNK         0.0600 
    151 H151       -1.3910  -19.6318  -41.0331 H         1 UNK         0.0600 
    152 H152       -1.5793  -17.9554  -41.5240 H         1 UNK         0.0600 
    153 H153        0.0185  -18.6993  -41.5284 H         1 UNK         0.0600 
    154 H154       -0.3341  -17.4778  -43.6604 H         1 UNK         0.3000 
    155 H155       -0.1607  -17.4741  -47.2520 H         1 UNK         0.0600 
    156 H156       -0.7608  -15.1215  -46.8335 H         1 UNK         0.0600 
    157 H157       -1.2487  -15.4966  -45.1831 H         1 UNK         0.0600 
    158 H158       -2.1569  -16.1373  -46.5445 H         1 UNK         0.0600 
    159 H159        1.2287  -15.9015  -45.3586 H         1 UNK         0.3000 
    160 H160        3.9795  -18.0876  -44.7520 H         1 UNK         0.0600 
    161 H161        3.8057  -15.5173  -46.4016 H         1 UNK         0.0600 
    162 H162        4.4499  -17.0479  -46.9729 H         1 UNK         0.0600 
    163 H163        5.2524  -16.2005  -45.6625 H         1 UNK         0.0600 
    164 H164        3.1065  -15.3683  -44.0396 H         1 UNK         0.3000 
    165 H165        1.7974  -16.3794  -40.8828 H         1 UNK         0.0600 
    166 H166        3.4471  -14.6992  -40.0300 H         1 UNK         0.0600 
    167 H167        4.1878  -16.2646  -40.3313 H         1 UNK         0.0600 
    168 H168        4.4394  -14.9476  -41.4648 H         1 UNK         0.0600 
    169 H169        2.2551  -13.8278  -42.1517 H         1 UNK         0.3000 
    170 H170        0.0096  -13.3927  -44.1245 H         1 UNK         0.0600 
    171 H171       -2.1760  -14.3531  -43.3431 H         1 UNK         0.0600 
    172 H172       -1.9786  -13.5445  -41.7951 H         1 UNK         0.0600 
    173 H173       -2.1961  -12.6046  -43.2696 H         1 UNK         0.0600 
    174 H174        0.7364  -12.4192  -41.4694 H         1 UNK         0.3000 
    175 H175        0.8650   -8.9978  -42.6183 H         1 UNK         0.0600 
    176 H176        0.3138   -8.8193  -40.2115 H         1 UNK         0.0600 
    177 H177       -1.0584   -9.5089  -41.0613 H         1 UNK         0.0600 
    178 H178       -0.0040  -10.5483  -40.1092 H         1 UNK         0.0600 
    179 H179        2.5365  -11.1867  -41.8644 H         1 UNK         0.3000 
    180 H180        5.2520   -9.1293  -40.9192 H         1 UNK         0.0600 
    181 H181        4.0137  -11.6848  -39.7647 H         1 UNK         0.0600 
    182 H182        4.4163  -10.2267  -38.8736 H         1 UNK         0.0600 
    183 H183        5.6960  -11.1875  -39.5983 H         1 UNK         0.0600 
    184 H184        5.8036  -10.2456  -42.7137 H         1 UNK         0.3000 
    185 H185        6.1469  -11.6904  -44.2164 H         1 UNK         0.0600 
    186 H186        6.5213  -13.8912  -43.1941 H         1 UNK         0.0600 
    187 H187        4.9718  -14.4726  -43.7662 H         1 UNK         0.0600 
    188 H188        6.2399  -14.0678  -44.9201 H         1 UNK         0.0600 
    189 H189        4.5960  -11.2591  -45.7196 H         1 UNK         0.3000 
    190 H190       -1.4722  -21.1560  -46.4484 H         1 UNK         0.3000 
    191 H191       -3.6219  -22.0189  -48.0463 H         1 UNK         0.0600 
    192 H192       -3.8680  -20.3242  -46.2964 H         1 UNK         0.0600 
    193 H193       -4.9486  -21.6555  -45.9439 H         1 UNK         0.0600 
    194 H194       -3.4477  -21.4903  -45.0410 H         1 UNK         0.0600 
    195 H195       -1.4304  -24.1254  -46.6747 H         1 UNK         0.3000 
    196 H196       -2.9267  -26.2234  -45.5749 H         1 UNK         0.0600 
    197 H197       -0.9543  -27.6215  -46.2823 H         1 UNK         0.0600 
    198 H198       -0.4570  -26.1229  -45.5126 H         1 UNK         0.0600 
    199 H199       -0.3688  -26.2840  -47.2662 H         1 UNK         0.0600 
    200 H200       -3.9663  -27.9980  -46.3671 H         1 UNK         0.3000 
    201 H201       -5.3573  -29.1823  -47.6190 H         1 UNK         0.0600 
    202 H202       -3.2546  -29.9740  -48.6991 H         1 UNK         0.0600 
    203 H203       -3.3788  -28.7028  -49.9116 H         1 UNK         0.0600 
    204 H204       -4.5915  -29.9732  -49.8366 H         1 UNK         0.0600 
    205 H205       -6.0944  -26.5595  -47.2351 H         1 UNK         0.3000 
    206 H206       -7.4886  -24.9277  -47.7920 H         1 UNK         0.0600 
    207 H207       -9.1092  -26.7860  -48.2212 H         1 UNK         0.0600 
    208 H208       -9.4117  -25.4110  -49.2712 H         1 UNK         0.0600 
    209 H209       -8.6152  -26.8401  -49.9124 H         1 UNK         0.0600 
    210 H210       -5.0625  -24.5030  -48.6182 H         1 UNK         0.3000 
    211 H211       -3.6049  -23.5021  -49.9623 H         1 UNK         0.0600 
    212 H212       -6.0478  -22.1671  -51.2527 H         1 UNK         0.0600 
    213 H213       -4.3863  -21.6091  -51.3646 H         1 UNK         0.0600 
    214 H214       -5.2116  -21.5914  -49.8158 H         1 UNK         0.0600 
    215 H215       -3.8449  -26.0095  -50.6120 H         1 UNK         0.3000 
    216 H216       -3.6915  -27.6535  -52.1095 H         1 UNK         0.0600 
    217 H217       -2.2889  -27.2350  -54.0932 H         1 UNK         0.0600 
    218 H218       -1.6506  -26.3255  -52.7326 H         1 UNK         0.0600 
    219 H219       -2.5748  -25.5043  -53.9908 H         1 UNK         0.0600 
    220 H220       -6.2126  -26.9476  -51.8870 H         1 UNK         0.3000 
    221 H221       -8.2675  -26.8756  -52.6823 H         1 UNK         0.0600 
    222 H222       -7.1685  -28.1718  -55.2334 H         1 UNK         0.0600 
    223 H223       -7.6501  -29.0318  -53.7716 H         1 UNK         0.0600 
    224 H224       -8.8463  -28.1543  -54.7118 H         1 UNK         0.0600 
    225 H225       -7.3235  -24.5229  -52.6051 H         1 UNK         0.3000 
    226 H226       -7.4482  -22.4110  -53.1906 H         1 UNK         0.0600 
    227 H227       -9.8678  -22.9900  -53.2634 H         1 UNK         0.0600 
    228 H228       -9.4919  -21.6859  -54.3769 H         1 UNK         0.0600 
    229 H229       -9.7540  -23.3124  -54.9931 H         1 UNK         0.0600 
    230 H230       -5.3218  -23.4469  -54.3889 H         1 UNK         0.3000 
    231 H231       -5.1913  -22.1033  -57.0720 H         1 UNK         0.0600 
    232 H232       -3.8780  -24.7458  -56.2522 H         1 UNK         0.0600 
    233 H233       -3.6868  -23.9294  -57.8000 H         1 UNK         0.0600 
    234 H234       -5.2528  -24.5854  -57.3419 H         1 UNK         0.0600 
    235 H235       -3.5198  -22.9385  -54.0179 H         1 UNK         0.3000 
    236 H236       -0.9475  -22.1049  -54.8037 H         1 UNK         0.0600 
    237 H237       -1.4882  -23.6324  -52.8739 H         1 UNK         0.0600 
    238 H238       -0.3892  -22.3429  -52.4397 H         1 UNK         0.0600 
    239 H239       -2.0767  -22.2416  -51.9606 H         1 UNK         0.0600 
    240 H240       -3.6200  -20.2099  -53.5033 H         1 UNK         0.3000 
    241 H241       -2.0063  -17.8229  -53.0294 H         1 UNK         0.0600 
    242 H242       -3.0555  -17.6598  -56.8777 H         1 UNK         0.3800 
    243 H243       -2.9456  -19.1687  -56.0097 H         1 UNK         0.3800 
    244 H244       -4.1047  -16.7096  -52.4253 H         1 UNK         0.0800 
    245 H245       -5.0455  -18.0365  -53.0492 H         1 UNK         0.0800 
    246 H246       -3.5037  -17.6216  -48.8195 H         1 UNK         0.0800 
    247 H247       -3.9148  -16.3920  -49.9891 H         1 UNK         0.0800 
@<TRIPOS>BOND
     1    1    2 1    
     2    1  127 1    
     3    1  128 1    
     4    1  129 1    
     5    2    3 2    
     6    2    4 am   BACKBONE|DICT|INTERRES
     7    4    5 1    
     8    4  130 1    
     9    5    6 1    
    10    5   65 1    
    11    5  131 1    
    12    6    7 1    
    13    6  132 1    
    14    6  133 1    
    15    7    8 1    
    16    8    9 1    
    17    8  134 1    
    18    8  135 1    
    19    9   10 ar   
    20    9   14 ar   
    21   10   11 ar   
    22   10  136 1    
    23   11   12 ar   
    24   11  126 1    
    25   12   13 ar   
    26   12  137 1    
    27   13   14 ar   
    28   13   15 1    
    29   14  138 1    
    30   15   16 1    
    31   15  139 1    
    32   15  140 1    
    33   16   17 1    
    34   17   18 1    
    35   17  141 1    
    36   17  142 1    
    37   18   19 1    
    38   18   67 1    
    39   18  143 1    
    40   19   20 am   BACKBONE|DICT|INTERRES
    41   19  144 1    
    42   20   21 2    
    43   20   22 1    
    44   22   23 1    
    45   22   24 1    
    46   22  145 1    
    47   23  146 1    
    48   23  147 1    
    49   23  148 1    
    50   24   25 am   BACKBONE|DICT|INTERRES
    51   24  149 1    
    52   25   26 2    
    53   25   27 1    
    54   27   28 1    
    55   27   29 1    
    56   27  150 1    
    57   28  151 1    
    58   28  152 1    
    59   28  153 1    
    60   29   30 am   BACKBONE|DICT|INTERRES
    61   29  154 1    
    62   30   31 2    
    63   30   32 1    
    64   32   33 1    
    65   32   34 1    
    66   32  155 1    
    67   33  156 1    
    68   33  157 1    
    69   33  158 1    
    70   34   35 am   BACKBONE|DICT|INTERRES
    71   34  159 1    
    72   35   36 2    
    73   35   37 1    
    74   37   38 1    
    75   37   39 1    
    76   37  160 1    
    77   38  161 1    
    78   38  162 1    
    79   38  163 1    
    80   39   40 am   BACKBONE|DICT|INTERRES
    81   39  164 1    
    82   40   41 2    
    83   40   42 1    
    84   42   43 1    
    85   42   44 1    
    86   42  165 1    
    87   43  166 1    
    88   43  167 1    
    89   43  168 1    
    90   44   45 am   BACKBONE|DICT|INTERRES
    91   44  169 1    
    92   45   46 2    
    93   45   47 1    
    94   47   48 1    
    95   47   49 1    
    96   47  170 1    
    97   48  171 1    
    98   48  172 1    
    99   48  173 1    
   100   49   50 am   BACKBONE|DICT|INTERRES
   101   49  174 1    
   102   50   51 2    
   103   50   52 1    
   104   52   53 1    
   105   52   54 1    
   106   52  175 1    
   107   53  176 1    
   108   53  177 1    
   109   53  178 1    
   110   54   55 am   BACKBONE|DICT|INTERRES
   111   54  179 1    
   112   55   56 2    
   113   55   57 1    
   114   57   58 1    
   115   57   59 1    
   116   57  180 1    
   117   58  181 1    
   118   58  182 1    
   119   58  183 1    
   120   59   60 am   BACKBONE|DICT|INTERRES
   121   59  184 1    
   122   60   61 2    
   123   60   62 1    
   124   62   63 1    
   125   62   64 1    
   126   62  185 1    
   127   63  186 1    
   128   63  187 1    
   129   63  188 1    
   130   64   65 am   BACKBONE|DICT|INTERRES
   131   64  189 1    
   132   65   66 2    
   133   67   68 2    
   134   67   69 am   BACKBONE|DICT|INTERRES
   135   69   70 1    
   136   69  190 1    
   137   70   71 1    
   138   70   72 1    
   139   70  191 1    
   140   71  192 1    
   141   71  193 1    
   142   71  194 1    
   143   72   73 2    
   144   72   74 am   BACKBONE|DICT|INTERRES
   145   74   75 1    
   146   74  195 1    
   147   75   76 1    
   148   75   77 1    
   149   75  196 1    
   150   76  197 1    
   151   76  198 1    
   152   76  199 1    
   153   77   78 2    
   154   77   79 am   BACKBONE|DICT|INTERRES
   155   79   80 1    
   156   79  200 1    
   157   80   81 1    
   158   80   82 1    
   159   80  201 1    
   160   81  202 1    
   161   81  203 1    
   162   81  204 1    
   163   82   83 2    
   164   82   84 am   BACKBONE|DICT|INTERRES
   165   84   85 1    
   166   84  205 1    
   167   85   86 1    
   168   85   87 1    
   169   85  206 1    
   170   86  207 1    
   171   86  208 1    
   172   86  209 1    
   173   87   88 2    
   174   87   89 am   BACKBONE|DICT|INTERRES
   175   89   90 1    
   176   89  210 1    
   177   90   91 1    
   178   90   92 1    
   179   90  211 1    
   180   91  212 1    
   181   91  213 1    
   182   91  214 1    
   183   92   93 2    
   184   92   94 am   BACKBONE|DICT|INTERRES
   185   94   95 1    
   186   94  215 1    
   187   95   96 1    
   188   95   97 1    
   189   95  216 1    
   190   96  217 1    
   191   96  218 1    
   192   96  219 1    
   193   97   98 2    
   194   97   99 am   BACKBONE|DICT|INTERRES
   195   99  100 1    
   196   99  220 1    
   197  100  101 1    
   198  100  102 1    
   199  100  221 1    
   200  101  222 1    
   201  101  223 1    
   202  101  224 1    
   203  102  103 2    
   204  102  104 am   BACKBONE|DICT|INTERRES
   205  104  105 1    
   206  104  225 1    
   207  105  106 1    
   208  105  107 1    
   209  105  226 1    
   210  106  227 1    
   211  106  228 1    
   212  106  229 1    
   213  107  108 2    
   214  107  109 am   BACKBONE|DICT|INTERRES
   215  109  110 1    
   216  109  230 1    
   217  110  111 1    
   218  110  112 1    
   219  110  231 1    
   220  111  232 1    
   221  111  233 1    
   222  111  234 1    
   223  112  113 2    
   224  112  114 am   BACKBONE|DICT|INTERRES
   225  114  115 1    
   226  114  235 1    
   227  115  116 1    
   228  115  117 1    
   229  115  236 1    
   230  116  237 1    
   231  116  238 1    
   232  116  239 1    
   233  117  118 2    
   234  117  119 am   BACKBONE|DICT|INTERRES
   235  119  120 1    
   236  119  240 1    
   237  120  121 1    
   238  120  124 1    
   239  120  241 1    
   240  121  122 am   BACKBONE|DICT|INTERRES
   241  121  123 2    
   242  122  242 1    
   243  122  243 1    
   244  124  125 1    
   245  124  244 1    
   246  124  245 1    
   247  125  126 1    
   248  126  246 1    
   249  126  247 1    
@<TRIPOS>SUBSTRUCTURE
     1 UNK         1 GROUP             0       ****    0 ROOT    
