@<TRIPOS>MOLECULE
3R540
247   249    1
SMALL
USER_CHARGES


@<TRIPOS>ATOM
      1 CA         -1.7844  -10.5126  -49.2355 C.3       0 UNK        -0.1800 
      2 C          -0.8361  -11.6837  -49.0209 C.2       0 UNK         0.5000 
      3 O          -1.1125  -12.5465  -48.1878 O.2       0 UNK        -0.5000 
      4 N           0.2753  -11.7143  -49.7702 N.am      1 UNK        -0.5000 
      5 CA          1.3487  -12.7116  -49.6819 C.3       1 UNK         0.1400 
      6 C6          0.8683  -14.1383  -50.0769 C.3       23 UNK        -0.0398 
      7 S7          2.2283  -15.2303  -50.6230 S.3       23 UNK        -0.2404 
      8 C8          1.4050  -16.2497  -51.8863 C.3       23 UNK        -0.0205 
      9 C9          0.5056  -17.3083  -51.2650 C.ar      23 UNK        -0.0193 
     10 C10        -0.8083  -16.9945  -50.9078 C.ar      23 UNK        -0.1150 
     11 C11        -1.6519  -17.9669  -50.3646 C.ar      23 UNK        -0.0193 
     12 C12        -1.1649  -19.2615  -50.1663 C.ar      23 UNK        -0.1150 
     13 C13         0.1432  -19.5948  -50.5328 C.ar      23 UNK        -0.0193 
     14 C14         0.9751  -18.6118  -51.0766 C.ar      23 UNK        -0.1150 
     15 C15         0.6422  -21.0260  -50.3839 C.3       23 UNK        -0.0205 
     16 S16         1.7993  -21.2457  -48.9913 S.3       23 UNK        -0.2404 
     17 C17         0.8007  -20.7516  -47.5465 C.3       23 UNK        -0.0398 
     18 CA          0.0893  -21.9290  -46.8361 C.3       11 UNK         0.1400 
     19 N          -0.2130  -21.6066  -45.4367 N.am      11 UNK        -0.5000 
     20 C          -0.7997  -22.4179  -44.5439 C.2       10 UNK         0.5000 
     21 O          -1.1256  -23.5800  -44.7848 O.2       10 UNK        -0.5000 
     22 CA         -1.1526  -21.7974  -43.1803 C.3       10 UNK         0.1400 
     23 CB          0.0768  -21.7162  -42.2629 C.3       10 UNK        -0.1800 
     24 N          -1.7459  -20.4700  -43.3493 N.am      10 UNK        -0.5000 
     25 C          -2.9801  -20.2629  -43.8320 C.2       9 UNK         0.5000 
     26 O          -3.7870  -21.1679  -44.0425 O.2       9 UNK        -0.5000 
     27 CA         -3.3666  -18.8134  -44.1784 C.3       9 UNK         0.1400 
     28 CB         -4.0739  -18.1343  -42.9957 C.3       9 UNK        -0.1800 
     29 N          -2.2088  -18.0177  -44.5943 N.am      9 UNK        -0.5000 
     30 C          -1.6293  -18.1185  -45.8003 C.2       8 UNK         0.5000 
     31 O          -2.0367  -18.8727  -46.6825 O.2       8 UNK        -0.5000 
     32 CA         -0.3640  -17.2741  -46.0582 C.3       8 UNK         0.1400 
     33 CB         -0.7432  -15.9111  -46.6537 C.3       8 UNK        -0.1800 
     34 N           0.4590  -17.0718  -44.8640 N.am      8 UNK        -0.5000 
     35 C           1.0459  -18.0479  -44.1594 C.2       7 UNK         0.5000 
     36 O           1.0091  -19.2322  -44.4886 O.2       7 UNK        -0.5000 
     37 CA          1.7145  -17.6555  -42.8266 C.3       7 UNK         0.1400 
     38 CB          3.2036  -17.3406  -43.0151 C.3       7 UNK        -0.1800 
     39 N           1.0614  -16.5350  -42.1442 N.am      7 UNK        -0.5000 
     40 C          -0.2119  -16.5396  -41.7223 C.2       6 UNK         0.5000 
     41 O          -0.9720  -17.4923  -41.9014 O.2       6 UNK        -0.5000 
     42 CA         -0.7216  -15.2726  -41.0009 C.3       6 UNK         0.1400 
     43 CB         -1.9898  -15.5298  -40.1612 C.3       6 UNK        -0.1800 
     44 N           0.3084  -14.6076  -40.1972 N.am      6 UNK        -0.5000 
     45 C           1.0230  -15.1320  -39.1871 C.2       5 UNK         0.5000 
     46 O           0.8304  -16.2595  -38.7293 O.2       5 UNK        -0.5000 
     47 CA          2.1455  -14.2519  -38.5870 C.3       5 UNK         0.1400 
     48 CB          3.3765  -15.0827  -38.1673 C.3       5 UNK        -0.1800 
     49 N           2.5513  -13.1262  -39.4409 N.am      5 UNK        -0.5000 
     50 C           3.0664  -13.1908  -40.6770 C.2       4 UNK         0.5000 
     51 O           3.3040  -14.2408  -41.2784 O.2       4 UNK        -0.5000 
     52 CA          3.2896  -11.8419  -41.3844 C.3       4 UNK         0.1400 
     53 CB          4.7774  -11.6296  -41.7041 C.3       4 UNK        -0.1800 
     54 N           2.5159  -11.7556  -42.6223 N.am      4 UNK        -0.5000 
     55 C           1.1835  -11.8734  -42.7276 C.2       3 UNK         0.5000 
     56 O           0.4278  -11.9954  -41.7618 O.2       3 UNK        -0.5000 
     57 CA          0.5984  -11.8806  -44.1541 C.3       3 UNK         0.1400 
     58 CB          0.1028  -10.4816  -44.5481 C.3       3 UNK        -0.1800 
     59 N           1.5495  -12.3507  -45.1635 N.am      3 UNK        -0.5000 
     60 C           2.0064  -13.6044  -45.2562 C.2       2 UNK         0.5000 
     61 O           1.6325  -14.5119  -44.5127 O.2       2 UNK        -0.5000 
     62 CA          3.0224  -13.8798  -46.3855 C.3       2 UNK         0.1400 
     63 CB          3.6695  -15.2713  -46.2812 C.3       2 UNK        -0.1800 
     64 N           2.4035  -13.7583  -47.7034 N.am      2 UNK        -0.5000 
     65 C           2.0664  -12.6151  -48.3124 C.2       1 UNK         0.5000 
     66 O           2.3070  -11.5030  -47.8326 O.2       1 UNK        -0.5000 
     67 C          -1.1660  -22.3796  -47.6128 C.2       11 UNK         0.5000 
     68 O          -1.0989  -23.3556  -48.3570 O.2       11 UNK        -0.5000 
     69 N          -2.3018  -21.7075  -47.3765 N.am      12 UNK        -0.5000 
     70 CA         -3.6106  -22.0360  -47.9452 C.3       12 UNK         0.1400 
     71 CB         -4.6269  -20.9600  -47.5385 C.3       12 UNK        -0.1800 
     72 C          -4.1392  -23.4410  -47.5925 C.2       12 UNK         0.5000 
     73 O          -4.9828  -23.9550  -48.3263 O.2       12 UNK        -0.5000 
     74 N          -3.6410  -24.0379  -46.5019 N.am      13 UNK        -0.5000 
     75 CA         -3.9191  -25.4188  -46.1177 C.3       13 UNK         0.1400 
     76 CB         -4.1212  -25.4918  -44.5956 C.3       13 UNK        -0.1800 
     77 C          -2.7801  -26.3508  -46.5648 C.2       13 UNK         0.5000 
     78 O          -3.0484  -27.3954  -47.1587 O.2       13 UNK        -0.5000 
     79 N          -1.5317  -25.9642  -46.2660 N.am      14 UNK        -0.5000 
     80 CA         -0.3272  -26.7693  -46.4813 C.3       14 UNK         0.1400 
     81 CB          0.8465  -26.1179  -45.7339 C.3       14 UNK        -0.1800 
     82 C           0.0382  -26.9868  -47.9613 C.2       14 UNK         0.5000 
     83 O           0.5757  -28.0418  -48.3007 O.2       14 UNK        -0.5000 
     84 N          -0.2520  -25.9949  -48.8082 N.am      15 UNK        -0.5000 
     85 CA          0.0348  -25.9825  -50.2391 C.3       15 UNK         0.1400 
     86 CB          1.2816  -25.1171  -50.4985 C.3       15 UNK        -0.1800 
     87 C          -1.2056  -25.4890  -51.0001 C.2       15 UNK         0.5000 
     88 O          -1.0908  -24.6583  -51.9018 O.2       15 UNK        -0.5000 
     89 N          -2.3789  -26.0164  -50.6202 N.am      16 UNK        -0.5000 
     90 CA         -3.7084  -25.6274  -51.1045 C.3       16 UNK         0.1400 
     91 CB         -4.7571  -26.5423  -50.4537 C.3       16 UNK        -0.1800 
     92 C          -3.8808  -25.6338  -52.6373 C.2       16 UNK         0.5000 
     93 O          -4.6278  -24.8110  -53.1657 O.2       16 UNK        -0.5000 
     94 N          -3.1718  -26.5394  -53.3246 N.am      17 UNK        -0.5000 
     95 CA         -3.1549  -26.6494  -54.7846 C.3       17 UNK         0.1400 
     96 CB         -2.5372  -28.0017  -55.1725 C.3       17 UNK        -0.1800 
     97 C          -2.4043  -25.4969  -55.4838 C.2       17 UNK         0.5000 
     98 O          -2.7115  -25.1943  -56.6374 O.2       17 UNK        -0.5000 
     99 N          -1.4373  -24.8835  -54.7883 N.am      18 UNK        -0.5000 
    100 CA        -0.6219  -23.7731  -55.2856 C.3       18 UNK         0.1400 
    101 CB         0.8289  -23.9911  -54.8269 C.3       18 UNK        -0.1800 
    102 C         -1.1318  -22.4062  -54.7926 C.2       18 UNK         0.5000 
    103 O         -0.7246  -21.3787  -55.3359 O.2       18 UNK        -0.5000 
    104 N         -2.0006  -22.4088  -53.7743 N.am      19 UNK        -0.5000 
    105 CA        -2.5133  -21.2506  -53.0424 C.3       19 UNK         0.1400 
    106 CB        -3.0831  -21.7535  -51.7060 C.3       19 UNK        -0.1800 
    107 C         -3.5395  -20.3925  -53.8154 C.2       19 UNK         0.5000 
    108 O         -4.5709  -20.0305  -53.2458 O.2       19 UNK        -0.5000 
    109 N         -3.2378  -20.0697  -55.0820 N.am      20 UNK        -0.5000 
    110 CA        -3.9587  -19.1650  -55.9866 C.3       20 UNK         0.1400 
    111 CB        -3.5264  -17.7118  -55.6894 C.3       20 UNK        -0.1800 
    112 C         -5.4898  -19.3782  -55.9632 C.2       20 UNK         0.5000 
    113 O         -5.9618  -20.4178  -56.4271 O.2       20 UNK        -0.5000 
    114 N         -6.2182  -18.4144  -55.3875 N.am      21 UNK        -0.5000 
    115 CA        -7.6361  -18.5050  -55.0388 C.3       21 UNK         0.1400 
    116 CB        -8.4240  -17.5178  -55.9180 C.3       21 UNK        -0.1800 
    117 C         -7.8644  -18.2324  -53.5348 C.2       21 UNK         0.5000 
    118 O         -9.0161  -18.1010  -53.1170 O.2       21 UNK        -0.5000 
    119 N         -6.7817  -18.1333  -52.7508 N.am      22 UNK        -0.5000 
    120 CA        -6.7943  -17.8942  -51.2977 C.3       22 UNK         0.1400 
    121 C         -6.7389  -19.1949  -50.4493 C.2       22 UNK         0.5000 
    122 N         -6.2645  -20.3138  -50.9814 N.am      22 UNK        -0.7600 
    123 O         -7.1622  -19.1919  -49.2970 O.2       22 UNK        -0.5000 
    124 C124       -5.7054  -16.8746  -50.8639 C.3       23 UNK        -0.0398 
    125 S125       -4.0359  -17.2192  -51.5242 S.3       23 UNK        -0.2404 
    126 C126       -3.0923  -17.6170  -50.0198 C.3       23 UNK        -0.0205 
    127 H127       -1.4207   -9.8309  -50.0047 H         1 UNK         0.0600 
    128 H128       -1.8993   -9.9500  -48.3089 H         1 UNK         0.0600 
    129 H129       -2.7662  -10.8759  -49.5392 H         1 UNK         0.0600 
    130 H130        0.4507  -10.9538  -50.4120 H         1 UNK         0.3000 
    131 H131        2.0868  -12.3959  -50.4209 H         1 UNK         0.0600 
    132 H132        0.1659  -14.0479  -50.9061 H         1 UNK         0.0800 
    133 H133        0.3086  -14.6174  -49.2726 H         1 UNK         0.0800 
    134 H134        0.8329  -15.6172  -52.5667 H         1 UNK         0.0800 
    135 H135        2.1711  -16.7291  -52.4975 H         1 UNK         0.0800 
    136 H136       -1.1884  -15.9964  -51.0708 H         1 UNK         0.1150 
    137 H137       -1.8090  -20.0145  -49.7370 H         1 UNK         0.1150 
    138 H138        1.9862  -18.8666  -51.3619 H         1 UNK         0.1150 
    139 H139       -0.1934  -21.7169  -50.2774 H         1 UNK         0.0800 
    140 H140        1.1482  -21.3222  -51.3038 H         1 UNK         0.0800 
    141 H141        1.5048  -20.2849  -46.8573 H         1 UNK         0.0800 
    142 H142        0.0994  -19.9638  -47.8157 H         1 UNK         0.0800 
    143 H143        0.7763  -22.7768  -46.8093 H         1 UNK         0.0600 
    144 H144        0.0729  -20.6824  -45.1210 H         1 UNK         0.3000 
    145 H145       -1.8871  -22.4457  -42.6974 H         1 UNK         0.0600 
    146 H146       -0.1833  -21.2905  -41.2936 H         1 UNK         0.0600 
    147 H147        0.8720  -21.1079  -42.6921 H         1 UNK         0.0600 
    148 H148        0.4894  -22.7094  -42.0820 H         1 UNK         0.0600 
    149 H149       -1.1468  -19.6712  -43.1921 H         1 UNK         0.3000 
    150 H150       -4.0736  -18.8490  -45.0103 H         1 UNK         0.0600 
    151 H151       -5.0051  -18.6494  -42.7572 H         1 UNK         0.0600 
    152 H152       -4.3247  -17.0985  -43.2247 H         1 UNK         0.0600 
    153 H153       -3.4620  -18.1420  -42.0942 H         1 UNK         0.0600 
    154 H154       -1.7770  -17.4425  -43.8818 H         1 UNK         0.3000 
    155 H155        0.2445  -17.8038  -46.7928 H         1 UNK         0.0600 
    156 H156       -1.3420  -16.0306  -47.5576 H         1 UNK         0.0600 
    157 H157        0.1433  -15.3424  -46.9284 H         1 UNK         0.0600 
    158 H158       -1.3207  -15.3093  -45.9511 H         1 UNK         0.0600 
    159 H159        0.6201  -16.1122  -44.5677 H         1 UNK         0.3000 
    160 H160        1.6390  -18.5241  -42.1693 H         1 UNK         0.0600 
    161 H161        3.7068  -18.1231  -43.5847 H         1 UNK         0.0600 
    162 H162        3.7101  -17.2583  -42.0532 H         1 UNK         0.0600 
    163 H163        3.3464  -16.3990  -43.5418 H         1 UNK         0.0600 
    164 H164        1.6296  -15.7114  -41.9853 H         1 UNK         0.3000 
    165 H165       -0.9882  -14.5685  -41.7902 H         1 UNK         0.0600 
    166 H166       -2.3331  -14.6164  -39.6757 H         1 UNK         0.0600 
    167 H167       -2.8074  -15.8897  -40.7869 H         1 UNK         0.0600 
    168 H168       -1.8178  -16.2781  -39.3870 H         1 UNK         0.0600 
    169 H169        0.5401  -13.6679  -40.5013 H         1 UNK         0.3000 
    170 H170        1.7246  -13.8088  -37.6834 H         1 UNK         0.0600 
    171 H171        3.8063  -15.6244  -39.0105 H         1 UNK         0.0600 
    172 H172        4.1551  -14.4484  -37.7437 H         1 UNK         0.0600 
    173 H173        3.1129  -15.8194  -37.4076 H         1 UNK         0.0600 
    174 H174        2.3614  -12.2110  -39.0556 H         1 UNK         0.3000 
    175 H175        2.9608  -11.0326  -40.7293 H         1 UNK         0.0600 
    176 H176        5.1549  -12.3902  -42.3889 H         1 UNK         0.0600 
    177 H177        4.9489  -10.6535  -42.1583 H         1 UNK         0.0600 
    178 H178        5.3812  -11.6762  -40.7969 H         1 UNK         0.0600 
    179 H179        3.0468  -11.6865  -43.4771 H         1 UNK         0.3000 
    180 H180       -0.2573  -12.5591  -44.1543 H         1 UNK         0.0600 
    181 H181       -0.3781  -10.4963  -45.5267 H         1 UNK         0.0600 
    182 H182        0.9206   -9.7609  -44.5862 H         1 UNK         0.0600 
    183 H183       -0.6307  -10.1103  -43.8311 H         1 UNK         0.0600 
    184 H184        1.8454  -11.6857  -45.8708 H         1 UNK         0.3000 
    185 H185        3.8183  -13.1368  -46.3030 H         1 UNK         0.0600 
    186 H186        4.3628  -15.4466  -47.1041 H         1 UNK         0.0600 
    187 H187        4.2424  -15.3609  -45.3587 H         1 UNK         0.0600 
    188 H188        2.9266  -16.0700  -46.2951 H         1 UNK         0.0600 
    189 H189        2.1951  -14.6264  -48.1763 H         1 UNK         0.3000 
    190 H190       -2.2591  -20.8696  -46.8058 H         1 UNK         0.3000 
    191 H191       -3.5063  -22.0070  -49.0277 H         1 UNK         0.0600 
    192 H192       -4.7775  -20.9351  -46.4603 H         1 UNK         0.0600 
    193 H193       -5.5983  -21.1483  -47.9965 H         1 UNK         0.0600 
    194 H194       -4.3075  -19.9683  -47.8559 H         1 UNK         0.0600 
    195 H195       -2.9379  -23.5511  -45.9602 H         1 UNK         0.3000 
    196 H196       -4.8402  -25.7665  -46.5902 H         1 UNK         0.0600 
    197 H197       -4.9616  -24.8721  -44.2825 H         1 UNK         0.0600 
    198 H198       -3.2394  -25.1558  -44.0491 H         1 UNK         0.0600 
    199 H199       -4.3343  -26.5136  -44.2793 H         1 UNK         0.0600 
    200 H200       -1.3979  -25.0892  -45.7638 H         1 UNK         0.3000 
    201 H201       -0.5037  -27.7529  -46.0410 H         1 UNK         0.0600 
    202 H202        0.6356  -26.0294  -44.6679 H         1 UNK         0.0600 
    203 H203        1.0601  -25.1194  -46.1162 H         1 UNK         0.0600 
    204 H204        1.7557  -26.7115  -45.8376 H         1 UNK         0.0600 
    205 H205       -0.6921  -25.1460  -48.4556 H         1 UNK         0.3000 
    206 H206        0.2360  -26.9937  -50.5975 H         1 UNK         0.0600 
    207 H207        2.1433  -25.4913  -49.9461 H         1 UNK         0.0600 
    208 H208        1.5483  -25.1175  -51.5557 H         1 UNK         0.0600 
    209 H209        1.1163  -24.0817  -50.1990 H         1 UNK         0.0600 
    210 H210       -2.3642  -26.6860  -49.8637 H         1 UNK         0.3000 
    211 H211       -3.8848  -24.6065  -50.7624 H         1 UNK         0.0600 
    212 H212       -4.6188  -27.5842  -50.7449 H         1 UNK         0.0600 
    213 H213       -5.7664  -26.2486  -50.7449 H         1 UNK         0.0600 
    214 H214       -4.7082  -26.4900  -49.3660 H         1 UNK         0.0600 
    215 H215       -2.5825  -27.1781  -52.8111 H         1 UNK         0.3000 
    216 H216       -4.1873  -26.6325  -55.1403 H         1 UNK         0.0600 
    217 H217       -2.5338  -28.1336  -56.2553 H         1 UNK         0.0600 
    218 H218       -3.1034  -28.8309  -54.7477 H         1 UNK         0.0600 
    219 H219       -1.5057  -28.0866  -54.8283 H         1 UNK         0.0600 
    220 H220       -1.2795  -25.1473  -53.8211 H         1 UNK         0.3000 
    221 H221       -0.6328  -23.7551  -56.3773 H         1 UNK         0.0600 
    222 H222        0.9123  -23.9840  -53.7395 H         1 UNK         0.0600 
    223 H223        1.2180  -24.9434  -55.1873 H         1 UNK         0.0600 
    224 H224        1.4828  -23.2069  -55.2106 H         1 UNK         0.0600 
    225 H225       -2.2581  -23.3093  -53.3953 H         1 UNK         0.3000 
    226 H226       -1.6690  -20.5957  -52.8189 H         1 UNK         0.0600 
    227 H227       -3.4204  -20.9203  -51.0898 H         1 UNK         0.0600 
    228 H228       -3.9396  -22.4099  -51.8601 H         1 UNK         0.0600 
    229 H229       -2.3359  -22.3037  -51.1349 H         1 UNK         0.0600 
    230 H230       -2.3628  -20.4433  -55.4391 H         1 UNK         0.3000 
    231 H231       -3.6318  -19.4083  -56.9984 H         1 UNK         0.0600 
    232 H232       -4.0201  -17.0050  -56.3578 H         1 UNK         0.0600 
    233 H233       -2.4531  -17.5908  -55.8367 H         1 UNK         0.0600 
    234 H234       -3.7473  -17.4187  -54.6624 H         1 UNK         0.0600 
    235 H235       -5.7360  -17.5947  -55.0469 H         1 UNK         0.3000 
    236 H236       -8.0106  -19.5127  -55.2292 H         1 UNK         0.0600 
    237 H237       -8.1191  -16.4867  -55.7353 H         1 UNK         0.0600 
    238 H238       -8.2740  -17.7292  -56.9768 H         1 UNK         0.0600 
    239 H239       -9.4952  -17.5847  -55.7246 H         1 UNK         0.0600 
    240 H240       -5.8777  -18.3861  -53.1324 H         1 UNK         0.3000 
    241 H241       -7.7503  -17.4346  -51.0399 H         1 UNK         0.0600 
    242 H242       -6.2621  -21.1603  -50.4385 H         1 UNK         0.3800 
    243 H243       -5.8189  -20.2920  -51.8957 H         1 UNK         0.3800 
    244 H244       -5.9892  -15.8858  -51.2260 H         1 UNK         0.0800 
    245 H245       -5.6667  -16.7814  -49.7770 H         1 UNK         0.0800 
    246 H246       -3.5769  -18.4444  -49.5007 H         1 UNK         0.0800 
    247 H247       -3.1058  -16.7648  -49.3391 H         1 UNK         0.0800 
@<TRIPOS>BOND
     1    1    2 1    
     2    1  127 1    
     3    1  128 1    
     4    1  129 1    
     5    2    3 2    
     6    2    4 am   BACKBONE|DICT|INTERRES
     7    4    5 1    
     8    4  130 1    
     9    5    6 1    
    10    5   65 1    
    11    5  131 1    
    12    6    7 1    
    13    6  132 1    
    14    6  133 1    
    15    7    8 1    
    16    8    9 1    
    17    8  134 1    
    18    8  135 1    
    19    9   10 ar   
    20    9   14 ar   
    21   10   11 ar   
    22   10  136 1    
    23   11   12 ar   
    24   11  126 1    
    25   12   13 ar   
    26   12  137 1    
    27   13   14 ar   
    28   13   15 1    
    29   14  138 1    
    30   15   16 1    
    31   15  139 1    
    32   15  140 1    
    33   16   17 1    
    34   17   18 1    
    35   17  141 1    
    36   17  142 1    
    37   18   19 1    
    38   18   67 1    
    39   18  143 1    
    40   19   20 am   BACKBONE|DICT|INTERRES
    41   19  144 1    
    42   20   21 2    
    43   20   22 1    
    44   22   23 1    
    45   22   24 1    
    46   22  145 1    
    47   23  146 1    
    48   23  147 1    
    49   23  148 1    
    50   24   25 am   BACKBONE|DICT|INTERRES
    51   24  149 1    
    52   25   26 2    
    53   25   27 1    
    54   27   28 1    
    55   27   29 1    
    56   27  150 1    
    57   28  151 1    
    58   28  152 1    
    59   28  153 1    
    60   29   30 am   BACKBONE|DICT|INTERRES
    61   29  154 1    
    62   30   31 2    
    63   30   32 1    
    64   32   33 1    
    65   32   34 1    
    66   32  155 1    
    67   33  156 1    
    68   33  157 1    
    69   33  158 1    
    70   34   35 am   BACKBONE|DICT|INTERRES
    71   34  159 1    
    72   35   36 2    
    73   35   37 1    
    74   37   38 1    
    75   37   39 1    
    76   37  160 1    
    77   38  161 1    
    78   38  162 1    
    79   38  163 1    
    80   39   40 am   BACKBONE|DICT|INTERRES
    81   39  164 1    
    82   40   41 2    
    83   40   42 1    
    84   42   43 1    
    85   42   44 1    
    86   42  165 1    
    87   43  166 1    
    88   43  167 1    
    89   43  168 1    
    90   44   45 am   BACKBONE|DICT|INTERRES
    91   44  169 1    
    92   45   46 2    
    93   45   47 1    
    94   47   48 1    
    95   47   49 1    
    96   47  170 1    
    97   48  171 1    
    98   48  172 1    
    99   48  173 1    
   100   49   50 am   BACKBONE|DICT|INTERRES
   101   49  174 1    
   102   50   51 2    
   103   50   52 1    
   104   52   53 1    
   105   52   54 1    
   106   52  175 1    
   107   53  176 1    
   108   53  177 1    
   109   53  178 1    
   110   54   55 am   BACKBONE|DICT|INTERRES
   111   54  179 1    
   112   55   56 2    
   113   55   57 1    
   114   57   58 1    
   115   57   59 1    
   116   57  180 1    
   117   58  181 1    
   118   58  182 1    
   119   58  183 1    
   120   59   60 am   BACKBONE|DICT|INTERRES
   121   59  184 1    
   122   60   61 2    
   123   60   62 1    
   124   62   63 1    
   125   62   64 1    
   126   62  185 1    
   127   63  186 1    
   128   63  187 1    
   129   63  188 1    
   130   64   65 am   BACKBONE|DICT|INTERRES
   131   64  189 1    
   132   65   66 2    
   133   67   68 2    
   134   67   69 am   BACKBONE|DICT|INTERRES
   135   69   70 1    
   136   69  190 1    
   137   70   71 1    
   138   70   72 1    
   139   70  191 1    
   140   71  192 1    
   141   71  193 1    
   142   71  194 1    
   143   72   73 2    
   144   72   74 am   BACKBONE|DICT|INTERRES
   145   74   75 1    
   146   74  195 1    
   147   75   76 1    
   148   75   77 1    
   149   75  196 1    
   150   76  197 1    
   151   76  198 1    
   152   76  199 1    
   153   77   78 2    
   154   77   79 am   BACKBONE|DICT|INTERRES
   155   79   80 1    
   156   79  200 1    
   157   80   81 1    
   158   80   82 1    
   159   80  201 1    
   160   81  202 1    
   161   81  203 1    
   162   81  204 1    
   163   82   83 2    
   164   82   84 am   BACKBONE|DICT|INTERRES
   165   84   85 1    
   166   84  205 1    
   167   85   86 1    
   168   85   87 1    
   169   85  206 1    
   170   86  207 1    
   171   86  208 1    
   172   86  209 1    
   173   87   88 2    
   174   87   89 am   BACKBONE|DICT|INTERRES
   175   89   90 1    
   176   89  210 1    
   177   90   91 1    
   178   90   92 1    
   179   90  211 1    
   180   91  212 1    
   181   91  213 1    
   182   91  214 1    
   183   92   93 2    
   184   92   94 am   BACKBONE|DICT|INTERRES
   185   94   95 1    
   186   94  215 1    
   187   95   96 1    
   188   95   97 1    
   189   95  216 1    
   190   96  217 1    
   191   96  218 1    
   192   96  219 1    
   193   97   98 2    
   194   97   99 am   BACKBONE|DICT|INTERRES
   195   99  100 1    
   196   99  220 1    
   197  100  101 1    
   198  100  102 1    
   199  100  221 1    
   200  101  222 1    
   201  101  223 1    
   202  101  224 1    
   203  102  103 2    
   204  102  104 am   BACKBONE|DICT|INTERRES
   205  104  105 1    
   206  104  225 1    
   207  105  106 1    
   208  105  107 1    
   209  105  226 1    
   210  106  227 1    
   211  106  228 1    
   212  106  229 1    
   213  107  108 2    
   214  107  109 am   BACKBONE|DICT|INTERRES
   215  109  110 1    
   216  109  230 1    
   217  110  111 1    
   218  110  112 1    
   219  110  231 1    
   220  111  232 1    
   221  111  233 1    
   222  111  234 1    
   223  112  113 2    
   224  112  114 am   BACKBONE|DICT|INTERRES
   225  114  115 1    
   226  114  235 1    
   227  115  116 1    
   228  115  117 1    
   229  115  236 1    
   230  116  237 1    
   231  116  238 1    
   232  116  239 1    
   233  117  118 2    
   234  117  119 am   BACKBONE|DICT|INTERRES
   235  119  120 1    
   236  119  240 1    
   237  120  121 1    
   238  120  124 1    
   239  120  241 1    
   240  121  122 am   BACKBONE|DICT|INTERRES
   241  121  123 2    
   242  122  242 1    
   243  122  243 1    
   244  124  125 1    
   245  124  244 1    
   246  124  245 1    
   247  125  126 1    
   248  126  246 1    
   249  126  247 1    
@<TRIPOS>SUBSTRUCTURE
     1 UNK         1 GROUP             0       ****    0 ROOT    
