@<TRIPOS>MOLECULE
3R540
247   249    1
SMALL
USER_CHARGES


@<TRIPOS>ATOM
      1 CA          7.5825  -12.4955  -47.2598 C.3       0 UNK        -0.1800 
      2 C           6.2146  -12.4017  -46.5992 C.2       0 UNK         0.5000 
      3 O           6.1025  -12.6049  -45.3912 O.2       0 UNK        -0.5000 
      4 N           5.1773  -12.0887  -47.3856 N.am      1 UNK        -0.5000 
      5 CA          3.7817  -11.9734  -46.9360 C.3       1 UNK         0.1400 
      6 C6          2.7737  -12.1830  -48.0948 C.3       23 UNK        -0.0398 
      7 S7          3.0582  -13.7221  -49.0340 S.3       23 UNK        -0.2404 
      8 C8          1.8265  -14.8402  -48.3018 C.3       23 UNK        -0.0205 
      9 C9          1.8316  -16.1792  -49.0221 C.ar      23 UNK        -0.0193 
     10 C10         1.0246  -16.3707  -50.1477 C.ar      23 UNK        -0.1150 
     11 C11         1.0185  -17.5973  -50.8193 C.ar      23 UNK        -0.0193 
     12 C12         1.8482  -18.6275  -50.3704 C.ar      23 UNK        -0.1150 
     13 C13         2.6662  -18.4475  -49.2513 C.ar      23 UNK        -0.0193 
     14 C14         2.6484  -17.2230  -48.5755 C.ar      23 UNK        -0.1150 
     15 C15         3.5855  -19.5706  -48.7919 C.3       23 UNK        -0.0205 
     16 S16         2.8270  -20.6080  -47.5035 S.3       23 UNK        -0.2404 
     17 C17         1.4289  -21.3501  -48.4114 C.3       23 UNK        -0.0398 
     18 CA          0.7627  -22.5032  -47.6273 C.3       11 UNK         0.1400 
     19 N           0.1178  -22.0436  -46.3952 N.am      11 UNK        -0.5000 
     20 C          -0.3990  -22.8417  -45.4517 C.2       10 UNK         0.5000 
     21 O          -0.3495  -24.0709  -45.4922 O.2       10 UNK        -0.5000 
     22 CA         -1.1427  -22.1502  -44.2957 C.3       10 UNK         0.1400 
     23 CB         -0.1575  -21.5750  -43.2669 C.3       10 UNK        -0.1800 
     24 N          -2.0394  -21.0949  -44.7705 N.am      10 UNK        -0.5000 
     25 C          -3.1447  -21.3152  -45.4964 C.2       9 UNK         0.5000 
     26 O          -3.5380  -22.4356  -45.8174 O.2       9 UNK        -0.5000 
     27 CA         -3.9272  -20.0786  -45.9712 C.3       9 UNK         0.1400 
     28 CB         -4.9105  -19.6053  -44.8913 C.3       9 UNK        -0.1800 
     29 N          -3.0489  -18.9730  -46.3471 N.am      9 UNK        -0.5000 
     30 C          -2.2651  -18.9710  -47.4346 C.2       8 UNK         0.5000 
     31 O          -2.2065  -19.9008  -48.2390 O.2       8 UNK        -0.5000 
     32 CA         -1.3568  -17.7412  -47.6163 C.3       8 UNK         0.1400 
     33 CB         -2.1681  -16.5580  -48.1658 C.3       8 UNK        -0.1800 
     34 N          -0.6909  -17.3257  -46.3793 N.am      8 UNK        -0.5000 
     35 C           0.0803  -18.1166  -45.6167 C.2       7 UNK         0.5000 
     36 O           0.3285  -19.2876  -45.8883 O.2       7 UNK        -0.5000 
     37 CA          0.6205  -17.5383  -44.2961 C.3       7 UNK         0.1400 
     38 CB          2.0655  -17.0529  -44.4795 C.3       7 UNK        -0.1800 
     39 N          -0.2026  -16.4569  -43.7525 N.am      7 UNK        -0.5000 
     40 C          -1.4856  -16.5892  -43.3760 C.2       6 UNK         0.5000 
     41 O          -2.0886  -17.6639  -43.3911 O.2       6 UNK        -0.5000 
     42 CA         -2.2413  -15.3112  -42.9551 C.3       6 UNK         0.1400 
     43 CB         -2.3479  -15.2322  -41.4249 C.3       6 UNK        -0.1800 
     44 N          -1.6429  -14.0697  -43.4527 N.am      6 UNK        -0.5000 
     45 C          -1.4759  -13.7425  -44.7425 C.2       5 UNK         0.5000 
     46 O          -1.8610  -14.4419  -45.6787 O.2       5 UNK        -0.5000 
     47 CA         -0.6922  -12.4487  -45.0359 C.3       5 UNK         0.1400 
     48 CB         -1.6529  -11.2839  -45.3142 C.3       5 UNK        -0.1800 
     49 N           0.2412  -12.0571  -43.9739 N.am      5 UNK        -0.5000 
     50 C           1.2888  -12.7835  -43.5558 C.2       4 UNK         0.5000 
     51 O           1.5326  -13.9156  -43.9736 O.2       4 UNK        -0.5000 
     52 CA          2.2069  -12.1312  -42.5071 C.3       4 UNK         0.1400 
     53 CB          3.6257  -12.7302  -42.5018 C.3       4 UNK        -0.1800 
     54 N           2.2836  -10.6879  -42.7266 N.am      4 UNK        -0.5000 
     55 C           2.4315   -9.7603  -41.7721 C.2       3 UNK         0.5000 
     56 O           2.4736  -10.0281  -40.5700 O.2       3 UNK        -0.5000 
     57 CA          2.5324   -8.2879  -42.2364 C.3       3 UNK         0.1400 
     58 CB          3.3489   -7.4079  -41.2662 C.3       3 UNK        -0.1800 
     59 N           3.0120   -8.1373  -43.6170 N.am      3 UNK        -0.5000 
     60 C           4.2101   -8.4926  -44.1038 C.2       2 UNK         0.5000 
     61 O           5.1340   -8.9455  -43.4255 O.2       2 UNK        -0.5000 
     62 CA          4.3774   -8.3687  -45.6303 C.3       2 UNK         0.1400 
     63 CB          5.6384   -7.5677  -45.9928 C.3       2 UNK        -0.1800 
     64 N           4.4444   -9.6828  -46.2712 N.am      2 UNK        -0.5000 
     65 C           3.4964  -10.6313  -46.2228 C.2       1 UNK         0.5000 
     66 O           2.4149  -10.4725  -45.6553 O.2       1 UNK        -0.5000 
     67 C          -0.2232  -23.2745  -48.5255 C.2       11 UNK         0.5000 
     68 O           0.1398  -24.3294  -49.0463 O.2       11 UNK        -0.5000 
     69 N          -1.4603  -22.7706  -48.6524 N.am      12 UNK        -0.5000 
     70 CA         -2.5459  -23.4384  -49.3688 C.3       12 UNK         0.1400 
     71 CB         -3.7670  -22.5168  -49.4479 C.3       12 UNK        -0.1800 
     72 C          -2.9234  -24.7892  -48.7391 C.2       12 UNK         0.5000 
     73 O          -3.0270  -25.7787  -49.4616 O.2       12 UNK        -0.5000 
     74 N          -3.0678  -24.8233  -47.4064 N.am      13 UNK        -0.5000 
     75 CA         -3.3467  -26.0358  -46.6354 C.3       13 UNK         0.1400 
     76 CB         -3.6003  -25.6725  -45.1649 C.3       13 UNK        -0.1800 
     77 C          -2.2338  -27.0927  -46.7563 C.2       13 UNK         0.5000 
     78 O          -2.5409  -28.2715  -46.9348 O.2       13 UNK        -0.5000 
     79 N          -0.9682  -26.6519  -46.7092 N.am      14 UNK        -0.5000 
     80 CA          0.2154  -27.4921  -46.9094 C.3       14 UNK         0.1400 
     81 CB          1.4786  -26.6860  -46.5718 C.3       14 UNK        -0.1800 
     82 C           0.3058  -28.0785  -48.3322 C.2       14 UNK         0.5000 
     83 O           0.7079  -29.2317  -48.4900 O.2       14 UNK        -0.5000 
     84 N          -0.0985  -27.2886  -49.3358 N.am      15 UNK        -0.5000 
     85 CA         -0.1910  -27.6944  -50.7401 C.3       15 UNK         0.1400 
     86 CB         -0.1978  -26.4310  -51.6164 C.3       15 UNK        -0.1800 
     87 C          -1.4249  -28.5681  -51.0530 C.2       15 UNK         0.5000 
     88 O          -1.4903  -29.1345  -52.1448 O.2       15 UNK        -0.5000 
     89 N          -2.3802  -28.6421  -50.1132 N.am      16 UNK        -0.5000 
     90 CA         -3.7068  -29.2591  -50.2264 C.3       16 UNK         0.1400 
     91 CB         -3.5976  -30.7887  -50.3968 C.3       16 UNK        -0.1800 
     92 C          -4.5758  -28.5789  -51.3077 C.2       16 UNK         0.5000 
     93 O          -5.2821  -29.2531  -52.0603 O.2       16 UNK        -0.5000 
     94 N          -4.4882  -27.2466  -51.3648 N.am      17 UNK        -0.5000 
     95 CA         -5.1766  -26.3674  -52.3022 C.3       17 UNK         0.1400 
     96 CB         -4.1063  -25.5619  -53.0573 C.3       17 UNK        -0.1800 
     97 C          -6.1287  -25.4243  -51.5466 C.2       17 UNK         0.5000 
     98 O          -6.0953  -25.3527  -50.3154 O.2       17 UNK        -0.5000 
     99 N          -6.9623  -24.7018  -52.3041 N.am      18 UNK        -0.5000 
    100 CA        -7.8447  -23.6584  -51.7852 C.3       18 UNK         0.1400 
    101 CB        -8.9090  -23.3286  -52.8432 C.3       18 UNK        -0.1800 
    102 C         -7.0471  -22.3936  -51.4268 C.2       18 UNK         0.5000 
    103 O         -6.1400  -22.0138  -52.1731 O.2       18 UNK        -0.5000 
    104 N         -7.4279  -21.7340  -50.3250 N.am      19 UNK        -0.5000 
    105 CA        -6.8247  -20.4800  -49.8609 C.3       19 UNK         0.1400 
    106 CB        -7.2935  -20.1827  -48.4290 C.3       19 UNK        -0.1800 
    107 C         -7.1115  -19.2895  -50.7948 C.2       19 UNK         0.5000 
    108 O         -6.2821  -18.3866  -50.8921 O.2       19 UNK        -0.5000 
    109 N         -8.2496  -19.3340  -51.5030 N.am      20 UNK        -0.5000 
    110 CA        -8.6303  -18.3655  -52.5349 C.3       20 UNK         0.1400 
    111 CB       -10.1046  -18.5827  -52.9079 C.3       20 UNK        -0.1800 
    112 C         -7.7380  -18.4464  -53.7899 C.2       20 UNK         0.5000 
    113 O         -7.4941  -17.4231  -54.4297 O.2       20 UNK        -0.5000 
    114 N         -7.2521  -19.6558  -54.1027 N.am      21 UNK        -0.5000 
    115 CA        -6.2861  -19.9182  -55.1719 C.3       21 UNK         0.1400 
    116 CB        -6.5056  -21.3495  -55.6887 C.3       21 UNK        -0.1800 
    117 C         -4.8285  -19.7379  -54.7012 C.2       21 UNK         0.5000 
    118 O         -3.9268  -19.6744  -55.5374 O.2       21 UNK        -0.5000 
    119 N         -4.6267  -19.6737  -53.3788 N.am      22 UNK        -0.5000 
    120 CA        -3.3315  -19.6732  -52.6866 C.3       22 UNK         0.1400 
    121 C         -2.5698  -21.0283  -52.8070 C.2       22 UNK         0.5000 
    122 N         -3.2772  -22.1499  -52.8824 N.am      22 UNK        -0.7600 
    123 O         -1.3433  -21.0769  -52.8318 O.2       22 UNK        -0.5000 
    124 C124       -2.4753  -18.4161  -53.0160 C.3       23 UNK        -0.0398 
    125 S125       -1.6347  -17.7787  -51.5311 S.3       23 UNK        -0.2404 
    126 C126        0.1135  -17.8136  -52.0233 C.3       23 UNK        -0.0205 
    127 H127        8.2670  -11.7768  -46.8092 H         1 UNK         0.0600 
    128 H128        7.5313  -12.2922  -48.3298 H         1 UNK         0.0600 
    129 H129        7.9967  -13.4944  -47.1235 H         1 UNK         0.0600 
    130 H130        5.3279  -11.9537  -48.3756 H         1 UNK         0.3000 
    131 H131        3.5975  -12.7592  -46.1997 H         1 UNK         0.0600 
    132 H132        1.7495  -12.1806  -47.7175 H         1 UNK         0.0800 
    133 H133        2.8335  -11.3541  -48.8026 H         1 UNK         0.0800 
    134 H134        0.8345  -14.3896  -48.3624 H         1 UNK         0.0800 
    135 H135        2.0419  -14.9761  -47.2413 H         1 UNK         0.0800 
    136 H136        0.3895  -15.5684  -50.4962 H         1 UNK         0.1150 
    137 H137        1.8551  -19.5747  -50.8913 H         1 UNK         0.1150 
    138 H138        3.2789  -17.0792  -47.7093 H         1 UNK         0.1150 
    139 H139        3.8748  -20.1959  -49.6379 H         1 UNK         0.0800 
    140 H140        4.5114  -19.1472  -48.3998 H         1 UNK         0.0800 
    141 H141        1.8046  -21.7074  -49.3721 H         1 UNK         0.0800 
    142 H142        0.6967  -20.5703  -48.6300 H         1 UNK         0.0800 
    143 H143        1.5448  -23.2086  -47.3383 H         1 UNK         0.0600 
    144 H144        0.0859  -21.0342  -46.2571 H         1 UNK         0.3000 
    145 H145       -1.7511  -22.9048  -43.7927 H         1 UNK         0.0600 
    146 H146       -0.6830  -21.0994  -42.4387 H         1 UNK         0.0600 
    147 H147        0.4666  -22.3644  -42.8464 H         1 UNK         0.0600 
    148 H148        0.5093  -20.8360  -43.7105 H         1 UNK         0.0600 
    149 H149       -1.7684  -20.1410  -44.5784 H         1 UNK         0.3000 
    150 H150       -4.5050  -20.3684  -46.8513 H         1 UNK         0.0600 
    151 H151       -5.5915  -20.4081  -44.6058 H         1 UNK         0.0600 
    152 H152       -5.5196  -18.7754  -45.2498 H         1 UNK         0.0600 
    153 H153       -4.3920  -19.2770  -43.9895 H         1 UNK         0.0600 
    154 H154       -2.9938  -18.1941  -45.7058 H         1 UNK         0.3000 
    155 H155       -0.5847  -18.0068  -48.3402 H         1 UNK         0.0600 
    156 H156       -2.8909  -16.1928  -47.4358 H         1 UNK         0.0600 
    157 H157       -1.5182  -15.7272  -48.4400 H         1 UNK         0.0600 
    158 H158       -2.7314  -16.8412  -49.0543 H         1 UNK         0.0600 
    159 H159       -0.8780  -16.3809  -46.0662 H         1 UNK         0.3000 
    160 H160        0.6254  -18.3465  -43.5623 H         1 UNK         0.0600 
    161 H161        2.1280  -16.2456  -45.2089 H         1 UNK         0.0600 
    162 H162        2.7064  -17.8620  -44.8328 H         1 UNK         0.0600 
    163 H163        2.4843  -16.6901  -43.5408 H         1 UNK         0.0600 
    164 H164        0.2266  -15.5381  -43.7296 H         1 UNK         0.3000 
    165 H165       -3.2497  -15.3815  -43.3676 H         1 UNK         0.0600 
    166 H166       -2.9547  -14.3815  -41.1142 H         1 UNK         0.0600 
    167 H167       -2.8173  -16.1293  -41.0187 H         1 UNK         0.0600 
    168 H168       -1.3668  -15.1350  -40.9583 H         1 UNK         0.0600 
    169 H169       -1.2838  -13.4332  -42.7568 H         1 UNK         0.3000 
    170 H170       -0.1036  -12.6274  -45.9380 H         1 UNK         0.0600 
    171 H171       -2.3455  -11.5322  -46.1196 H         1 UNK         0.0600 
    172 H172       -2.2472  -11.0336  -44.4346 H         1 UNK         0.0600 
    173 H173       -1.1088  -10.3898  -45.6196 H         1 UNK         0.0600 
    174 H174        0.1098  -11.1384  -43.5769 H         1 UNK         0.3000 
    175 H175        1.7454  -12.3282  -41.5376 H         1 UNK         0.0600 
    176 H176        4.1217  -12.5828  -43.4616 H         1 UNK         0.0600 
    177 H177        4.2462  -12.2715  -41.7320 H         1 UNK         0.0600 
    178 H178        3.6025  -13.8022  -42.3023 H         1 UNK         0.0600 
    179 H179        2.2659  -10.3977  -43.7013 H         1 UNK         0.3000 
    180 H180        1.5096   -7.9087  -42.2335 H         1 UNK         0.0600 
    181 H181        4.3684   -7.7746  -41.1444 H         1 UNK         0.0600 
    182 H182        2.8909   -7.3874  -40.2767 H         1 UNK         0.0600 
    183 H183        3.4022   -6.3775  -41.6176 H         1 UNK         0.0600 
    184 H184        2.3182   -7.8077  -44.2742 H         1 UNK         0.3000 
    185 H185        3.5141   -7.8409  -46.0408 H         1 UNK         0.0600 
    186 H186        5.6192   -6.5805  -45.5295 H         1 UNK         0.0600 
    187 H187        6.5467   -8.0702  -45.6575 H         1 UNK         0.0600 
    188 H188        5.7157   -7.4192  -47.0700 H         1 UNK         0.0600 
    189 H189        5.3095   -9.9103  -46.7381 H         1 UNK         0.3000 
    190 H190       -1.6777  -21.8708  -48.2362 H         1 UNK         0.3000 
    191 H191       -2.2018  -23.6292  -50.3873 H         1 UNK         0.0600 
    192 H192       -4.1598  -22.2723  -48.4615 H         1 UNK         0.0600 
    193 H193       -4.5679  -22.9937  -50.0113 H         1 UNK         0.0600 
    194 H194       -3.5224  -21.5837  -49.9535 H         1 UNK         0.0600 
    195 H195       -3.0083  -23.9557  -46.8804 H         1 UNK         0.3000 
    196 H196       -4.2623  -26.4749  -47.0372 H         1 UNK         0.0600 
    197 H197       -3.8213  -26.5625  -44.5745 H         1 UNK         0.0600 
    198 H198       -4.4516  -24.9985  -45.0677 H         1 UNK         0.0600 
    199 H199       -2.7355  -25.1850  -44.7145 H         1 UNK         0.0600 
    200 H200       -0.8006  -25.6701  -46.5060 H         1 UNK         0.3000 
    201 H201        0.1506  -28.3289  -46.2110 H         1 UNK         0.0600 
    202 H202        1.4562  -26.3319  -45.5410 H         1 UNK         0.0600 
    203 H203        1.5871  -25.8169  -47.2209 H         1 UNK         0.0600 
    204 H204        2.3748  -27.2968  -46.6871 H         1 UNK         0.0600 
    205 H205       -0.3574  -26.3296  -49.1269 H         1 UNK         0.3000 
    206 H206        0.6959  -28.2788  -50.9929 H         1 UNK         0.0600 
    207 H207        0.6972  -25.8311  -51.4509 H         1 UNK         0.0600 
    208 H208       -0.2260  -26.6867  -52.6763 H         1 UNK         0.0600 
    209 H209       -1.0642  -25.8026  -51.4080 H         1 UNK         0.0600 
    210 H210       -2.2273  -28.1132  -49.2643 H         1 UNK         0.3000 
    211 H211       -4.2070  -29.0708  -49.2754 H         1 UNK         0.0600 
    212 H212       -3.1639  -31.0622  -51.3588 H         1 UNK         0.0600 
    213 H213       -4.5803  -31.2577  -50.3376 H         1 UNK         0.0600 
    214 H214       -2.9811  -31.2284  -49.6128 H         1 UNK         0.0600 
    215 H215       -3.9381  -26.7650  -50.6536 H         1 UNK         0.3000 
    216 H216       -5.7640  -26.9456  -53.0181 H         1 UNK         0.0600 
    217 H217       -4.5533  -24.8762  -53.7779 H         1 UNK         0.0600 
    218 H218       -3.4371  -26.2220  -53.6097 H         1 UNK         0.0600 
    219 H219       -3.4976  -24.9737  -52.3699 H         1 UNK         0.0600 
    220 H220       -6.9127  -24.7869  -53.3085 H         1 UNK         0.3000 
    221 H221       -8.3465  -24.0331  -50.8904 H         1 UNK         0.0600 
    222 H222       -8.4618  -22.9573  -53.7661 H         1 UNK         0.0600 
    223 H223       -9.5031  -24.2085  -53.0906 H         1 UNK         0.0600 
    224 H224       -9.5986  -22.5646  -52.4820 H         1 UNK         0.0600 
    225 H225       -8.1792  -22.1072  -49.7625 H         1 UNK         0.3000 
    226 H226       -5.7423  -20.6103  -49.8383 H         1 UNK         0.0600 
    227 H227       -7.0146  -20.9876  -47.7485 H         1 UNK         0.0600 
    228 H228       -6.8359  -19.2674  -48.0506 H         1 UNK         0.0600 
    229 H229       -8.3755  -20.0560  -48.3767 H         1 UNK         0.0600 
    230 H230       -8.8819  -20.1049  -51.3473 H         1 UNK         0.3000 
    231 H231       -8.5261  -17.3620  -52.1168 H         1 UNK         0.0600 
    232 H232      -10.4270  -17.8616  -53.6603 H         1 UNK         0.0600 
    233 H233      -10.7536  -18.4574  -52.0409 H         1 UNK         0.0600 
    234 H234      -10.2754  -19.5802  -53.3149 H         1 UNK         0.0600 
    235 H235       -7.4858  -20.4401  -53.5118 H         1 UNK         0.3000 
    236 H236       -6.4583  -19.2258  -55.9986 H         1 UNK         0.0600 
    237 H237       -7.5277  -21.4907  -56.0403 H         1 UNK         0.0600 
    238 H238       -5.8415  -21.5677  -56.5260 H         1 UNK         0.0600 
    239 H239       -6.3096  -22.0929  -54.9152 H         1 UNK         0.0600 
    240 H240       -5.4345  -19.7538  -52.7792 H         1 UNK         0.3000 
    241 H241       -3.6097  -19.6187  -51.6332 H         1 UNK         0.0600 
    242 H242       -4.2895  -22.1248  -52.8044 H         1 UNK         0.3800 
    243 H243       -2.7945  -23.0248  -52.9905 H         1 UNK         0.3800 
    244 H244       -1.7651  -18.6103  -53.8212 H         1 UNK         0.0800 
    245 H245       -3.1125  -17.6073  -53.3761 H         1 UNK         0.0800 
    246 H246        0.3339  -18.7695  -52.5014 H         1 UNK         0.0800 
    247 H247        0.2994  -17.0381  -52.7675 H         1 UNK         0.0800 
@<TRIPOS>BOND
     1    1    2 1    
     2    1  127 1    
     3    1  128 1    
     4    1  129 1    
     5    2    3 2    
     6    2    4 am   BACKBONE|DICT|INTERRES
     7    4    5 1    
     8    4  130 1    
     9    5    6 1    
    10    5   65 1    
    11    5  131 1    
    12    6    7 1    
    13    6  132 1    
    14    6  133 1    
    15    7    8 1    
    16    8    9 1    
    17    8  134 1    
    18    8  135 1    
    19    9   10 ar   
    20    9   14 ar   
    21   10   11 ar   
    22   10  136 1    
    23   11   12 ar   
    24   11  126 1    
    25   12   13 ar   
    26   12  137 1    
    27   13   14 ar   
    28   13   15 1    
    29   14  138 1    
    30   15   16 1    
    31   15  139 1    
    32   15  140 1    
    33   16   17 1    
    34   17   18 1    
    35   17  141 1    
    36   17  142 1    
    37   18   19 1    
    38   18   67 1    
    39   18  143 1    
    40   19   20 am   BACKBONE|DICT|INTERRES
    41   19  144 1    
    42   20   21 2    
    43   20   22 1    
    44   22   23 1    
    45   22   24 1    
    46   22  145 1    
    47   23  146 1    
    48   23  147 1    
    49   23  148 1    
    50   24   25 am   BACKBONE|DICT|INTERRES
    51   24  149 1    
    52   25   26 2    
    53   25   27 1    
    54   27   28 1    
    55   27   29 1    
    56   27  150 1    
    57   28  151 1    
    58   28  152 1    
    59   28  153 1    
    60   29   30 am   BACKBONE|DICT|INTERRES
    61   29  154 1    
    62   30   31 2    
    63   30   32 1    
    64   32   33 1    
    65   32   34 1    
    66   32  155 1    
    67   33  156 1    
    68   33  157 1    
    69   33  158 1    
    70   34   35 am   BACKBONE|DICT|INTERRES
    71   34  159 1    
    72   35   36 2    
    73   35   37 1    
    74   37   38 1    
    75   37   39 1    
    76   37  160 1    
    77   38  161 1    
    78   38  162 1    
    79   38  163 1    
    80   39   40 am   BACKBONE|DICT|INTERRES
    81   39  164 1    
    82   40   41 2    
    83   40   42 1    
    84   42   43 1    
    85   42   44 1    
    86   42  165 1    
    87   43  166 1    
    88   43  167 1    
    89   43  168 1    
    90   44   45 am   BACKBONE|DICT|INTERRES
    91   44  169 1    
    92   45   46 2    
    93   45   47 1    
    94   47   48 1    
    95   47   49 1    
    96   47  170 1    
    97   48  171 1    
    98   48  172 1    
    99   48  173 1    
   100   49   50 am   BACKBONE|DICT|INTERRES
   101   49  174 1    
   102   50   51 2    
   103   50   52 1    
   104   52   53 1    
   105   52   54 1    
   106   52  175 1    
   107   53  176 1    
   108   53  177 1    
   109   53  178 1    
   110   54   55 am   BACKBONE|DICT|INTERRES
   111   54  179 1    
   112   55   56 2    
   113   55   57 1    
   114   57   58 1    
   115   57   59 1    
   116   57  180 1    
   117   58  181 1    
   118   58  182 1    
   119   58  183 1    
   120   59   60 am   BACKBONE|DICT|INTERRES
   121   59  184 1    
   122   60   61 2    
   123   60   62 1    
   124   62   63 1    
   125   62   64 1    
   126   62  185 1    
   127   63  186 1    
   128   63  187 1    
   129   63  188 1    
   130   64   65 am   BACKBONE|DICT|INTERRES
   131   64  189 1    
   132   65   66 2    
   133   67   68 2    
   134   67   69 am   BACKBONE|DICT|INTERRES
   135   69   70 1    
   136   69  190 1    
   137   70   71 1    
   138   70   72 1    
   139   70  191 1    
   140   71  192 1    
   141   71  193 1    
   142   71  194 1    
   143   72   73 2    
   144   72   74 am   BACKBONE|DICT|INTERRES
   145   74   75 1    
   146   74  195 1    
   147   75   76 1    
   148   75   77 1    
   149   75  196 1    
   150   76  197 1    
   151   76  198 1    
   152   76  199 1    
   153   77   78 2    
   154   77   79 am   BACKBONE|DICT|INTERRES
   155   79   80 1    
   156   79  200 1    
   157   80   81 1    
   158   80   82 1    
   159   80  201 1    
   160   81  202 1    
   161   81  203 1    
   162   81  204 1    
   163   82   83 2    
   164   82   84 am   BACKBONE|DICT|INTERRES
   165   84   85 1    
   166   84  205 1    
   167   85   86 1    
   168   85   87 1    
   169   85  206 1    
   170   86  207 1    
   171   86  208 1    
   172   86  209 1    
   173   87   88 2    
   174   87   89 am   BACKBONE|DICT|INTERRES
   175   89   90 1    
   176   89  210 1    
   177   90   91 1    
   178   90   92 1    
   179   90  211 1    
   180   91  212 1    
   181   91  213 1    
   182   91  214 1    
   183   92   93 2    
   184   92   94 am   BACKBONE|DICT|INTERRES
   185   94   95 1    
   186   94  215 1    
   187   95   96 1    
   188   95   97 1    
   189   95  216 1    
   190   96  217 1    
   191   96  218 1    
   192   96  219 1    
   193   97   98 2    
   194   97   99 am   BACKBONE|DICT|INTERRES
   195   99  100 1    
   196   99  220 1    
   197  100  101 1    
   198  100  102 1    
   199  100  221 1    
   200  101  222 1    
   201  101  223 1    
   202  101  224 1    
   203  102  103 2    
   204  102  104 am   BACKBONE|DICT|INTERRES
   205  104  105 1    
   206  104  225 1    
   207  105  106 1    
   208  105  107 1    
   209  105  226 1    
   210  106  227 1    
   211  106  228 1    
   212  106  229 1    
   213  107  108 2    
   214  107  109 am   BACKBONE|DICT|INTERRES
   215  109  110 1    
   216  109  230 1    
   217  110  111 1    
   218  110  112 1    
   219  110  231 1    
   220  111  232 1    
   221  111  233 1    
   222  111  234 1    
   223  112  113 2    
   224  112  114 am   BACKBONE|DICT|INTERRES
   225  114  115 1    
   226  114  235 1    
   227  115  116 1    
   228  115  117 1    
   229  115  236 1    
   230  116  237 1    
   231  116  238 1    
   232  116  239 1    
   233  117  118 2    
   234  117  119 am   BACKBONE|DICT|INTERRES
   235  119  120 1    
   236  119  240 1    
   237  120  121 1    
   238  120  124 1    
   239  120  241 1    
   240  121  122 am   BACKBONE|DICT|INTERRES
   241  121  123 2    
   242  122  242 1    
   243  122  243 1    
   244  124  125 1    
   245  124  244 1    
   246  124  245 1    
   247  125  126 1    
   248  126  246 1    
   249  126  247 1    
@<TRIPOS>SUBSTRUCTURE
     1 UNK         1 GROUP             0       ****    0 ROOT    
