@<TRIPOS>MOLECULE
3R540
247   249    1
SMALL
USER_CHARGES


@<TRIPOS>ATOM
      1 CA         -4.8901  -16.0559  -51.2464 C.3       0 UNK        -0.1800 
      2 C          -4.2292  -14.9474  -50.4416 C.2       0 UNK         0.5000 
      3 O          -4.5641  -13.7766  -50.6254 O.2       0 UNK        -0.5000 
      4 N          -3.2874  -15.3089  -49.5625 N.am      1 UNK        -0.5000 
      5 CA         -2.5878  -14.3773  -48.6656 C.3       1 UNK         0.1400 
      6 C6         -1.1927  -14.8893  -48.1965 C.3       23 UNK        -0.0398 
      7 S7         -0.2428  -15.8397  -49.4334 S.3       23 UNK        -0.2404 
      8 C8         -0.4120  -17.4740  -48.6584 C.3       23 UNK        -0.0205 
      9 C9         -0.0096  -18.6224  -49.5662 C.ar      23 UNK        -0.0193 
     10 C10        -0.7306  -18.8770  -50.7336 C.ar      23 UNK        -0.1150 
     11 C11        -0.4339  -19.9861  -51.5284 C.ar      23 UNK        -0.0193 
     12 C12         0.5858  -20.8552  -51.1311 C.ar      23 UNK        -0.1150 
     13 C13         1.2949  -20.6359  -49.9464 C.ar      23 UNK        -0.0193 
     14 C14         1.0140  -19.4928  -49.1873 C.ar      23 UNK        -0.1150 
     15 C15         2.3384  -21.6658  -49.5152 C.3       23 UNK        -0.0205 
     16 S16         2.6180  -21.7804  -47.7141 S.3       23 UNK        -0.2404 
     17 C17         0.9521  -22.1582  -47.0594 C.3       23 UNK        -0.0398 
     18 CA          0.9993  -23.1966  -45.9132 C.3       11 UNK         0.1400 
     19 N           1.8798  -22.7662  -44.8243 N.am      11 UNK        -0.5000 
     20 C           2.5468  -23.5797  -43.9978 C.2       10 UNK         0.5000 
     21 O           2.5157  -24.8088  -44.0797 O.2       10 UNK        -0.5000 
     22 CA          3.3689  -22.8970  -42.8838 C.3       10 UNK         0.1400 
     23 CB          4.5706  -23.7422  -42.4126 C.3       10 UNK        -0.1800 
     24 N           3.7804  -21.5297  -43.2230 N.am      10 UNK        -0.5000 
     25 C           4.6166  -21.1358  -44.1973 C.2       9 UNK         0.5000 
     26 O           5.2244  -21.9115  -44.9355 O.2       9 UNK        -0.5000 
     27 CA          4.7991  -19.6158  -44.3966 C.3       9 UNK         0.1400 
     28 CB          4.1248  -19.1588  -45.6994 C.3       9 UNK        -0.1800 
     29 N           4.2672  -18.8164  -43.2917 N.am      9 UNK        -0.5000 
     30 C           4.8442  -18.6949  -42.0892 C.2       8 UNK         0.5000 
     31 O           5.9334  -19.1909  -41.7990 O.2       8 UNK        -0.5000 
     32 CA          4.0515  -17.9216  -41.0198 C.3       8 UNK         0.1400 
     33 CB          4.3208  -16.4140  -41.1373 C.3       8 UNK        -0.1800 
     34 N           2.6070  -18.1724  -41.0720 N.am      8 UNK        -0.5000 
     35 C           2.0295  -19.3630  -40.8491 C.2       7 UNK         0.5000 
     36 O           2.6588  -20.3881  -40.5899 O.2       7 UNK        -0.5000 
     37 CA          0.4973  -19.4359  -40.9665 C.3       7 UNK         0.1400 
     38 CB         -0.1777  -18.8333  -39.7254 C.3       7 UNK        -0.1800 
     39 N           0.0011  -18.7718  -42.1690 N.am      7 UNK        -0.5000 
     40 C           0.1897  -19.2172  -43.4188 C.2       6 UNK         0.5000 
     41 O           0.7421  -20.2848  -43.6954 O.2       6 UNK        -0.5000 
     42 CA         -0.3063  -18.3030  -44.5540 C.3       6 UNK         0.1400 
     43 CB         -1.8097  -18.5030  -44.7831 C.3       6 UNK        -0.1800 
     44 N          -0.0424  -16.8844  -44.3076 N.am      6 UNK        -0.5000 
     45 C           1.1752  -16.3482  -44.1437 C.2       5 UNK         0.5000 
     46 O           2.2234  -16.9863  -44.2265 O.2       5 UNK        -0.5000 
     47 CA          1.2250  -14.8594  -43.7643 C.3       5 UNK         0.1400 
     48 CB          1.0326  -13.9652  -44.9989 C.3       5 UNK        -0.1800 
     49 N           0.2293  -14.5235  -42.7461 N.am      5 UNK        -0.5000 
     50 C           0.2823  -14.9375  -41.4719 C.2       4 UNK         0.5000 
     51 O           1.1889  -15.6324  -41.0160 O.2       4 UNK        -0.5000 
     52 CA         -0.8965  -14.5435  -40.5641 C.3       4 UNK         0.1400 
     53 CB         -0.7123  -13.1176  -40.0238 C.3       4 UNK        -0.1800 
     54 N          -2.1866  -14.6421  -41.2460 N.am      4 UNK        -0.5000 
     55 C          -2.7316  -15.7902  -41.6720 C.2       3 UNK         0.5000 
     56 O          -2.2204  -16.8964  -41.4999 O.2       3 UNK        -0.5000 
     57 CA         -4.0426  -15.6728  -42.4722 C.3       3 UNK         0.1400 
     58 CB         -5.2521  -15.6455  -41.5261 C.3       3 UNK        -0.1800 
     59 N          -4.0875  -14.5020  -43.3559 N.am      3 UNK        -0.5000 
     60 C          -3.2239  -14.2731  -44.3536 C.2       2 UNK         0.5000 
     61 O          -2.2552  -14.9986  -44.5967 O.2       2 UNK        -0.5000 
     62 CA         -3.4519  -12.9993  -45.1927 C.3       2 UNK         0.1400 
     63 CB         -2.7287  -11.8070  -44.5476 C.3       2 UNK        -0.1800 
     64 N          -2.9516  -13.1718  -46.5579 N.am      2 UNK        -0.5000 
     65 C          -3.4655  -14.0450  -47.4351 C.2       1 UNK         0.5000 
     66 O          -4.5450  -14.6183  -47.2579 O.2       1 UNK        -0.5000 
     67 C          -0.4098  -23.5052  -45.3634 C.2       11 UNK         0.5000 
     68 O          -1.0764  -24.4081  -45.8714 O.2       11 UNK        -0.5000 
     69 N          -0.8046  -22.7867  -44.2980 N.am      12 UNK        -0.5000 
     70 CA         -2.0010  -22.9863  -43.4771 C.3       12 UNK         0.1400 
     71 CB         -1.8405  -24.2587  -42.6157 C.3       12 UNK        -0.1800 
     72 C          -3.3033  -22.9448  -44.3030 C.2       12 UNK         0.5000 
     73 O          -3.6588  -21.8782  -44.8018 O.2       12 UNK        -0.5000 
     74 N          -3.9986  -24.0838  -44.4225 N.am      13 UNK        -0.5000 
     75 CA         -5.2421  -24.2201  -45.1824 C.3       13 UNK         0.1400 
     76 CB         -5.9539  -25.5113  -44.7515 C.3       13 UNK        -0.1800 
     77 C          -5.0242  -24.2098  -46.7073 C.2       13 UNK         0.5000 
     78 O          -5.8984  -23.7476  -47.4417 O.2       13 UNK        -0.5000 
     79 N          -3.8610  -24.6909  -47.1653 N.am      14 UNK        -0.5000 
     80 CA         -3.4710  -24.7533  -48.5748 C.3       14 UNK         0.1400 
     81 CB         -2.5719  -25.9849  -48.7864 C.3       14 UNK        -0.1800 
     82 C          -2.7928  -23.4378  -49.0006 C.2       14 UNK         0.5000 
     83 O          -1.6559  -23.4517  -49.4738 O.2       14 UNK        -0.5000 
     84 N          -3.4933  -22.3210  -48.7704 N.am      15 UNK        -0.5000 
     85 CA         -2.9573  -20.9663  -48.8926 C.3       15 UNK         0.1400 
     86 CB         -2.4523  -20.5338  -47.5088 C.3       15 UNK        -0.1800 
     87 C          -3.9869  -19.9600  -49.4440 C.2       15 UNK         0.5000 
     88 O          -3.7105  -18.7594  -49.4526 O.2       15 UNK        -0.5000 
     89 N          -5.1666  -20.4436  -49.8559 N.am      16 UNK        -0.5000 
     90 CA         -6.3107  -19.6094  -50.2318 C.3       16 UNK         0.1400 
     91 CB         -7.5874  -20.2769  -49.6957 C.3       16 UNK        -0.1800 
     92 C          -6.4385  -19.3742  -51.7483 C.2       16 UNK         0.5000 
     93 O          -7.1964  -18.4912  -52.1534 O.2       16 UNK        -0.5000 
     94 N          -5.7405  -20.1689  -52.5699 N.am      17 UNK        -0.5000 
     95 CA         -5.8936  -20.1777  -54.0242 C.3       17 UNK         0.1400 
     96 CB         -5.5839  -21.5839  -54.5604 C.3       17 UNK        -0.1800 
     97 C          -5.0518  -19.0754  -54.6940 C.2       17 UNK         0.5000 
     98 O          -3.9548  -19.3347  -55.1957 O.2       17 UNK        -0.5000 
     99 N          -5.5874  -17.8472  -54.6744 N.am      18 UNK        -0.5000 
    100 CA        -5.1598  -16.6666  -55.4432 C.3       18 UNK         0.1400 
    101 CB        -5.4028  -16.9148  -56.9470 C.3       18 UNK        -0.1800 
    102 C         -3.7182  -16.1756  -55.1804 C.2       18 UNK         0.5000 
    103 O         -3.2054  -15.3667  -55.9546 O.2       18 UNK        -0.5000 
    104 N         -3.0905  -16.6789  -54.1084 N.am      19 UNK        -0.5000 
    105 CA        -1.6959  -16.4622  -53.7104 C.3       19 UNK         0.1400 
    106 CB        -1.4382  -14.9822  -53.3571 C.3       19 UNK        -0.1800 
    107 C         -0.6686  -17.0306  -54.7169 C.2       19 UNK         0.5000 
    108 O          0.4808  -16.5864  -54.7160 O.2       19 UNK        -0.5000 
    109 N         -1.0803  -18.0006  -55.5509 N.am      20 UNK        -0.5000 
    110 CA        -0.2389  -18.5652  -56.6115 C.3       20 UNK         0.1400 
    111 CB        -0.1418  -17.5719  -57.7868 C.3       20 UNK        -0.1800 
    112 C         -0.7009  -19.9382  -57.1305 C.2       20 UNK         0.5000 
    113 O          0.1296  -20.6739  -57.6648 O.2       20 UNK        -0.5000 
    114 N         -1.9922  -20.2713  -57.0014 N.am      21 UNK        -0.5000 
    115 CA        -2.6035  -21.4536  -57.6190 C.3       21 UNK         0.1400 
    116 CB        -3.9797  -21.0541  -58.1808 C.3       21 UNK        -0.1800 
    117 C         -2.6990  -22.6625  -56.6654 C.2       21 UNK         0.5000 
    118 O         -3.3479  -23.6517  -57.0086 O.2       21 UNK        -0.5000 
    119 N         -2.0631  -22.5719  -55.4901 N.am      22 UNK        -0.5000 
    120 CA        -2.0617  -23.6076  -54.4395 C.3       22 UNK         0.1400 
    121 C         -1.2894  -24.9124  -54.7983 C.2       22 UNK         0.5000 
    122 N         -0.4518  -24.9306  -55.8282 N.am      22 UNK        -0.7600 
    123 O         -1.4562  -25.9283  -54.1291 O.2       22 UNK        -0.5000 
    124 C124       -1.5642  -23.0549  -53.0787 C.3       23 UNK        -0.0398 
    125 S125       -2.4744  -21.5718  -52.5260 S.3       23 UNK        -0.2404 
    126 C126       -1.2430  -20.2602  -52.7869 C.3       23 UNK        -0.0205 
    127 H127       -4.2507  -16.9354  -51.3169 H         1 UNK         0.0600 
    128 H128       -5.8294  -16.3460  -50.7768 H         1 UNK         0.0600 
    129 H129       -5.1080  -15.7133  -52.2576 H         1 UNK         0.0600 
    130 H130       -3.0893  -16.2908  -49.4251 H         1 UNK         0.3000 
    131 H131       -2.4253  -13.4453  -49.2112 H         1 UNK         0.0600 
    132 H132       -1.2831  -15.4920  -47.2895 H         1 UNK         0.0800 
    133 H133       -0.5733  -14.0390  -47.9080 H         1 UNK         0.0800 
    134 H134       -1.4548  -17.6139  -48.3740 H         1 UNK         0.0800 
    135 H135        0.1670  -17.4876  -47.7337 H         1 UNK         0.0800 
    136 H136       -1.5531  -18.2280  -50.9917 H         1 UNK         0.1150 
    137 H137        0.8105  -21.7266  -51.7269 H         1 UNK         0.1150 
    138 H138        1.5587  -19.3002  -48.2745 H         1 UNK         0.1150 
    139 H139        2.0514  -22.6558  -49.8737 H         1 UNK         0.0800 
    140 H140        3.2849  -21.4225  -49.9988 H         1 UNK         0.0800 
    141 H141        0.3217  -22.5220  -47.8725 H         1 UNK         0.0800 
    142 H142        0.5079  -21.2232  -46.7145 H         1 UNK         0.0800 
    143 H143        1.3912  -24.1269  -46.3303 H         1 UNK         0.0600 
    144 H144        1.9243  -21.7697  -44.6493 H         1 UNK         0.3000 
    145 H145        2.6895  -22.7990  -42.0361 H         1 UNK         0.0600 
    146 H146        5.1285  -23.2298  -41.6288 H         1 UNK         0.0600 
    147 H147        4.2396  -24.6968  -42.0023 H         1 UNK         0.0600 
    148 H148        5.2595  -23.9606  -43.2287 H         1 UNK         0.0600 
    149 H149        3.3510  -20.8079  -42.6581 H         1 UNK         0.3000 
    150 H150        5.8702  -19.4219  -44.4810 H         1 UNK         0.0600 
    151 H151        4.5347  -19.6890  -46.5596 H         1 UNK         0.0600 
    152 H152        4.2802  -18.0939  -45.8728 H         1 UNK         0.0600 
    153 H153        3.0493  -19.3411  -45.6798 H         1 UNK         0.0600 
    154 H154        3.4026  -18.3128  -43.4741 H         1 UNK         0.3000 
    155 H155        4.4088  -18.2535  -40.0429 H         1 UNK         0.0600 
    156 H156        3.9383  -16.0102  -42.0752 H         1 UNK         0.0600 
    157 H157        5.3901  -16.2024  -41.0991 H         1 UNK         0.0600 
    158 H158        3.8528  -15.8654  -40.3199 H         1 UNK         0.0600 
    159 H159        2.0175  -17.3621  -41.2420 H         1 UNK         0.3000 
    160 H160        0.2173  -20.4900  -41.0232 H         1 UNK         0.0600 
    161 H161       -1.2596  -18.9605  -39.7664 H         1 UNK         0.0600 
    162 H162        0.0286  -17.7669  -39.6301 H         1 UNK         0.0600 
    163 H163        0.1729  -19.3196  -38.8143 H         1 UNK         0.0600 
    164 H164       -0.5277  -17.9172  -42.0298 H         1 UNK         0.3000 
    165 H165        0.2240  -18.5926  -45.4633 H         1 UNK         0.0600 
    166 H166       -2.1487  -17.9748  -45.6745 H         1 UNK         0.0600 
    167 H167       -2.0463  -19.5593  -44.9102 H         1 UNK         0.0600 
    168 H168       -2.3968  -18.1425  -43.9390 H         1 UNK         0.0600 
    169 H169       -0.8512  -16.2710  -44.2509 H         1 UNK         0.3000 
    170 H170        2.2150  -14.6542  -43.3520 H         1 UNK         0.0600 
    171 H171        1.7782  -14.1907  -45.7625 H         1 UNK         0.0600 
    172 H172        0.0513  -14.1013  -45.4513 H         1 UNK         0.0600 
    173 H173        1.1390  -12.9113  -44.7418 H         1 UNK         0.0600 
    174 H174       -0.5857  -14.0174  -43.0582 H         1 UNK         0.3000 
    175 H175       -0.9077  -15.2316  -39.7161 H         1 UNK         0.0600 
    176 H176       -1.5017  -12.8587  -39.3180 H         1 UNK         0.0600 
    177 H177        0.2379  -13.0205  -39.4968 H         1 UNK         0.0600 
    178 H178       -0.7210  -12.3771  -40.8246 H         1 UNK         0.0600 
    179 H179       -2.6750  -13.7789  -41.4323 H         1 UNK         0.3000 
    180 H180       -4.1230  -16.5623  -43.1001 H         1 UNK         0.0600 
    181 H181       -5.2501  -14.7569  -40.8936 H         1 UNK         0.0600 
    182 H182       -5.2532  -16.5163  -40.8690 H         1 UNK         0.0600 
    183 H183       -6.1891  -15.6600  -42.0830 H         1 UNK         0.0600 
    184 H184       -4.8504  -13.8569  -43.2087 H         1 UNK         0.3000 
    185 H185       -4.5223  -12.7874  -45.2363 H         1 UNK         0.0600 
    186 H186       -1.6523  -11.9729  -44.4849 H         1 UNK         0.0600 
    187 H187       -2.8940  -10.8915  -45.1160 H         1 UNK         0.0600 
    188 H188       -3.0926  -11.6278  -43.5350 H         1 UNK         0.0600 
    189 H189       -2.0637  -12.7372  -46.7589 H         1 UNK         0.3000 
    190 H190       -0.1947  -22.0349  -43.9937 H         1 UNK         0.3000 
    191 H191       -2.0492  -22.1348  -42.7966 H         1 UNK         0.0600 
    192 H192       -0.9585  -24.1849  -41.9792 H         1 UNK         0.0600 
    193 H193       -1.7296  -25.1582  -43.2224 H         1 UNK         0.0600 
    194 H194       -2.6978  -24.4010  -41.9565 H         1 UNK         0.0600 
    195 H195       -3.6350  -24.9198  -43.9888 H         1 UNK         0.3000 
    196 H196       -5.8912  -23.3769  -44.9363 H         1 UNK         0.0600 
    197 H197       -6.8994  -25.6316  -45.2821 H         1 UNK         0.0600 
    198 H198       -6.1805  -25.5001  -43.6852 H         1 UNK         0.0600 
    199 H199       -5.3473  -26.3942  -44.9576 H         1 UNK         0.0600 
    200 H200       -3.1394  -24.9361  -46.4977 H         1 UNK         0.3000 
    201 H201       -4.3580  -24.8805  -49.1990 H         1 UNK         0.0600 
    202 H202       -3.0874  -26.9022  -48.5020 H         1 UNK         0.0600 
    203 H203       -1.6553  -25.9197  -48.1987 H         1 UNK         0.0600 
    204 H204       -2.2855  -26.0850  -49.8341 H         1 UNK         0.0600 
    205 H205       -4.4034  -22.4143  -48.3356 H         1 UNK         0.3000 
    206 H206       -2.1151  -20.9734  -49.5824 H         1 UNK         0.0600 
    207 H207       -1.8853  -21.3245  -47.0201 H         1 UNK         0.0600 
    208 H208       -1.7990  -19.6692  -47.5776 H         1 UNK         0.0600 
    209 H209       -3.2825  -20.2685  -46.8541 H         1 UNK         0.0600 
    210 H210       -5.3130  -21.4419  -49.8531 H         1 UNK         0.3000 
    211 H211       -6.2268  -18.6291  -49.7582 H         1 UNK         0.0600 
    212 H212       -7.7427  -21.2628  -50.1359 H         1 UNK         0.0600 
    213 H213       -8.4693  -19.6748  -49.9189 H         1 UNK         0.0600 
    214 H214       -7.5442  -20.3966  -48.6129 H         1 UNK         0.0600 
    215 H215       -5.0822  -20.8265  -52.1775 H         1 UNK         0.3000 
    216 H216       -6.9400  -19.9816  -54.2690 H         1 UNK         0.0600 
    217 H217       -5.7982  -21.6509  -55.6265 H         1 UNK         0.0600 
    218 H218       -6.1930  -22.3389  -54.0635 H         1 UNK         0.0600 
    219 H219       -4.5412  -21.8534  -54.4193 H         1 UNK         0.0600 
    220 H220       -6.4403  -17.7304  -54.1395 H         1 UNK         0.3000 
    221 H221       -5.8133  -15.8509  -55.1313 H         1 UNK         0.0600 
    222 H222       -4.7371  -17.6833  -57.3420 H         1 UNK         0.0600 
    223 H223       -6.4287  -17.2322  -57.1339 H         1 UNK         0.0600 
    224 H224       -5.2372  -16.0081  -57.5301 H         1 UNK         0.0600 
    225 H225       -3.6012  -17.3635  -53.5701 H         1 UNK         0.3000 
    226 H226       -1.5552  -17.0266  -52.7932 H         1 UNK         0.0600 
    227 H227       -2.1860  -14.6051  -52.6602 H         1 UNK         0.0600 
    228 H228       -1.4496  -14.3440  -54.2408 H         1 UNK         0.0600 
    229 H229       -0.4654  -14.8598  -52.8794 H         1 UNK         0.0600 
    230 H230       -2.0347  -18.3310  -55.4817 H         1 UNK         0.3000 
    231 H231        0.7638  -18.7198  -56.2072 H         1 UNK         0.0600 
    232 H232        0.3338  -16.6386  -57.4857 H         1 UNK         0.0600 
    233 H233       -1.1280  -17.3302  -58.1852 H         1 UNK         0.0600 
    234 H234        0.4522  -17.9831  -58.6042 H         1 UNK         0.0600 
    235 H235       -2.6368  -19.6872  -56.4777 H         1 UNK         0.3000 
    236 H236       -1.9979  -21.7822  -58.4660 H         1 UNK         0.0600 
    237 H237       -4.4673  -21.8947  -58.6757 H         1 UNK         0.0600 
    238 H238       -4.6497  -20.6977  -57.4004 H         1 UNK         0.0600 
    239 H239       -3.8828  -20.2589  -58.9201 H         1 UNK         0.0600 
    240 H240       -1.5721  -21.7171  -55.2821 H         1 UNK         0.3000 
    241 H241       -3.1010  -23.9119  -54.3015 H         1 UNK         0.0600 
    242 H242        0.0398  -25.7811  -56.0540 H         1 UNK         0.3800 
    243 H243       -0.3081  -24.1047  -56.3870 H         1 UNK         0.3800 
    244 H244       -1.6760  -23.8102  -52.2987 H         1 UNK         0.0800 
    245 H245       -0.4979  -22.8395  -53.1341 H         1 UNK         0.0800 
    246 H246       -0.5794  -20.5045  -53.6170 H         1 UNK         0.0800 
    247 H247       -1.7861  -19.3656  -53.0864 H         1 UNK         0.0800 
@<TRIPOS>BOND
     1    1    2 1    
     2    1  127 1    
     3    1  128 1    
     4    1  129 1    
     5    2    3 2    
     6    2    4 am   BACKBONE|DICT|INTERRES
     7    4    5 1    
     8    4  130 1    
     9    5    6 1    
    10    5   65 1    
    11    5  131 1    
    12    6    7 1    
    13    6  132 1    
    14    6  133 1    
    15    7    8 1    
    16    8    9 1    
    17    8  134 1    
    18    8  135 1    
    19    9   10 ar   
    20    9   14 ar   
    21   10   11 ar   
    22   10  136 1    
    23   11   12 ar   
    24   11  126 1    
    25   12   13 ar   
    26   12  137 1    
    27   13   14 ar   
    28   13   15 1    
    29   14  138 1    
    30   15   16 1    
    31   15  139 1    
    32   15  140 1    
    33   16   17 1    
    34   17   18 1    
    35   17  141 1    
    36   17  142 1    
    37   18   19 1    
    38   18   67 1    
    39   18  143 1    
    40   19   20 am   BACKBONE|DICT|INTERRES
    41   19  144 1    
    42   20   21 2    
    43   20   22 1    
    44   22   23 1    
    45   22   24 1    
    46   22  145 1    
    47   23  146 1    
    48   23  147 1    
    49   23  148 1    
    50   24   25 am   BACKBONE|DICT|INTERRES
    51   24  149 1    
    52   25   26 2    
    53   25   27 1    
    54   27   28 1    
    55   27   29 1    
    56   27  150 1    
    57   28  151 1    
    58   28  152 1    
    59   28  153 1    
    60   29   30 am   BACKBONE|DICT|INTERRES
    61   29  154 1    
    62   30   31 2    
    63   30   32 1    
    64   32   33 1    
    65   32   34 1    
    66   32  155 1    
    67   33  156 1    
    68   33  157 1    
    69   33  158 1    
    70   34   35 am   BACKBONE|DICT|INTERRES
    71   34  159 1    
    72   35   36 2    
    73   35   37 1    
    74   37   38 1    
    75   37   39 1    
    76   37  160 1    
    77   38  161 1    
    78   38  162 1    
    79   38  163 1    
    80   39   40 am   BACKBONE|DICT|INTERRES
    81   39  164 1    
    82   40   41 2    
    83   40   42 1    
    84   42   43 1    
    85   42   44 1    
    86   42  165 1    
    87   43  166 1    
    88   43  167 1    
    89   43  168 1    
    90   44   45 am   BACKBONE|DICT|INTERRES
    91   44  169 1    
    92   45   46 2    
    93   45   47 1    
    94   47   48 1    
    95   47   49 1    
    96   47  170 1    
    97   48  171 1    
    98   48  172 1    
    99   48  173 1    
   100   49   50 am   BACKBONE|DICT|INTERRES
   101   49  174 1    
   102   50   51 2    
   103   50   52 1    
   104   52   53 1    
   105   52   54 1    
   106   52  175 1    
   107   53  176 1    
   108   53  177 1    
   109   53  178 1    
   110   54   55 am   BACKBONE|DICT|INTERRES
   111   54  179 1    
   112   55   56 2    
   113   55   57 1    
   114   57   58 1    
   115   57   59 1    
   116   57  180 1    
   117   58  181 1    
   118   58  182 1    
   119   58  183 1    
   120   59   60 am   BACKBONE|DICT|INTERRES
   121   59  184 1    
   122   60   61 2    
   123   60   62 1    
   124   62   63 1    
   125   62   64 1    
   126   62  185 1    
   127   63  186 1    
   128   63  187 1    
   129   63  188 1    
   130   64   65 am   BACKBONE|DICT|INTERRES
   131   64  189 1    
   132   65   66 2    
   133   67   68 2    
   134   67   69 am   BACKBONE|DICT|INTERRES
   135   69   70 1    
   136   69  190 1    
   137   70   71 1    
   138   70   72 1    
   139   70  191 1    
   140   71  192 1    
   141   71  193 1    
   142   71  194 1    
   143   72   73 2    
   144   72   74 am   BACKBONE|DICT|INTERRES
   145   74   75 1    
   146   74  195 1    
   147   75   76 1    
   148   75   77 1    
   149   75  196 1    
   150   76  197 1    
   151   76  198 1    
   152   76  199 1    
   153   77   78 2    
   154   77   79 am   BACKBONE|DICT|INTERRES
   155   79   80 1    
   156   79  200 1    
   157   80   81 1    
   158   80   82 1    
   159   80  201 1    
   160   81  202 1    
   161   81  203 1    
   162   81  204 1    
   163   82   83 2    
   164   82   84 am   BACKBONE|DICT|INTERRES
   165   84   85 1    
   166   84  205 1    
   167   85   86 1    
   168   85   87 1    
   169   85  206 1    
   170   86  207 1    
   171   86  208 1    
   172   86  209 1    
   173   87   88 2    
   174   87   89 am   BACKBONE|DICT|INTERRES
   175   89   90 1    
   176   89  210 1    
   177   90   91 1    
   178   90   92 1    
   179   90  211 1    
   180   91  212 1    
   181   91  213 1    
   182   91  214 1    
   183   92   93 2    
   184   92   94 am   BACKBONE|DICT|INTERRES
   185   94   95 1    
   186   94  215 1    
   187   95   96 1    
   188   95   97 1    
   189   95  216 1    
   190   96  217 1    
   191   96  218 1    
   192   96  219 1    
   193   97   98 2    
   194   97   99 am   BACKBONE|DICT|INTERRES
   195   99  100 1    
   196   99  220 1    
   197  100  101 1    
   198  100  102 1    
   199  100  221 1    
   200  101  222 1    
   201  101  223 1    
   202  101  224 1    
   203  102  103 2    
   204  102  104 am   BACKBONE|DICT|INTERRES
   205  104  105 1    
   206  104  225 1    
   207  105  106 1    
   208  105  107 1    
   209  105  226 1    
   210  106  227 1    
   211  106  228 1    
   212  106  229 1    
   213  107  108 2    
   214  107  109 am   BACKBONE|DICT|INTERRES
   215  109  110 1    
   216  109  230 1    
   217  110  111 1    
   218  110  112 1    
   219  110  231 1    
   220  111  232 1    
   221  111  233 1    
   222  111  234 1    
   223  112  113 2    
   224  112  114 am   BACKBONE|DICT|INTERRES
   225  114  115 1    
   226  114  235 1    
   227  115  116 1    
   228  115  117 1    
   229  115  236 1    
   230  116  237 1    
   231  116  238 1    
   232  116  239 1    
   233  117  118 2    
   234  117  119 am   BACKBONE|DICT|INTERRES
   235  119  120 1    
   236  119  240 1    
   237  120  121 1    
   238  120  124 1    
   239  120  241 1    
   240  121  122 am   BACKBONE|DICT|INTERRES
   241  121  123 2    
   242  122  242 1    
   243  122  243 1    
   244  124  125 1    
   245  124  244 1    
   246  124  245 1    
   247  125  126 1    
   248  126  246 1    
   249  126  247 1    
@<TRIPOS>SUBSTRUCTURE
     1 UNK         1 GROUP             0       ****    0 ROOT    
