@<TRIPOS>MOLECULE
3R540
247   249    1
SMALL
USER_CHARGES


@<TRIPOS>ATOM
      1 CA         -2.7529   -8.5517  -44.8640 C.3       0 UNK        -0.1800 
      2 C          -2.0911   -9.1547  -46.0950 C.2       0 UNK         0.5000 
      3 O          -1.6484   -8.4164  -46.9749 O.2       0 UNK        -0.5000 
      4 N          -2.0273  -10.4913  -46.1601 N.am      1 UNK        -0.5000 
      5 CA         -1.3963  -11.2573  -47.2428 C.3       1 UNK         0.1400 
      6 C6         -1.7443  -12.7635  -47.1302 C.3       23 UNK        -0.0398 
      7 S7         -1.6341  -13.6745  -48.7057 S.3       23 UNK        -0.2404 
      8 C8          0.0474  -14.3825  -48.6125 C.3       23 UNK        -0.0205 
      9 C9          0.3415  -15.3772  -49.7315 C.ar      23 UNK        -0.0193 
     10 C10        -0.0070  -15.0933  -51.0580 C.ar      23 UNK        -0.1150 
     11 C11         0.2548  -16.0138  -52.0756 C.ar      23 UNK        -0.0193 
     12 C12         0.8982  -17.2139  -51.7687 C.ar      23 UNK        -0.1150 
     13 C13         1.2709  -17.5035  -50.4549 C.ar      23 UNK        -0.0193 
     14 C14         0.9895  -16.5834  -49.4398 C.ar      23 UNK        -0.1150 
     15 C15         1.9762  -18.8145  -50.1478 C.3       23 UNK        -0.0205 
     16 S16         0.7854  -20.1734  -49.9357 S.3       23 UNK        -0.2404 
     17 C17         0.2198  -19.8678  -48.2312 C.3       23 UNK        -0.0398 
     18 CA         -0.4140  -21.1298  -47.5937 C.3       11 UNK         0.1400 
     19 N          -0.1065  -21.2317  -46.1654 N.am      11 UNK        -0.5000 
     20 C          -0.1961  -22.3566  -45.4437 C.2       10 UNK         0.5000 
     21 O          -0.4863  -23.4526  -45.9211 O.2       10 UNK        -0.5000 
     22 CA          0.0636  -22.2388  -43.9285 C.3       10 UNK         0.1400 
     23 CB          1.5511  -22.4547  -43.6131 C.3       10 UNK        -0.1800 
     24 N          -0.3768  -20.9608  -43.3642 N.am      10 UNK        -0.5000 
     25 C          -1.6545  -20.5574  -43.3183 C.2       9 UNK         0.5000 
     26 O          -2.5984  -21.2405  -43.7124 O.2       9 UNK        -0.5000 
     27 CA         -1.9218  -19.1333  -42.8006 C.3       9 UNK         0.1400 
     28 CB         -1.9041  -19.0977  -41.2654 C.3       9 UNK        -0.1800 
     29 N          -0.9764  -18.1506  -43.3319 N.am      9 UNK        -0.5000 
     30 C          -0.8368  -17.8521  -44.6319 C.2       8 UNK         0.5000 
     31 O          -1.5168  -18.3535  -45.5269 O.2       8 UNK        -0.5000 
     32 CA          0.2948  -16.8761  -45.0014 C.3       8 UNK         0.1400 
     33 CB         -0.1068  -15.4278  -44.6920 C.3       8 UNK        -0.1800 
     34 N           1.5532  -17.1971  -44.3281 N.am      8 UNK        -0.5000 
     35 C           2.2204  -18.3504  -44.4783 C.2       7 UNK         0.5000 
     36 O           1.8802  -19.2417  -45.2542 O.2       7 UNK        -0.5000 
     37 CA          3.4379  -18.5696  -43.5672 C.3       7 UNK         0.1400 
     38 CB          4.6833  -17.8742  -44.1360 C.3       7 UNK        -0.1800 
     39 N           3.1796  -18.1045  -42.2044 N.am      7 UNK        -0.5000 
     40 C           2.3392  -18.7088  -41.3518 C.2       6 UNK         0.5000 
     41 O           1.7244  -19.7421  -41.6159 O.2       6 UNK        -0.5000 
     42 CA          2.1197  -18.0215  -39.9914 C.3       6 UNK         0.1400 
     43 CB          3.2360  -18.3997  -39.0067 C.3       6 UNK        -0.1800 
     44 N           2.0430  -16.5639  -40.1026 N.am      6 UNK        -0.5000 
     45 C           1.0540  -15.9045  -40.7222 C.2       5 UNK         0.5000 
     46 O           0.0811  -16.4578  -41.2328 O.2       5 UNK        -0.5000 
     47 CA          1.1990  -14.3749  -40.8319 C.3       5 UNK         0.1400 
     48 CB          0.6059  -13.6854  -39.5948 C.3       5 UNK        -0.1800 
     49 N           2.5799  -13.9230  -41.0221 N.am      5 UNK        -0.5000 
     50 C           3.3724  -14.2729  -42.0429 C.2       4 UNK         0.5000 
     51 O           3.0319  -15.0549  -42.9329 O.2       4 UNK        -0.5000 
     52 CA          4.7601  -13.6070  -42.0812 C.3       4 UNK         0.1400 
     53 CB          5.7541  -14.3698  -42.9740 C.3       4 UNK        -0.1800 
     54 N           4.6353  -12.2405  -42.5773 N.am      4 UNK        -0.5000 
     55 C           4.2341  -11.1840  -41.8572 C.2       3 UNK         0.5000 
     56 O           4.0256  -11.2238  -40.6437 O.2       3 UNK        -0.5000 
     57 CA          3.9961   -9.8739  -42.6347 C.3       3 UNK         0.1400 
     58 CB          5.2647   -9.0075  -42.6347 C.3       3 UNK        -0.1800 
     59 N           3.5715  -10.1105  -44.0190 N.am      3 UNK        -0.5000 
     60 C           2.3834  -10.6243  -44.3626 C.2       2 UNK         0.5000 
     61 O           1.4854  -10.8813  -43.5549 O.2       2 UNK        -0.5000 
     62 CA          2.1802  -10.9385  -45.8506 C.3       2 UNK         0.1400 
     63 CB          2.9147  -12.2384  -46.2360 C.3       2 UNK        -0.1800 
     64 N           0.7510  -11.0858  -46.0883 N.am      2 UNK        -0.5000 
     65 C           0.1329  -11.0446  -47.2731 C.2       1 UNK         0.5000 
     66 O           0.7094  -10.8450  -48.3431 O.2       1 UNK        -0.5000 
     67 C          -1.9327  -21.1964  -47.8623 C.2       11 UNK         0.5000 
     68 O          -2.3475  -21.7981  -48.8511 O.2       11 UNK        -0.5000 
     69 N          -2.7356  -20.5822  -46.9811 N.am      12 UNK        -0.5000 
     70 CA         -4.1989  -20.6052  -47.0330 C.3       12 UNK         0.1400 
     71 CB         -4.7547  -19.5170  -46.1026 C.3       12 UNK        -0.1800 
     72 C          -4.7886  -21.9826  -46.6728 C.2       12 UNK         0.5000 
     73 O          -5.8141  -22.3727  -47.2359 O.2       12 UNK        -0.5000 
     74 N          -4.1275  -22.6947  -45.7506 N.am      13 UNK        -0.5000 
     75 CA         -4.4561  -24.0542  -45.3243 C.3       13 UNK         0.1400 
     76 CB         -3.5409  -24.4442  -44.1522 C.3       13 UNK        -0.1800 
     77 C          -4.3568  -25.0917  -46.4609 C.2       13 UNK         0.5000 
     78 O          -3.7442  -24.8336  -47.5008 O.2       13 UNK        -0.5000 
     79 N          -4.9812  -26.2559  -46.2298 N.am      14 UNK        -0.5000 
     80 CA         -5.0909  -27.3893  -47.1568 C.3       14 UNK         0.1400 
     81 CB         -3.7135  -28.0496  -47.3821 C.3       14 UNK        -0.1800 
     82 C          -5.7961  -27.0030  -48.4736 C.2       14 UNK         0.5000 
     83 O          -5.3663  -27.4230  -49.5480 O.2       14 UNK        -0.5000 
     84 N          -6.8515  -26.1815  -48.3545 N.am      15 UNK        -0.5000 
     85 CA         -7.6519  -25.6064  -49.4401 C.3       15 UNK         0.1400 
     86 CB         -8.4781  -26.7036  -50.1446 C.3       15 UNK        -0.1800 
     87 C          -6.7884  -24.7839  -50.4169 C.2       15 UNK         0.5000 
     88 O          -6.7256  -25.1044  -51.6044 O.2       15 UNK        -0.5000 
     89 N          -6.1070  -23.7601  -49.8817 N.am      16 UNK        -0.5000 
     90 CA         -5.1799  -22.8674  -50.5849 C.3       16 UNK         0.1400 
     91 CB         -5.9347  -21.9848  -51.6008 C.3       16 UNK        -0.1800 
     92 C          -3.9928  -23.6295  -51.2079 C.2       16 UNK         0.5000 
     93 O          -3.7048  -23.4589  -52.3963 O.2       16 UNK        -0.5000 
     94 N          -3.3571  -24.4783  -50.3852 N.am      17 UNK        -0.5000 
     95 CA         -2.2128  -25.3357  -50.6993 C.3       17 UNK         0.1400 
     96 CB         -0.9453  -24.4835  -50.9176 C.3       17 UNK        -0.1800 
     97 C          -2.5066  -26.3054  -51.8615 C.2       17 UNK         0.5000 
     98 O          -1.7796  -26.3218  -52.8558 O.2       17 UNK        -0.5000 
     99 N          -3.5891  -27.0824  -51.7108 N.am      18 UNK        -0.5000 
    100 CA        -4.1371  -28.0409  -52.6743 C.3       18 UNK         0.1400 
    101 CB        -3.1638  -29.2167  -52.9029 C.3       18 UNK        -0.1800 
    102 C         -4.5968  -27.3584  -53.9781 C.2       18 UNK         0.5000 
    103 O         -4.2752  -27.8248  -55.0729 O.2       18 UNK        -0.5000 
    104 N         -5.3458  -26.2574  -53.8201 N.am      19 UNK        -0.5000 
    105 CA        -5.9165  -25.4076  -54.8666 C.3       19 UNK         0.1400 
    106 CB        -7.0091  -26.1656  -55.6495 C.3       19 UNK        -0.1800 
    107 C         -4.8559  -24.7545  -55.7764 C.2       19 UNK         0.5000 
    108 O         -5.0862  -24.6026  -56.9779 O.2       19 UNK        -0.5000 
    109 N         -3.7178  -24.3585  -55.1883 N.am      20 UNK        -0.5000 
    110 CA        -2.6871  -23.5650  -55.8572 C.3       20 UNK         0.1400 
    111 CB        -1.3802  -23.6117  -55.0518 C.3       20 UNK        -0.1800 
    112 C         -3.1653  -22.1173  -56.0523 C.2       20 UNK         0.5000 
    113 O         -3.0494  -21.5835  -57.1563 O.2       20 UNK        -0.5000 
    114 N         -3.7293  -21.5377  -54.9788 N.am      21 UNK        -0.5000 
    115 CA        -4.4775  -20.2729  -54.9313 C.3       21 UNK         0.1400 
    116 CB        -5.9031  -20.5101  -55.4690 C.3       21 UNK        -0.1800 
    117 C         -3.7783  -19.0696  -55.6056 C.2       21 UNK         0.5000 
    118 O         -4.4397  -18.2539  -56.2510 O.2       21 UNK        -0.5000 
    119 N         -2.4493  -18.9965  -55.4528 N.am      22 UNK        -0.5000 
    120 CA        -1.5536  -17.9929  -56.0605 C.3       22 UNK         0.1400 
    121 C         -1.3940  -18.1120  -57.6090 C.2       22 UNK         0.5000 
    122 N         -1.8167  -19.1972  -58.2469 N.am      22 UNK        -0.7600 
    123 O         -0.8437  -17.2186  -58.2475 O.2       22 UNK        -0.5000 
    124 C124       -1.8543  -16.5322  -55.6095 C.3       23 UNK        -0.0398 
    125 S125       -1.8593  -16.3444  -53.7948 S.3       23 UNK        -0.2404 
    126 C126       -0.1727  -15.7307  -53.5046 C.3       23 UNK        -0.0205 
    127 H127       -3.1051   -9.3195  -44.1747 H         1 UNK         0.0600 
    128 H128       -3.6069   -7.9413  -45.1578 H         1 UNK         0.0600 
    129 H129       -2.0452   -7.9162  -44.3316 H         1 UNK         0.0600 
    130 H130       -2.4205  -11.0350  -45.4051 H         1 UNK         0.3000 
    131 H131       -1.8044  -10.8773  -48.1822 H         1 UNK         0.0600 
    132 H132       -1.1417  -13.2533  -46.3662 H         1 UNK         0.0800 
    133 H133       -2.7778  -12.8750  -46.7987 H         1 UNK         0.0800 
    134 H134        0.7847  -13.5814  -48.6628 H         1 UNK         0.0800 
    135 H135        0.1723  -14.8635  -47.6420 H         1 UNK         0.0800 
    136 H136       -0.5020  -14.1629  -51.2984 H         1 UNK         0.1150 
    137 H137        1.0992  -17.9309  -52.5526 H         1 UNK         0.1150 
    138 H138        1.2766  -16.8097  -48.4227 H         1 UNK         0.1150 
    139 H139        2.6492  -19.0657  -50.9690 H         1 UNK         0.0800 
    140 H140        2.6066  -18.7186  -49.2624 H         1 UNK         0.0800 
    141 H141       -0.4546  -19.0091  -48.2111 H         1 UNK         0.0800 
    142 H142        1.0970  -19.5655  -47.6608 H         1 UNK         0.0800 
    143 H143        0.0294  -22.0108  -48.0638 H         1 UNK         0.0600 
    144 H144        0.2119  -20.3859  -45.7056 H         1 UNK         0.3000 
    145 H145       -0.5041  -23.0311  -43.4362 H         1 UNK         0.0600 
    146 H146        1.7313  -22.4483  -42.5380 H         1 UNK         0.0600 
    147 H147        1.8957  -23.4164  -43.9951 H         1 UNK         0.0600 
    148 H148        2.1743  -21.6810  -44.0615 H         1 UNK         0.0600 
    149 H149        0.3440  -20.3605  -42.9766 H         1 UNK         0.3000 
    150 H150       -2.9203  -18.8433  -43.1337 H         1 UNK         0.0600 
    151 H151       -2.6108  -19.8169  -40.8495 H         1 UNK         0.0600 
    152 H152       -2.1849  -18.1129  -40.8917 H         1 UNK         0.0600 
    153 H153       -0.9179  -19.3372  -40.8675 H         1 UNK         0.0600 
    154 H154       -0.4093  -17.6542  -42.6499 H         1 UNK         0.3000 
    155 H155        0.4623  -16.9599  -46.0767 H         1 UNK         0.0600 
    156 H156       -1.0596  -15.1872  -45.1632 H         1 UNK         0.0600 
    157 H157        0.6374  -14.7218  -45.0610 H         1 UNK         0.0600 
    158 H158       -0.2248  -15.2604  -43.6224 H         1 UNK         0.0600 
    159 H159        1.9339  -16.4959  -43.6993 H         1 UNK         0.3000 
    160 H160        3.6400  -19.6421  -43.5276 H         1 UNK         0.0600 
    161 H161        4.5288  -16.8030  -44.2614 H         1 UNK         0.0600 
    162 H162        4.9386  -18.2810  -45.1153 H         1 UNK         0.0600 
    163 H163        5.5485  -18.0177  -43.4887 H         1 UNK         0.0600 
    164 H164        3.5928  -17.2227  -41.9397 H         1 UNK         0.3000 
    165 H165        1.1715  -18.3814  -39.5865 H         1 UNK         0.0600 
    166 H166        3.0478  -17.9809  -38.0179 H         1 UNK         0.0600 
    167 H167        3.3040  -19.4824  -38.8921 H         1 UNK         0.0600 
    168 H168        4.2104  -18.0433  -39.3431 H         1 UNK         0.0600 
    169 H169        2.8048  -16.0314  -39.7093 H         1 UNK         0.3000 
    170 H170        0.6285  -14.0525  -41.7049 H         1 UNK         0.0600 
    171 H171       -0.4318  -13.9845  -39.4406 H         1 UNK         0.0600 
    172 H172        1.1591  -13.9370  -38.6891 H         1 UNK         0.0600 
    173 H173        0.6173  -12.6008  -39.7052 H         1 UNK         0.0600 
    174 H174        2.9221  -13.2248  -40.3741 H         1 UNK         0.3000 
    175 H175        5.1626  -13.5930  -41.0661 H         1 UNK         0.0600 
    176 H176        5.4226  -14.4072  -44.0126 H         1 UNK         0.0600 
    177 H177        6.7382  -13.9013  -42.9551 H         1 UNK         0.0600 
    178 H178        5.8784  -15.3966  -42.6287 H         1 UNK         0.0600 
    179 H179        4.7554  -12.1160  -43.5710 H         1 UNK         0.3000 
    180 H180        3.2053   -9.3228  -42.1213 H         1 UNK         0.0600 
    181 H181        6.0907   -9.5007  -43.1487 H         1 UNK         0.0600 
    182 H182        5.5920   -8.7955  -41.6159 H         1 UNK         0.0600 
    183 H183        5.0880   -8.0493  -43.1236 H         1 UNK         0.0600 
    184 H184        4.2513   -9.9128  -44.7397 H         1 UNK         0.3000 
    185 H185        2.5599  -10.1027  -46.4419 H         1 UNK         0.0600 
    186 H186        3.9885  -12.1490  -46.0691 H         1 UNK         0.0600 
    187 H187        2.5614  -13.0879  -45.6496 H         1 UNK         0.0600 
    188 H188        2.7748  -12.4793  -47.2897 H         1 UNK         0.0600 
    189 H189        0.2096  -11.1865  -45.2382 H         1 UNK         0.3000 
    190 H190       -2.3139  -20.0410  -46.2329 H         1 UNK         0.3000 
    191 H191       -4.5073  -20.3681  -48.0532 H         1 UNK         0.0600 
    192 H192       -4.3862  -18.5306  -46.3855 H         1 UNK         0.0600 
    193 H193       -5.8440  -19.4839  -46.1474 H         1 UNK         0.0600 
    194 H194       -4.4735  -19.6930  -45.0639 H         1 UNK         0.0600 
    195 H195       -3.3275  -22.2648  -45.2998 H         1 UNK         0.3000 
    196 H196       -5.4885  -24.0427  -44.9694 H         1 UNK         0.0600 
    197 H197       -3.7873  -25.4345  -43.7678 H         1 UNK         0.0600 
    198 H198       -3.6412  -23.7446  -43.3223 H         1 UNK         0.0600 
    199 H199       -2.4931  -24.4622  -44.4512 H         1 UNK         0.0600 
    200 H200       -5.4540  -26.3767  -45.3447 H         1 UNK         0.3000 
    201 H201       -5.7336  -28.1263  -46.6731 H         1 UNK         0.0600 
    202 H202       -3.2471  -28.3202  -46.4349 H         1 UNK         0.0600 
    203 H203       -3.0282  -27.3913  -47.9164 H         1 UNK         0.0600 
    204 H204       -3.8098  -28.9642  -47.9684 H         1 UNK         0.0600 
    205 H205       -7.1012  -25.8786  -47.4240 H         1 UNK         0.3000 
    206 H206       -8.3535  -24.9086  -48.9805 H         1 UNK         0.0600 
    207 H207       -9.1057  -27.2413  -49.4341 H         1 UNK         0.0600 
    208 H208       -9.1375  -26.2703  -50.8975 H         1 UNK         0.0600 
    209 H209       -7.8434  -27.4329  -50.6492 H         1 UNK         0.0600 
    210 H210       -6.1889  -23.5817  -48.8860 H         1 UNK         0.3000 
    211 H211       -4.7597  -22.2046  -49.8296 H         1 UNK         0.0600 
    212 H212       -6.3224  -22.5640  -52.4395 H         1 UNK         0.0600 
    213 H213       -5.2739  -21.2201  -52.0070 H         1 UNK         0.0600 
    214 H214       -6.7729  -21.4707  -51.1309 H         1 UNK         0.0600 
    215 H215       -3.6661  -24.5263  -49.4171 H         1 UNK         0.3000 
    216 H216       -2.0430  -25.9540  -49.8168 H         1 UNK         0.0600 
    217 H217       -0.0717  -25.1154  -51.0803 H         1 UNK         0.0600 
    218 H218       -0.7381  -23.8602  -50.0475 H         1 UNK         0.0600 
    219 H219       -1.0407  -23.8262  -51.7814 H         1 UNK         0.0600 
    220 H220       -4.1388  -26.9947  -50.8579 H         1 UNK         0.3000 
    221 H221       -5.0378  -28.4494  -52.2136 H         1 UNK         0.0600 
    222 H222       -2.2519  -28.8996  -53.4095 H         1 UNK         0.0600 
    223 H223       -2.8796  -29.6812  -51.9587 H         1 UNK         0.0600 
    224 H224       -3.6260  -29.9895  -53.5181 H         1 UNK         0.0600 
    225 H225       -5.5764  -25.9581  -52.8755 H         1 UNK         0.3000 
    226 H226       -6.4042  -24.5826  -54.3454 H         1 UNK         0.0600 
    227 H227       -7.7527  -26.5903  -54.9750 H         1 UNK         0.0600 
    228 H228       -7.5366  -25.4978  -56.3315 H         1 UNK         0.0600 
    229 H229       -6.5918  -26.9782  -56.2449 H         1 UNK         0.0600 
    230 H230       -3.6210  -24.4725  -54.1845 H         1 UNK         0.3000 
    231 H231       -2.4946  -23.9977  -56.8412 H         1 UNK         0.0600 
    232 H232       -1.5054  -23.1983  -54.0511 H         1 UNK         0.0600 
    233 H233       -0.5957  -23.0394  -55.5482 H         1 UNK         0.0600 
    234 H234       -1.0199  -24.6351  -54.9471 H         1 UNK         0.0600 
    235 H235       -3.7364  -22.0781  -54.1204 H         1 UNK         0.3000 
    236 H236       -4.5624  -20.0054  -53.8782 H         1 UNK         0.0600 
    237 H237       -6.3927  -21.3270  -54.9386 H         1 UNK         0.0600 
    238 H238       -6.5269  -19.6246  -55.3421 H         1 UNK         0.0600 
    239 H239       -5.8935  -20.7589  -56.5308 H         1 UNK         0.0600 
    240 H240       -1.9945  -19.7220  -54.9184 H         1 UNK         0.3000 
    241 H241       -0.5628  -18.2390  -55.6774 H         1 UNK         0.0600 
    242 H242       -1.6939  -19.2598  -59.2449 H         1 UNK         0.3800 
    243 H243       -2.2714  -19.9611  -57.7529 H         1 UNK         0.3800 
    244 H244       -1.1231  -15.8387  -56.0281 H         1 UNK         0.0800 
    245 H245       -2.8215  -16.2037  -55.9910 H         1 UNK         0.0800 
    246 H246        0.5224  -16.2093  -54.1965 H         1 UNK         0.0800 
    247 H247       -0.1317  -14.6605  -53.7128 H         1 UNK         0.0800 
@<TRIPOS>BOND
     1    1    2 1    
     2    1  127 1    
     3    1  128 1    
     4    1  129 1    
     5    2    3 2    
     6    2    4 am   BACKBONE|DICT|INTERRES
     7    4    5 1    
     8    4  130 1    
     9    5    6 1    
    10    5   65 1    
    11    5  131 1    
    12    6    7 1    
    13    6  132 1    
    14    6  133 1    
    15    7    8 1    
    16    8    9 1    
    17    8  134 1    
    18    8  135 1    
    19    9   10 ar   
    20    9   14 ar   
    21   10   11 ar   
    22   10  136 1    
    23   11   12 ar   
    24   11  126 1    
    25   12   13 ar   
    26   12  137 1    
    27   13   14 ar   
    28   13   15 1    
    29   14  138 1    
    30   15   16 1    
    31   15  139 1    
    32   15  140 1    
    33   16   17 1    
    34   17   18 1    
    35   17  141 1    
    36   17  142 1    
    37   18   19 1    
    38   18   67 1    
    39   18  143 1    
    40   19   20 am   BACKBONE|DICT|INTERRES
    41   19  144 1    
    42   20   21 2    
    43   20   22 1    
    44   22   23 1    
    45   22   24 1    
    46   22  145 1    
    47   23  146 1    
    48   23  147 1    
    49   23  148 1    
    50   24   25 am   BACKBONE|DICT|INTERRES
    51   24  149 1    
    52   25   26 2    
    53   25   27 1    
    54   27   28 1    
    55   27   29 1    
    56   27  150 1    
    57   28  151 1    
    58   28  152 1    
    59   28  153 1    
    60   29   30 am   BACKBONE|DICT|INTERRES
    61   29  154 1    
    62   30   31 2    
    63   30   32 1    
    64   32   33 1    
    65   32   34 1    
    66   32  155 1    
    67   33  156 1    
    68   33  157 1    
    69   33  158 1    
    70   34   35 am   BACKBONE|DICT|INTERRES
    71   34  159 1    
    72   35   36 2    
    73   35   37 1    
    74   37   38 1    
    75   37   39 1    
    76   37  160 1    
    77   38  161 1    
    78   38  162 1    
    79   38  163 1    
    80   39   40 am   BACKBONE|DICT|INTERRES
    81   39  164 1    
    82   40   41 2    
    83   40   42 1    
    84   42   43 1    
    85   42   44 1    
    86   42  165 1    
    87   43  166 1    
    88   43  167 1    
    89   43  168 1    
    90   44   45 am   BACKBONE|DICT|INTERRES
    91   44  169 1    
    92   45   46 2    
    93   45   47 1    
    94   47   48 1    
    95   47   49 1    
    96   47  170 1    
    97   48  171 1    
    98   48  172 1    
    99   48  173 1    
   100   49   50 am   BACKBONE|DICT|INTERRES
   101   49  174 1    
   102   50   51 2    
   103   50   52 1    
   104   52   53 1    
   105   52   54 1    
   106   52  175 1    
   107   53  176 1    
   108   53  177 1    
   109   53  178 1    
   110   54   55 am   BACKBONE|DICT|INTERRES
   111   54  179 1    
   112   55   56 2    
   113   55   57 1    
   114   57   58 1    
   115   57   59 1    
   116   57  180 1    
   117   58  181 1    
   118   58  182 1    
   119   58  183 1    
   120   59   60 am   BACKBONE|DICT|INTERRES
   121   59  184 1    
   122   60   61 2    
   123   60   62 1    
   124   62   63 1    
   125   62   64 1    
   126   62  185 1    
   127   63  186 1    
   128   63  187 1    
   129   63  188 1    
   130   64   65 am   BACKBONE|DICT|INTERRES
   131   64  189 1    
   132   65   66 2    
   133   67   68 2    
   134   67   69 am   BACKBONE|DICT|INTERRES
   135   69   70 1    
   136   69  190 1    
   137   70   71 1    
   138   70   72 1    
   139   70  191 1    
   140   71  192 1    
   141   71  193 1    
   142   71  194 1    
   143   72   73 2    
   144   72   74 am   BACKBONE|DICT|INTERRES
   145   74   75 1    
   146   74  195 1    
   147   75   76 1    
   148   75   77 1    
   149   75  196 1    
   150   76  197 1    
   151   76  198 1    
   152   76  199 1    
   153   77   78 2    
   154   77   79 am   BACKBONE|DICT|INTERRES
   155   79   80 1    
   156   79  200 1    
   157   80   81 1    
   158   80   82 1    
   159   80  201 1    
   160   81  202 1    
   161   81  203 1    
   162   81  204 1    
   163   82   83 2    
   164   82   84 am   BACKBONE|DICT|INTERRES
   165   84   85 1    
   166   84  205 1    
   167   85   86 1    
   168   85   87 1    
   169   85  206 1    
   170   86  207 1    
   171   86  208 1    
   172   86  209 1    
   173   87   88 2    
   174   87   89 am   BACKBONE|DICT|INTERRES
   175   89   90 1    
   176   89  210 1    
   177   90   91 1    
   178   90   92 1    
   179   90  211 1    
   180   91  212 1    
   181   91  213 1    
   182   91  214 1    
   183   92   93 2    
   184   92   94 am   BACKBONE|DICT|INTERRES
   185   94   95 1    
   186   94  215 1    
   187   95   96 1    
   188   95   97 1    
   189   95  216 1    
   190   96  217 1    
   191   96  218 1    
   192   96  219 1    
   193   97   98 2    
   194   97   99 am   BACKBONE|DICT|INTERRES
   195   99  100 1    
   196   99  220 1    
   197  100  101 1    
   198  100  102 1    
   199  100  221 1    
   200  101  222 1    
   201  101  223 1    
   202  101  224 1    
   203  102  103 2    
   204  102  104 am   BACKBONE|DICT|INTERRES
   205  104  105 1    
   206  104  225 1    
   207  105  106 1    
   208  105  107 1    
   209  105  226 1    
   210  106  227 1    
   211  106  228 1    
   212  106  229 1    
   213  107  108 2    
   214  107  109 am   BACKBONE|DICT|INTERRES
   215  109  110 1    
   216  109  230 1    
   217  110  111 1    
   218  110  112 1    
   219  110  231 1    
   220  111  232 1    
   221  111  233 1    
   222  111  234 1    
   223  112  113 2    
   224  112  114 am   BACKBONE|DICT|INTERRES
   225  114  115 1    
   226  114  235 1    
   227  115  116 1    
   228  115  117 1    
   229  115  236 1    
   230  116  237 1    
   231  116  238 1    
   232  116  239 1    
   233  117  118 2    
   234  117  119 am   BACKBONE|DICT|INTERRES
   235  119  120 1    
   236  119  240 1    
   237  120  121 1    
   238  120  124 1    
   239  120  241 1    
   240  121  122 am   BACKBONE|DICT|INTERRES
   241  121  123 2    
   242  122  242 1    
   243  122  243 1    
   244  124  125 1    
   245  124  244 1    
   246  124  245 1    
   247  125  126 1    
   248  126  246 1    
   249  126  247 1    
@<TRIPOS>SUBSTRUCTURE
     1 UNK         1 GROUP             0       ****    0 ROOT    
