@<TRIPOS>MOLECULE
3R540
247   249    1
SMALL
USER_CHARGES


@<TRIPOS>ATOM
      1 CA          2.5390  -14.5572  -49.5800 C.3       0 UNK        -0.1800 
      2 C           2.7008  -14.2096  -48.1081 C.2       0 UNK         0.5000 
      3 O           3.6916  -14.5970  -47.4906 O.2       0 UNK        -0.5000 
      4 N           1.7460  -13.4575  -47.5449 N.am      1 UNK        -0.5000 
      5 CA          1.6733  -13.0809  -46.1229 C.3       1 UNK         0.1400 
      6 C6          0.2755  -12.5373  -45.7360 C.3       23 UNK        -0.0398 
      7 S7         -1.0135  -13.8222  -45.8724 S.3       23 UNK        -0.2404 
      8 C8         -1.7180  -13.4800  -47.5171 C.3       23 UNK        -0.0205 
      9 C9         -2.0346  -14.7661  -48.2662 C.ar      23 UNK        -0.0193 
     10 C10        -3.3414  -15.0565  -48.6665 C.ar      23 UNK        -0.1150 
     11 C11        -3.6196  -16.2244  -49.3837 C.ar      23 UNK        -0.0193 
     12 C12        -2.5841  -17.1173  -49.6780 C.ar      23 UNK        -0.1150 
     13 C13        -1.2737  -16.8453  -49.2736 C.ar      23 UNK        -0.0193 
     14 C14        -1.0081  -15.6587  -48.5846 C.ar      23 UNK        -0.1150 
     15 C15        -0.1547  -17.8268  -49.6089 C.3       23 UNK        -0.0205 
     16 S16         1.0640  -18.0714  -48.2677 S.3       23 UNK        -0.2404 
     17 C17         0.0252  -18.6313  -46.8758 C.3       23 UNK        -0.0398 
     18 CA         -0.1089  -20.1725  -46.8165 C.3       11 UNK         0.1400 
     19 N          -0.1885  -20.6694  -45.4414 N.am      11 UNK        -0.5000 
     20 C          -0.1625  -21.9636  -45.0927 C.2       10 UNK         0.5000 
     21 O           0.0152  -22.8846  -45.8887 O.2       10 UNK        -0.5000 
     22 CA         -0.4454  -22.2832  -43.6154 C.3       10 UNK         0.1400 
     23 CB          0.8363  -22.1901  -42.7746 C.3       10 UNK        -0.1800 
     24 N          -1.4728  -21.3972  -43.0654 N.am      10 UNK        -0.5000 
     25 C          -2.7711  -21.4651  -43.3946 C.2       9 UNK         0.5000 
     26 O          -3.2385  -22.3250  -44.1410 O.2       9 UNK        -0.5000 
     27 CA         -3.6925  -20.3667  -42.8313 C.3       9 UNK         0.1400 
     28 CB         -4.1770  -20.7376  -41.4221 C.3       9 UNK        -0.1800 
     29 N          -3.0519  -19.0504  -42.7933 N.am      9 UNK        -0.5000 
     30 C          -2.6966  -18.3464  -43.8781 C.2       8 UNK         0.5000 
     31 O          -2.9028  -18.7213  -45.0300 O.2       8 UNK        -0.5000 
     32 CA         -1.9335  -17.0301  -43.6367 C.3       8 UNK         0.1400 
     33 CB         -2.9185  -15.8659  -43.4581 C.3       8 UNK        -0.1800 
     34 N          -1.0325  -17.0819  -42.4819 N.am      8 UNK        -0.5000 
     35 C          -0.0150  -17.9424  -42.3322 C.2       7 UNK         0.5000 
     36 O           0.2621  -18.8097  -43.1623 O.2       7 UNK        -0.5000 
     37 CA          0.8007  -17.8223  -41.0327 C.3       7 UNK         0.1400 
     38 CB          2.2192  -18.4071  -41.1559 C.3       7 UNK        -0.1800 
     39 N           0.8876  -16.4247  -40.6127 N.am      7 UNK        -0.5000 
     40 C           0.6400  -15.9622  -39.3797 C.2       6 UNK         0.5000 
     41 O           0.2685  -16.6792  -38.4490 O.2       6 UNK        -0.5000 
     42 CA          0.8183  -14.4422  -39.1536 C.3       6 UNK         0.1400 
     43 CB          1.1844  -14.0914  -37.6957 C.3       6 UNK        -0.1800 
     44 N           1.7521  -13.8147  -40.0975 N.am      6 UNK        -0.5000 
     45 C           3.0599  -14.0758  -40.2361 C.2       5 UNK         0.5000 
     46 O           3.6992  -14.8496  -39.5204 O.2       5 UNK        -0.5000 
     47 CA          3.7567  -13.3898  -41.4232 C.3       5 UNK         0.1400 
     48 CB          4.9844  -12.5840  -40.9711 C.3       5 UNK        -0.1800 
     49 N           4.1698  -14.3676  -42.4268 N.am      5 UNK        -0.5000 
     50 C           3.3563  -15.1685  -43.1264 C.2       4 UNK         0.5000 
     51 O           2.1293  -15.1701  -43.0009 O.2       4 UNK        -0.5000 
     52 CA          4.0387  -16.1019  -44.1489 C.3       4 UNK         0.1400 
     53 CB          3.0312  -16.9240  -44.9747 C.3       4 UNK        -0.1800 
     54 N           4.8978  -15.3518  -45.0661 N.am      4 UNK        -0.5000 
     55 C           6.1452  -14.9330  -44.8119 C.2       3 UNK         0.5000 
     56 O           6.7317  -15.1489  -43.7507 O.2       3 UNK        -0.5000 
     57 CA          6.8233  -14.0877  -45.9008 C.3       3 UNK         0.1400 
     58 CB          7.2242  -14.9576  -47.1031 C.3       3 UNK        -0.1800 
     59 N           5.9218  -13.0266  -46.3450 N.am      3 UNK        -0.5000 
     60 C           5.9313  -11.7684  -45.8814 C.2       2 UNK         0.5000 
     61 O           6.7699  -11.3348  -45.0907 O.2       2 UNK        -0.5000 
     62 CA          4.8028  -10.8365  -46.3715 C.3       2 UNK         0.1400 
     63 CB          5.2286  -10.0981  -47.6495 C.3       2 UNK        -0.1800 
     64 N           3.5562  -11.5590  -46.6280 N.am      2 UNK        -0.5000 
     65 C           2.7953  -12.1162  -45.6751 C.2       1 UNK         0.5000 
     66 O           2.9740  -11.9192  -44.4738 O.2       1 UNK        -0.5000 
     67 C          -1.2932  -20.6771  -47.6680 C.2       11 UNK         0.5000 
     68 O          -1.0737  -21.1971  -48.7602 O.2       11 UNK        -0.5000 
     69 N          -2.5169  -20.5745  -47.1288 N.am      12 UNK        -0.5000 
     70 CA         -3.7482  -21.0841  -47.7345 C.3       12 UNK         0.1400 
     71 CB         -4.9527  -20.6888  -46.8675 C.3       12 UNK        -0.1800 
     72 C          -3.7222  -22.6079  -47.9497 C.2       12 UNK         0.5000 
     73 O          -4.1533  -23.0744  -49.0025 O.2       12 UNK        -0.5000 
     74 N          -3.1898  -23.3495  -46.9674 N.am      13 UNK        -0.5000 
     75 CA         -2.9953  -24.7980  -47.0368 C.3       13 UNK         0.1400 
     76 CB         -2.6181  -25.3373  -45.6492 C.3       13 UNK        -0.1800 
     77 C          -1.9508  -25.2120  -48.0904 C.2       13 UNK         0.5000 
     78 O          -2.1632  -26.1996  -48.7920 O.2       13 UNK        -0.5000 
     79 N          -0.8586  -24.4446  -48.2091 N.am      14 UNK        -0.5000 
     80 CA          0.1731  -24.6315  -49.2324 C.3       14 UNK         0.1400 
     81 CB          1.4070  -23.7888  -48.8749 C.3       14 UNK        -0.1800 
     82 C          -0.3313  -24.2919  -50.6488 C.2       14 UNK         0.5000 
     83 O           0.0259  -24.9781  -51.6063 O.2       14 UNK        -0.5000 
     84 N          -1.1670  -23.2510  -50.7491 N.am      15 UNK        -0.5000 
     85 CA         -1.8051  -22.7859  -51.9793 C.3       15 UNK         0.1400 
     86 CB         -2.2559  -21.3299  -51.7761 C.3       15 UNK        -0.1800 
     87 C          -2.9861  -23.6605  -52.4443 C.2       15 UNK         0.5000 
     88 O          -3.4814  -23.4468  -53.5530 O.2       15 UNK        -0.5000 
     89 N          -3.4530  -24.6005  -51.6101 N.am      16 UNK        -0.5000 
     90 CA         -4.5493  -25.5215  -51.9166 C.3       16 UNK         0.1400 
     91 CB         -4.8621  -26.3875  -50.6894 C.3       16 UNK        -0.1800 
     92 C          -4.2261  -26.3942  -53.1417 C.2       16 UNK         0.5000 
     93 O          -3.1238  -26.9392  -53.2283 O.2       16 UNK        -0.5000 
     94 N          -5.1731  -26.4557  -54.0879 N.am      17 UNK        -0.5000 
     95 CA         -5.1050  -27.0803  -55.4190 C.3       17 UNK         0.1400 
     96 CB         -4.8422  -28.5952  -55.3229 C.3       17 UNK        -0.1800 
     97 C          -4.1205  -26.4044  -56.3997 C.2       17 UNK         0.5000 
     98 O          -4.4454  -26.2804  -57.5804 O.2       17 UNK        -0.5000 
     99 N          -2.9579  -25.9617  -55.9046 N.am      18 UNK        -0.5000 
    100 CA        -1.9052  -25.2787  -56.6578 C.3       18 UNK         0.1400 
    101 CB        -0.6554  -25.1560  -55.7717 C.3       18 UNK        -0.1800 
    102 C         -2.3368  -23.8962  -57.1801 C.2       18 UNK         0.5000 
    103 O         -2.0630  -23.5691  -58.3356 O.2       18 UNK        -0.5000 
    104 N         -3.0137  -23.1239  -56.3230 N.am      19 UNK        -0.5000 
    105 CA        -3.5516  -21.7942  -56.6146 C.3       19 UNK         0.1400 
    106 CB        -2.6099  -20.7316  -56.0212 C.3       19 UNK        -0.1800 
    107 C         -4.9980  -21.6485  -56.0995 C.2       19 UNK         0.5000 
    108 O         -5.5001  -20.5280  -56.0071 O.2       19 UNK        -0.5000 
    109 N         -5.6407  -22.7843  -55.7831 N.am      20 UNK        -0.5000 
    110 CA        -7.0059  -22.9274  -55.2646 C.3       20 UNK         0.1400 
    111 CB        -8.0428  -22.4743  -56.3141 C.3       20 UNK        -0.1800 
    112 C         -7.2156  -22.2734  -53.8805 C.2       20 UNK         0.5000 
    113 O         -8.3021  -21.7632  -53.6024 O.2       20 UNK        -0.5000 
    114 N         -6.1779  -22.3307  -53.0315 N.am      21 UNK        -0.5000 
    115 CA        -6.1176  -21.7867  -51.6705 C.3       21 UNK         0.1400 
    116 CB        -7.0757  -22.5453  -50.7225 C.3       21 UNK        -0.1800 
    117 C         -6.2889  -20.2539  -51.6668 C.2       21 UNK         0.5000 
    118 O         -5.4752  -19.5644  -52.2835 O.2       21 UNK        -0.5000 
    119 N         -7.3227  -19.7536  -50.9829 N.am      22 UNK        -0.5000 
    120 CA        -7.7104  -18.3396  -50.9370 C.3       22 UNK         0.1400 
    121 C         -9.1805  -18.1896  -51.4040 C.2       22 UNK         0.5000 
    122 N         -9.4897  -17.1724  -52.1965 N.am      22 UNK        -0.7600 
    123 O        -10.0539  -18.9655  -51.0209 O.2       22 UNK        -0.5000 
    124 C124       -7.5349  -17.7295  -49.5217 C.3       23 UNK        -0.0398 
    125 S125       -5.8278  -17.8103  -48.8838 S.3       23 UNK        -0.2404 
    126 C126       -5.0327  -16.5066  -49.8673 C.3       23 UNK        -0.0205 
    127 H127        3.3717  -14.1524  -50.1547 H         1 UNK         0.0600 
    128 H128        1.6118  -14.1585  -49.9923 H         1 UNK         0.0600 
    129 H129        2.5293  -15.6395  -49.7080 H         1 UNK         0.0600 
    130 H130        0.9742  -13.1446  -48.1140 H         1 UNK         0.3000 
    131 H131        1.8341  -13.9929  -45.5464 H         1 UNK         0.0600 
    132 H132        0.2702  -12.2024  -44.6970 H         1 UNK         0.0800 
    133 H133        0.0100  -11.6649  -46.3350 H         1 UNK         0.0800 
    134 H134       -2.6127  -12.8679  -47.3938 H         1 UNK         0.0800 
    135 H135       -1.0265  -12.8917  -48.1200 H         1 UNK         0.0800 
    136 H136       -4.1401  -14.3660  -48.4345 H         1 UNK         0.1150 
    137 H137       -2.8035  -18.0232  -50.2265 H         1 UNK         0.1150 
    138 H138        0.0012  -15.4373  -48.2752 H         1 UNK         0.1150 
    139 H139       -0.5679  -18.7963  -49.8886 H         1 UNK         0.0800 
    140 H140        0.3724  -17.4568  -50.4889 H         1 UNK         0.0800 
    141 H141       -0.9448  -18.1316  -46.8870 H         1 UNK         0.0800 
    142 H142        0.5192  -18.2690  -45.9734 H         1 UNK         0.0800 
    143 H143        0.7987  -20.6128  -47.2356 H         1 UNK         0.0600 
    144 H144       -0.2845  -19.9769  -44.7059 H         1 UNK         0.3000 
    145 H145       -0.8118  -23.3102  -43.5568 H         1 UNK         0.0600 
    146 H146        0.6383  -22.4057  -41.7246 H         1 UNK         0.0600 
    147 H147        1.5775  -22.9114  -43.1208 H         1 UNK         0.0600 
    148 H148        1.2926  -21.2028  -42.8362 H         1 UNK         0.0600 
    149 H149       -1.1511  -20.6270  -42.4978 H         1 UNK         0.3000 
    150 H150       -4.5648  -20.2989  -43.4849 H         1 UNK         0.0600 
    151 H151       -4.6764  -21.7075  -41.4244 H         1 UNK         0.0600 
    152 H152       -4.8926  -20.0063  -41.0460 H         1 UNK         0.0600 
    153 H153       -3.3506  -20.7955  -40.7126 H         1 UNK         0.0600 
    154 H154       -2.8445  -18.6682  -41.8826 H         1 UNK         0.3000 
    155 H155       -1.3246  -16.8318  -44.5214 H         1 UNK         0.0600 
    156 H156       -3.5634  -16.0108  -42.5906 H         1 UNK         0.0600 
    157 H157       -2.3929  -14.9195  -43.3306 H         1 UNK         0.0600 
    158 H158       -3.5606  -15.7631  -44.3341 H         1 UNK         0.0600 
    159 H159       -1.1885  -16.3996  -41.7549 H         1 UNK         0.3000 
    160 H160        0.2596  -18.4075  -40.2870 H         1 UNK         0.0600 
    161 H161        2.7954  -17.9062  -41.9325 H         1 UNK         0.0600 
    162 H162        2.1889  -19.4690  -41.4000 H         1 UNK         0.0600 
    163 H163        2.7670  -18.3073  -40.2187 H         1 UNK         0.0600 
    164 H164        1.1933  -15.7762  -41.3337 H         1 UNK         0.3000 
    165 H165       -0.1566  -13.9980  -39.3584 H         1 UNK         0.0600 
    166 H166        1.3033  -13.0157  -37.5667 H         1 UNK         0.0600 
    167 H167        0.4024  -14.4139  -37.0074 H         1 UNK         0.0600 
    168 H168        2.1114  -14.5720  -37.3821 H         1 UNK         0.0600 
    169 H169        1.3263  -13.1846  -40.7633 H         1 UNK         0.3000 
    170 H170        3.0560  -12.6991  -41.8958 H         1 UNK         0.0600 
    171 H171        4.7083  -11.8397  -40.2232 H         1 UNK         0.0600 
    172 H172        5.7492  -13.2255  -40.5313 H         1 UNK         0.0600 
    173 H173        5.4347  -12.0518  -41.8097 H         1 UNK         0.0600 
    174 H174        5.1657  -14.4549  -42.5924 H         1 UNK         0.3000 
    175 H175        4.6529  -16.8053  -43.5832 H         1 UNK         0.0600 
    176 H176        2.3632  -16.2880  -45.5556 H         1 UNK         0.0600 
    177 H177        3.5414  -17.5896  -45.6709 H         1 UNK         0.0600 
    178 H178        2.4107  -17.5471  -44.3312 H         1 UNK         0.0600 
    179 H179        4.4795  -15.1096  -45.9625 H         1 UNK         0.3000 
    180 H180        7.7346  -13.6582  -45.4792 H         1 UNK         0.0600 
    181 H181        6.3586  -15.4175  -47.5815 H         1 UNK         0.0600 
    182 H182        7.8954  -15.7606  -46.7962 H         1 UNK         0.0600 
    183 H183        7.7463  -14.3674  -47.8563 H         1 UNK         0.0600 
    184 H184        5.1642  -13.3170  -46.9526 H         1 UNK         0.3000 
    185 H185        4.6186  -10.0944  -45.5917 H         1 UNK         0.0600 
    186 H186        6.1453   -9.5304  -47.4844 H         1 UNK         0.0600 
    187 H187        5.4145  -10.7898  -48.4722 H         1 UNK         0.0600 
    188 H188        4.4631   -9.3914  -47.9704 H         1 UNK         0.0600 
    189 H189        3.3335  -11.7579  -47.5921 H         1 UNK         0.3000 
    190 H190       -2.6229  -20.0709  -46.2509 H         1 UNK         0.3000 
    191 H191       -3.8577  -20.6045  -48.7092 H         1 UNK         0.0600 
    192 H192       -4.9376  -21.1885  -45.8992 H         1 UNK         0.0600 
    193 H193       -5.8888  -20.9539  -47.3603 H         1 UNK         0.0600 
    194 H194       -4.9736  -19.6150  -46.6839 H         1 UNK         0.0600 
    195 H195       -2.9144  -22.8923  -46.1052 H         1 UNK         0.3000 
    196 H196       -3.9485  -25.2468  -47.3242 H         1 UNK         0.0600 
    197 H197       -2.5118  -26.4226  -45.6689 H         1 UNK         0.0600 
    198 H198       -3.3845  -25.0986  -44.9116 H         1 UNK         0.0600 
    199 H199       -1.6741  -24.9222  -45.2971 H         1 UNK         0.0600 
    200 H200       -0.7190  -23.6833  -47.5516 H         1 UNK         0.3000 
    201 H201        0.4689  -25.6826  -49.2280 H         1 UNK         0.0600 
    202 H202        1.8056  -24.0688  -47.8997 H         1 UNK         0.0600 
    203 H203        1.1749  -22.7239  -48.8466 H         1 UNK         0.0600 
    204 H204        2.2031  -23.9324  -49.6064 H         1 UNK         0.0600 
    205 H205       -1.3400  -22.6925  -49.9171 H         1 UNK         0.3000 
    206 H206       -1.0657  -22.8018  -52.7824 H         1 UNK         0.0600 
    207 H207       -1.3994  -20.6727  -51.6258 H         1 UNK         0.0600 
    208 H208       -2.8075  -20.9527  -52.6371 H         1 UNK         0.0600 
    209 H209       -2.9045  -21.2287  -50.9065 H         1 UNK         0.0600 
    210 H210       -3.0086  -24.7079  -50.7091 H         1 UNK         0.3000 
    211 H211       -5.4302  -24.9174  -52.1363 H         1 UNK         0.0600 
    212 H212       -4.0369  -27.0595  -50.4525 H         1 UNK         0.0600 
    213 H213       -5.7449  -27.0037  -50.8630 H         1 UNK         0.0600 
    214 H214       -5.0603  -25.7726  -49.8109 H         1 UNK         0.0600 
    215 H215       -6.0417  -25.9757  -53.9021 H         1 UNK         0.3000 
    216 H216       -6.0999  -26.9534  -55.8488 H         1 UNK         0.0600 
    217 H217       -4.9219  -29.0647  -56.3041 H         1 UNK         0.0600 
    218 H218       -5.5681  -29.0808  -54.6707 H         1 UNK         0.0600 
    219 H219       -3.8457  -28.8159  -54.9398 H         1 UNK         0.0600 
    220 H220       -2.7753  -26.1469  -54.9223 H         1 UNK         0.3000 
    221 H221       -1.6537  -25.8982  -57.5210 H         1 UNK         0.0600 
    222 H222       -0.8574  -24.5839  -54.8651 H         1 UNK         0.0600 
    223 H223       -0.2887  -26.1374  -55.4706 H         1 UNK         0.0600 
    224 H224        0.1545  -24.6554  -56.3038 H         1 UNK         0.0600 
    225 H225       -3.1547  -23.4472  -55.3677 H         1 UNK         0.3000 
    226 H226       -3.6032  -21.6416  -57.6943 H         1 UNK         0.0600 
    227 H227       -1.6046  -20.8240  -56.4324 H         1 UNK         0.0600 
    228 H228       -2.9587  -19.7227  -56.2442 H         1 UNK         0.0600 
    229 H229       -2.5375  -20.8248  -54.9384 H         1 UNK         0.0600 
    230 H230       -5.1295  -23.6440  -55.9159 H         1 UNK         0.3000 
    231 H231       -7.1547  -23.9966  -55.1092 H         1 UNK         0.0600 
    232 H232       -9.0559  -22.7239  -55.9967 H         1 UNK         0.0600 
    233 H233       -7.8750  -22.9659  -57.2723 H         1 UNK         0.0600 
    234 H234       -8.0096  -21.3970  -56.4788 H         1 UNK         0.0600 
    235 H235       -5.3035  -22.7094  -53.3815 H         1 UNK         0.3000 
    236 H236       -5.1072  -21.9715  -51.3106 H         1 UNK         0.0600 
    237 H237       -8.1220  -22.4333  -51.0077 H         1 UNK         0.0600 
    238 H238       -6.8495  -23.6108  -50.7106 H         1 UNK         0.0600 
    239 H239       -6.9687  -22.1925  -49.6958 H         1 UNK         0.0600 
    240 H240       -7.9847  -20.3910  -50.5635 H         1 UNK         0.3000 
    241 H241       -7.0923  -17.7680  -51.6312 H         1 UNK         0.0600 
    242 H242      -10.4468  -17.0586  -52.4937 H         1 UNK         0.3800 
    243 H243       -8.7937  -16.5168  -52.5174 H         1 UNK         0.3800 
    244 H244       -7.8552  -16.6861  -49.5120 H         1 UNK         0.0800 
    245 H245       -8.1768  -18.2466  -48.8063 H         1 UNK         0.0800 
    246 H246       -4.9992  -16.8123  -50.9140 H         1 UNK         0.0800 
    247 H247       -5.6367  -15.5989  -49.8268 H         1 UNK         0.0800 
@<TRIPOS>BOND
     1    1    2 1    
     2    1  127 1    
     3    1  128 1    
     4    1  129 1    
     5    2    3 2    
     6    2    4 am   BACKBONE|DICT|INTERRES
     7    4    5 1    
     8    4  130 1    
     9    5    6 1    
    10    5   65 1    
    11    5  131 1    
    12    6    7 1    
    13    6  132 1    
    14    6  133 1    
    15    7    8 1    
    16    8    9 1    
    17    8  134 1    
    18    8  135 1    
    19    9   10 ar   
    20    9   14 ar   
    21   10   11 ar   
    22   10  136 1    
    23   11   12 ar   
    24   11  126 1    
    25   12   13 ar   
    26   12  137 1    
    27   13   14 ar   
    28   13   15 1    
    29   14  138 1    
    30   15   16 1    
    31   15  139 1    
    32   15  140 1    
    33   16   17 1    
    34   17   18 1    
    35   17  141 1    
    36   17  142 1    
    37   18   19 1    
    38   18   67 1    
    39   18  143 1    
    40   19   20 am   BACKBONE|DICT|INTERRES
    41   19  144 1    
    42   20   21 2    
    43   20   22 1    
    44   22   23 1    
    45   22   24 1    
    46   22  145 1    
    47   23  146 1    
    48   23  147 1    
    49   23  148 1    
    50   24   25 am   BACKBONE|DICT|INTERRES
    51   24  149 1    
    52   25   26 2    
    53   25   27 1    
    54   27   28 1    
    55   27   29 1    
    56   27  150 1    
    57   28  151 1    
    58   28  152 1    
    59   28  153 1    
    60   29   30 am   BACKBONE|DICT|INTERRES
    61   29  154 1    
    62   30   31 2    
    63   30   32 1    
    64   32   33 1    
    65   32   34 1    
    66   32  155 1    
    67   33  156 1    
    68   33  157 1    
    69   33  158 1    
    70   34   35 am   BACKBONE|DICT|INTERRES
    71   34  159 1    
    72   35   36 2    
    73   35   37 1    
    74   37   38 1    
    75   37   39 1    
    76   37  160 1    
    77   38  161 1    
    78   38  162 1    
    79   38  163 1    
    80   39   40 am   BACKBONE|DICT|INTERRES
    81   39  164 1    
    82   40   41 2    
    83   40   42 1    
    84   42   43 1    
    85   42   44 1    
    86   42  165 1    
    87   43  166 1    
    88   43  167 1    
    89   43  168 1    
    90   44   45 am   BACKBONE|DICT|INTERRES
    91   44  169 1    
    92   45   46 2    
    93   45   47 1    
    94   47   48 1    
    95   47   49 1    
    96   47  170 1    
    97   48  171 1    
    98   48  172 1    
    99   48  173 1    
   100   49   50 am   BACKBONE|DICT|INTERRES
   101   49  174 1    
   102   50   51 2    
   103   50   52 1    
   104   52   53 1    
   105   52   54 1    
   106   52  175 1    
   107   53  176 1    
   108   53  177 1    
   109   53  178 1    
   110   54   55 am   BACKBONE|DICT|INTERRES
   111   54  179 1    
   112   55   56 2    
   113   55   57 1    
   114   57   58 1    
   115   57   59 1    
   116   57  180 1    
   117   58  181 1    
   118   58  182 1    
   119   58  183 1    
   120   59   60 am   BACKBONE|DICT|INTERRES
   121   59  184 1    
   122   60   61 2    
   123   60   62 1    
   124   62   63 1    
   125   62   64 1    
   126   62  185 1    
   127   63  186 1    
   128   63  187 1    
   129   63  188 1    
   130   64   65 am   BACKBONE|DICT|INTERRES
   131   64  189 1    
   132   65   66 2    
   133   67   68 2    
   134   67   69 am   BACKBONE|DICT|INTERRES
   135   69   70 1    
   136   69  190 1    
   137   70   71 1    
   138   70   72 1    
   139   70  191 1    
   140   71  192 1    
   141   71  193 1    
   142   71  194 1    
   143   72   73 2    
   144   72   74 am   BACKBONE|DICT|INTERRES
   145   74   75 1    
   146   74  195 1    
   147   75   76 1    
   148   75   77 1    
   149   75  196 1    
   150   76  197 1    
   151   76  198 1    
   152   76  199 1    
   153   77   78 2    
   154   77   79 am   BACKBONE|DICT|INTERRES
   155   79   80 1    
   156   79  200 1    
   157   80   81 1    
   158   80   82 1    
   159   80  201 1    
   160   81  202 1    
   161   81  203 1    
   162   81  204 1    
   163   82   83 2    
   164   82   84 am   BACKBONE|DICT|INTERRES
   165   84   85 1    
   166   84  205 1    
   167   85   86 1    
   168   85   87 1    
   169   85  206 1    
   170   86  207 1    
   171   86  208 1    
   172   86  209 1    
   173   87   88 2    
   174   87   89 am   BACKBONE|DICT|INTERRES
   175   89   90 1    
   176   89  210 1    
   177   90   91 1    
   178   90   92 1    
   179   90  211 1    
   180   91  212 1    
   181   91  213 1    
   182   91  214 1    
   183   92   93 2    
   184   92   94 am   BACKBONE|DICT|INTERRES
   185   94   95 1    
   186   94  215 1    
   187   95   96 1    
   188   95   97 1    
   189   95  216 1    
   190   96  217 1    
   191   96  218 1    
   192   96  219 1    
   193   97   98 2    
   194   97   99 am   BACKBONE|DICT|INTERRES
   195   99  100 1    
   196   99  220 1    
   197  100  101 1    
   198  100  102 1    
   199  100  221 1    
   200  101  222 1    
   201  101  223 1    
   202  101  224 1    
   203  102  103 2    
   204  102  104 am   BACKBONE|DICT|INTERRES
   205  104  105 1    
   206  104  225 1    
   207  105  106 1    
   208  105  107 1    
   209  105  226 1    
   210  106  227 1    
   211  106  228 1    
   212  106  229 1    
   213  107  108 2    
   214  107  109 am   BACKBONE|DICT|INTERRES
   215  109  110 1    
   216  109  230 1    
   217  110  111 1    
   218  110  112 1    
   219  110  231 1    
   220  111  232 1    
   221  111  233 1    
   222  111  234 1    
   223  112  113 2    
   224  112  114 am   BACKBONE|DICT|INTERRES
   225  114  115 1    
   226  114  235 1    
   227  115  116 1    
   228  115  117 1    
   229  115  236 1    
   230  116  237 1    
   231  116  238 1    
   232  116  239 1    
   233  117  118 2    
   234  117  119 am   BACKBONE|DICT|INTERRES
   235  119  120 1    
   236  119  240 1    
   237  120  121 1    
   238  120  124 1    
   239  120  241 1    
   240  121  122 am   BACKBONE|DICT|INTERRES
   241  121  123 2    
   242  122  242 1    
   243  122  243 1    
   244  124  125 1    
   245  124  244 1    
   246  124  245 1    
   247  125  126 1    
   248  126  246 1    
   249  126  247 1    
@<TRIPOS>SUBSTRUCTURE
     1 UNK         1 GROUP             0       ****    0 ROOT    
