@<TRIPOS>MOLECULE
3R540
247   249    1
SMALL
USER_CHARGES


@<TRIPOS>ATOM
      1 CA         -3.1741  -12.6528  -50.7397 C.3       0 UNK        -0.1800 
      2 C          -2.2794  -12.5835  -49.5116 C.2       0 UNK         0.5000 
      3 O          -1.5878  -11.5856  -49.3119 O.2       0 UNK        -0.5000 
      4 N          -2.3054  -13.6307  -48.6765 N.am      1 UNK        -0.5000 
      5 CA         -1.4689  -13.8019  -47.4777 C.3       1 UNK         0.1400 
      6 C6         -1.6501  -15.1980  -46.8352 C.3       23 UNK        -0.0398 
      7 S7         -1.3819  -16.5521  -48.0263 S.3       23 UNK        -0.2404 
      8 C8          0.3841  -16.8795  -47.7771 C.3       23 UNK        -0.0205 
      9 C9          0.8967  -17.8933  -48.7849 C.ar      23 UNK        -0.0193 
     10 C10         1.3603  -17.4619  -50.0291 C.ar      23 UNK        -0.1150 
     11 C11         1.8436  -18.3791  -50.9647 C.ar      23 UNK        -0.0193 
     12 C12         1.8445  -19.7433  -50.6506 C.ar      23 UNK        -0.1150 
     13 C13         1.3937  -20.1911  -49.4019 C.ar      23 UNK        -0.0193 
     14 C14         0.9261  -19.2552  -48.4728 C.ar      23 UNK        -0.1150 
     15 C15         1.4821  -21.6725  -49.0404 C.3       23 UNK        -0.0205 
     16 S16        -0.1424  -22.5019  -48.9467 S.3       23 UNK        -0.2404 
     17 C17        -0.5355  -22.3664  -47.1743 C.3       23 UNK        -0.0398 
     18 CA         -0.2585  -23.6778  -46.3994 C.3       11 UNK         0.1400 
     19 N           0.3013  -23.4036  -45.0705 N.am      11 UNK        -0.5000 
     20 C           0.7507  -24.3114  -44.1915 C.2       10 UNK         0.5000 
     21 O           0.7398  -25.5259  -44.3931 O.2       10 UNK        -0.5000 
     22 CA          1.2414  -23.7627  -42.8414 C.3       10 UNK         0.1400 
     23 CB          2.6968  -23.2811  -42.9436 C.3       10 UNK        -0.1800 
     24 N           0.3905  -22.6606  -42.3886 N.am      10 UNK        -0.5000 
     25 C          -0.7685  -22.8237  -41.7350 C.2       9 UNK         0.5000 
     26 O          -1.1884  -23.9161  -41.3542 O.2       9 UNK        -0.5000 
     27 CA         -1.6159  -21.5605  -41.4823 C.3       9 UNK         0.1400 
     28 CB         -1.2210  -20.9043  -40.1509 C.3       9 UNK        -0.1800 
     29 N          -1.5138  -20.5673  -42.5532 N.am      9 UNK        -0.5000 
     30 C          -1.9525  -20.7435  -43.8080 C.2       8 UNK         0.5000 
     31 O          -2.5245  -21.7611  -44.1970 O.2       8 UNK        -0.5000 
     32 CA         -1.6555  -19.6117  -44.8127 C.3       8 UNK         0.1400 
     33 CB         -2.8113  -18.6017  -44.8365 C.3       8 UNK        -0.1800 
     34 N          -0.3981  -18.8987  -44.5645 N.am      8 UNK        -0.5000 
     35 C           0.8198  -19.4497  -44.4461 C.2       7 UNK         0.5000 
     36 O           1.0224  -20.6606  -44.5341 O.2       7 UNK        -0.5000 
     37 CA          2.0091  -18.5094  -44.1681 C.3       7 UNK         0.1400 
     38 CB          3.0423  -18.5748  -45.3043 C.3       7 UNK        -0.1800 
     39 N           1.6230  -17.1125  -43.9558 N.am      7 UNK        -0.5000 
     40 C           1.0601  -16.6151  -42.8479 C.2       6 UNK         0.5000 
     41 O           0.7691  -17.3103  -41.8733 O.2       6 UNK        -0.5000 
     42 CA          0.7726  -15.0953  -42.8426 C.3       6 UNK         0.1400 
     43 CB          0.3736  -14.5736  -41.4507 C.3       6 UNK        -0.1800 
     44 N           1.8992  -14.2976  -43.3383 N.am      6 UNK        -0.5000 
     45 C           2.2370  -14.1434  -44.6236 C.2       5 UNK         0.5000 
     46 O           1.6598  -14.7141  -45.5526 O.2       5 UNK        -0.5000 
     47 CA          3.4613  -13.2624  -44.9190 C.3       5 UNK         0.1400 
     48 CB          4.6924  -14.1374  -45.2015 C.3       5 UNK        -0.1800 
     49 N           3.1992  -12.4160  -46.0798 N.am      5 UNK        -0.5000 
     50 C           2.4503  -11.3074  -46.0467 C.2       4 UNK         0.5000 
     51 O           2.0398  -10.7984  -45.0005 O.2       4 UNK        -0.5000 
     52 CA          2.1122  -10.6472  -47.3957 C.3       4 UNK         0.1400 
     53 CB          2.1693  -11.6111  -48.5998 C.3       4 UNK        -0.1800 
     54 N           0.7790  -10.0602  -47.3119 N.am      4 UNK        -0.5000 
     55 C           0.3995   -8.8999  -47.8603 C.2       3 UNK         0.5000 
     56 O           1.1620   -8.1753  -48.5026 O.2       3 UNK        -0.5000 
     57 CA         -1.0714   -8.4718  -47.6725 C.3       3 UNK         0.1400 
     58 CB         -1.6895   -7.9916  -48.9976 C.3       3 UNK        -0.1800 
     59 N          -1.8908   -9.5672  -47.1535 N.am      3 UNK        -0.5000 
     60 C          -2.4086   -9.6410  -45.9201 C.2       2 UNK         0.5000 
     61 O          -2.2871   -8.7545  -45.0741 O.2       2 UNK        -0.5000 
     62 CA         -3.1912  -10.9226  -45.5589 C.3       2 UNK         0.1400 
     63 CB         -4.7041  -10.6685  -45.6439 C.3       2 UNK        -0.1800 
     64 N          -2.8592  -12.0747  -46.4012 N.am      2 UNK        -0.5000 
     65 C          -1.6710  -12.6953  -46.4198 C.2       1 UNK         0.5000 
     66 O          -0.7419  -12.3926  -45.6739 O.2       1 UNK        -0.5000 
     67 C          -1.5100  -24.5827  -46.3678 C.2       11 UNK         0.5000 
     68 O          -1.7927  -25.2637  -47.3535 O.2       11 UNK        -0.5000 
     69 N          -2.2115  -24.6207  -45.2261 N.am      12 UNK        -0.5000 
     70 CA         -3.3244  -25.5220  -44.9203 C.3       12 UNK         0.1400 
     71 CB         -3.8231  -25.2287  -43.4988 C.3       12 UNK        -0.1800 
     72 C          -2.9897  -27.0215  -45.0779 C.2       12 UNK         0.5000 
     73 O          -3.8956  -27.8085  -45.3521 O.2       12 UNK        -0.5000 
     74 N          -1.7026  -27.3906  -44.9733 N.am      13 UNK        -0.5000 
     75 CA         -1.1909  -28.7306  -45.2826 C.3       13 UNK         0.1400 
     76 CB          0.2722  -28.8278  -44.8263 C.3       13 UNK        -0.1800 
     77 C          -1.3144  -29.1055  -46.7765 C.2       13 UNK         0.5000 
     78 O          -1.3886  -30.2915  -47.0980 O.2       13 UNK        -0.5000 
     79 N          -1.3689  -28.0931  -47.6522 N.am      14 UNK        -0.5000 
     80 CA         -1.6400  -28.1975  -49.0863 C.3       14 UNK         0.1400 
     81 CB         -0.5586  -27.4099  -49.8487 C.3       14 UNK        -0.1800 
     82 C          -3.0596  -27.6801  -49.4051 C.2       14 UNK         0.5000 
     83 O          -3.3004  -27.1771  -50.5041 O.2       14 UNK        -0.5000 
     84 N          -3.9678  -27.7659  -48.4187 N.am      15 UNK        -0.5000 
     85 CA         -5.3711  -27.3330  -48.4404 C.3       15 UNK         0.1400 
     86 CB         -6.1797  -28.1800  -49.4451 C.3       15 UNK        -0.1800 
     87 C          -5.5653  -25.8171  -48.6660 C.2       15 UNK         0.5000 
     88 O          -6.6656  -25.3965  -49.0256 O.2       15 UNK        -0.5000 
     89 N          -4.4965  -25.0280  -48.4678 N.am      16 UNK        -0.5000 
     90 CA         -4.3850  -23.5915  -48.7386 C.3       16 UNK         0.1400 
     91 CB         -5.2938  -22.7799  -47.7924 C.3       16 UNK        -0.1800 
     92 C          -4.5752  -23.2309  -50.2286 C.2       16 UNK         0.5000 
     93 O          -4.9072  -22.0871  -50.5416 O.2       16 UNK        -0.5000 
     94 N          -4.3400  -24.1980  -51.1296 N.am      17 UNK        -0.5000 
     95 CA         -4.5002  -24.0387  -52.5756 C.3       17 UNK         0.1400 
     96 CB         -4.3706  -25.4082  -53.2582 C.3       17 UNK        -0.1800 
     97 C          -3.5029  -23.0307  -53.1700 C.2       17 UNK         0.5000 
     98 O          -3.8933  -22.1906  -53.9822 O.2       17 UNK        -0.5000 
     99 N          -2.2430  -23.1014  -52.7170 N.am      18 UNK        -0.5000 
    100 CA        -1.2016  -22.1457  -53.0869 C.3       18 UNK         0.1400 
    101 CB         0.1857  -22.6978  -52.7314 C.3       18 UNK        -0.1800 
    102 C         -1.4508  -20.7584  -52.4712 C.2       18 UNK         0.5000 
    103 O         -1.2997  -19.7670  -53.1755 O.2       18 UNK        -0.5000 
    104 N         -1.9026  -20.7055  -51.2094 N.am      19 UNK        -0.5000 
    105 CA        -2.2759  -19.4691  -50.5120 C.3       19 UNK         0.1400 
    106 CB        -2.6540  -19.7801  -49.0548 C.3       19 UNK        -0.1800 
    107 C         -3.4104  -18.6997  -51.2124 C.2       19 UNK         0.5000 
    108 O         -3.3497  -17.4734  -51.2997 O.2       19 UNK        -0.5000 
    109 N         -4.4021  -19.4379  -51.7312 N.am      20 UNK        -0.5000 
    110 CA        -5.4805  -18.9075  -52.5620 C.3       20 UNK         0.1400 
    111 CB        -6.5510  -19.9894  -52.7708 C.3       20 UNK        -0.1800 
    112 C         -4.9670  -18.3646  -53.9090 C.2       20 UNK         0.5000 
    113 O         -5.3371  -17.2540  -54.2921 O.2       20 UNK        -0.5000 
    114 N         -4.0988  -19.1329  -54.5846 N.am      21 UNK        -0.5000 
    115 CA        -3.4643  -18.7558  -55.8524 C.3       21 UNK         0.1400 
    116 CB        -2.6968  -19.9582  -56.4226 C.3       21 UNK        -0.1800 
    117 C         -2.5455  -17.5224  -55.7329 C.2       21 UNK         0.5000 
    118 O         -2.5317  -16.6858  -56.6369 O.2       21 UNK        -0.5000 
    119 N         -1.8271  -17.4171  -54.6093 N.am      22 UNK        -0.5000 
    120 CA        -1.0034  -16.2621  -54.2184 C.3       22 UNK         0.1400 
    121 C         -1.8131  -14.9889  -53.8242 C.2       22 UNK         0.5000 
    122 N         -3.1363  -15.0295  -53.7159 N.am      22 UNK        -0.7600 
    123 O         -1.2243  -13.9288  -53.6319 O.2       22 UNK        -0.5000 
    124 C124        0.0145  -16.6366  -53.1076 C.3       23 UNK        -0.0398 
    125 S125        1.2253  -17.8921  -53.6508 S.3       23 UNK        -0.2404 
    126 C126        2.4256  -17.8817  -52.2827 C.3       23 UNK        -0.0205 
    127 H127       -2.5911  -12.4479  -51.6375 H         1 UNK         0.0600 
    128 H128       -3.9668  -11.9083  -50.6693 H         1 UNK         0.0600 
    129 H129       -3.6330  -13.6357  -50.8508 H         1 UNK         0.0600 
    130 H130       -2.8819  -14.4273  -48.9094 H         1 UNK         0.3000 
    131 H131       -0.4312  -13.7249  -47.8075 H         1 UNK         0.0600 
    132 H132       -2.6591  -15.3038  -46.4327 H         1 UNK         0.0800 
    133 H133       -0.9712  -15.3271  -45.9905 H         1 UNK         0.0800 
    134 H134        0.5417  -17.2361  -46.7604 H         1 UNK         0.0800 
    135 H135        0.9454  -15.9486  -47.8708 H         1 UNK         0.0800 
    136 H136        1.3552  -16.4067  -50.2637 H         1 UNK         0.1150 
    137 H137        2.2274  -20.4524  -51.3705 H         1 UNK         0.1150 
    138 H138        0.5873  -19.5775  -47.5013 H         1 UNK         0.1150 
    139 H139        2.0814  -22.1988  -49.7847 H         1 UNK         0.0800 
    140 H140        2.0185  -21.7879  -48.0975 H         1 UNK         0.0800 
    141 H141       -1.5727  -22.0453  -47.0650 H         1 UNK         0.0800 
    142 H142        0.0624  -21.5571  -46.7645 H         1 UNK         0.0800 
    143 H143        0.5145  -24.2407  -46.9269 H         1 UNK         0.0600 
    144 H144        0.4046  -22.4235  -44.8235 H         1 UNK         0.3000 
    145 H145        1.2050  -24.5746  -42.1118 H         1 UNK         0.0600 
    146 H146        3.0587  -22.9168  -41.9821 H         1 UNK         0.0600 
    147 H147        3.3543  -24.0953  -43.2510 H         1 UNK         0.0600 
    148 H148        2.8110  -22.4765  -43.6707 H         1 UNK         0.0600 
    149 H149        0.6401  -21.7366  -42.7168 H         1 UNK         0.3000 
    150 H150       -2.6600  -21.8734  -41.4133 H         1 UNK         0.0600 
    151 H151       -1.3033  -21.6133  -39.3260 H         1 UNK         0.0600 
    152 H152       -1.8712  -20.0606  -39.9189 H         1 UNK         0.0600 
    153 H153       -0.1928  -20.5403  -40.1707 H         1 UNK         0.0600 
    154 H154       -1.0469  -19.7009  -42.3259 H         1 UNK         0.3000 
    155 H155       -1.5854  -20.0576  -45.8043 H         1 UNK         0.0600 
    156 H156       -2.9059  -18.0744  -43.8865 H         1 UNK         0.0600 
    157 H157       -3.7617  -19.1000  -45.0329 H         1 UNK         0.0600 
    158 H158       -2.6711  -17.8594  -45.6212 H         1 UNK         0.0600 
    159 H159       -0.4656  -17.8981  -44.4615 H         1 UNK         0.3000 
    160 H160        2.4899  -18.8737  -43.2579 H         1 UNK         0.0600 
    161 H161        2.6425  -18.1950  -46.2437 H         1 UNK         0.0600 
    162 H162        3.3708  -19.6002  -45.4799 H         1 UNK         0.0600 
    163 H163        3.9294  -17.9898  -45.0610 H         1 UNK         0.0600 
    164 H164        1.8030  -16.4623  -44.7151 H         1 UNK         0.3000 
    165 H165       -0.0788  -14.9346  -43.5075 H         1 UNK         0.0600 
    166 H166        0.1317  -13.5110  -41.4827 H         1 UNK         0.0600 
    167 H167       -0.5091  -15.0920  -41.0739 H         1 UNK         0.0600 
    168 H168        1.1742  -14.7146  -40.7236 H         1 UNK         0.0600 
    169 H169        2.4523  -13.8322  -42.6331 H         1 UNK         0.3000 
    170 H170        3.6740  -12.6317  -44.0530 H         1 UNK         0.0600 
    171 H171        4.9247  -14.7720  -44.3452 H         1 UNK         0.0600 
    172 H172        4.5352  -14.7914  -46.0605 H         1 UNK         0.0600 
    173 H173        5.5729  -13.5265  -45.4014 H         1 UNK         0.0600 
    174 H174        3.4651  -12.7943  -46.9768 H         1 UNK         0.3000 
    175 H175        2.8526   -9.8588  -47.5447 H         1 UNK         0.0600 
    176 H176        1.5186  -12.4740  -48.4554 H         1 UNK         0.0600 
    177 H177        1.8530  -11.1119  -49.5160 H         1 UNK         0.0600 
    178 H178        3.1817  -11.9768  -48.7729 H         1 UNK         0.0600 
    179 H179        0.1215  -10.5688  -46.7329 H         1 UNK         0.3000 
    180 H180       -1.0695   -7.6312  -46.9761 H         1 UNK         0.0600 
    181 H181       -2.7265   -7.6850  -48.8597 H         1 UNK         0.0600 
    182 H182       -1.6698   -8.7753  -49.7560 H         1 UNK         0.0600 
    183 H183       -1.1497   -7.1323  -49.3972 H         1 UNK         0.0600 
    184 H184       -1.9984  -10.3564  -47.7841 H         1 UNK         0.3000 
    185 H185       -2.9433  -11.1765  -44.5262 H         1 UNK         0.0600 
    186 H186       -5.2704  -11.5412  -45.3179 H         1 UNK         0.0600 
    187 H187       -4.9974   -9.8353  -45.0039 H         1 UNK         0.0600 
    188 H188       -5.0143  -10.4260  -46.6612 H         1 UNK         0.0600 
    189 H189       -3.5644  -12.3740  -47.0590 H         1 UNK         0.3000 
    190 H190       -1.9525  -23.9697  -44.4963 H         1 UNK         0.3000 
    191 H191       -4.1309  -25.2923  -45.6185 H         1 UNK         0.0600 
    192 H192       -4.6908  -25.8425  -43.2536 H         1 UNK         0.0600 
    193 H193       -4.1217  -24.1855  -43.3920 H         1 UNK         0.0600 
    194 H194       -3.0532  -25.4349  -42.7543 H         1 UNK         0.0600 
    195 H195       -1.0075  -26.6871  -44.7470 H         1 UNK         0.3000 
    196 H196       -1.7763  -29.4542  -44.7117 H         1 UNK         0.0600 
    197 H197        0.9097  -28.1316  -45.3727 H         1 UNK         0.0600 
    198 H198        0.3703  -28.6079  -43.7630 H         1 UNK         0.0600 
    199 H199        0.6669  -29.8315  -44.9891 H         1 UNK         0.0600 
    200 H200       -1.3405  -27.1415  -47.2987 H         1 UNK         0.3000 
    201 H201       -1.5972  -29.2391  -49.4095 H         1 UNK         0.0600 
    202 H202       -0.5962  -26.3450  -49.6152 H         1 UNK         0.0600 
    203 H203       -0.6813  -27.5150  -50.9273 H         1 UNK         0.0600 
    204 H204        0.4393  -27.7715  -49.6007 H         1 UNK         0.0600 
    205 H205       -3.6624  -28.1518  -47.5338 H         1 UNK         0.3000 
    206 H206       -5.7653  -27.5388  -47.4444 H         1 UNK         0.0600 
    207 H207       -6.0355  -29.2458  -49.2683 H         1 UNK         0.0600 
    208 H208       -7.2483  -27.9811  -49.3566 H         1 UNK         0.0600 
    209 H209       -5.8933  -27.9686  -50.4759 H         1 UNK         0.0600 
    210 H210       -3.6287  -25.4668  -48.1777 H         1 UNK         0.3000 
    211 H211       -3.3549  -23.3201  -48.5078 H         1 UNK         0.0600 
    212 H212       -5.1227  -21.7088  -47.8977 H         1 UNK         0.0600 
    213 H213       -5.1006  -23.0340  -46.7501 H         1 UNK         0.0600 
    214 H214       -6.3504  -22.9579  -47.9925 H         1 UNK         0.0600 
    215 H215       -4.0641  -25.1168  -50.8023 H         1 UNK         0.3000 
    216 H216       -5.5070  -23.6589  -52.7617 H         1 UNK         0.0600 
    217 H217       -3.3895  -25.8533  -53.0876 H         1 UNK         0.0600 
    218 H218       -4.5112  -25.3226  -54.3364 H         1 UNK         0.0600 
    219 H219       -5.1212  -26.1058  -52.8858 H         1 UNK         0.0600 
    220 H220       -2.0028  -23.8159  -52.0459 H         1 UNK         0.3000 
    221 H221       -1.2287  -22.0244  -54.1720 H         1 UNK         0.0600 
    222 H222        0.4096  -23.5928  -53.3119 H         1 UNK         0.0600 
    223 H223        0.2653  -22.9594  -51.6793 H         1 UNK         0.0600 
    224 H224        0.9643  -21.9659  -52.9503 H         1 UNK         0.0600 
    225 H225       -1.9958  -21.5656  -50.6923 H         1 UNK         0.3000 
    226 H226       -1.4011  -18.8160  -50.5042 H         1 UNK         0.0600 
    227 H227       -3.3752  -20.5910  -48.9868 H         1 UNK         0.0600 
    228 H228       -1.7776  -20.0571  -48.4740 H         1 UNK         0.0600 
    229 H229       -3.0965  -18.9121  -48.5654 H         1 UNK         0.0600 
    230 H230       -4.4118  -20.4368  -51.5498 H         1 UNK         0.3000 
    231 H231       -5.9410  -18.0775  -52.0220 H         1 UNK         0.0600 
    232 H232       -6.1493  -20.8638  -53.2830 H         1 UNK         0.0600 
    233 H233       -7.3792  -19.6087  -53.3696 H         1 UNK         0.0600 
    234 H234       -6.9633  -20.3231  -51.8183 H         1 UNK         0.0600 
    235 H235       -3.8507  -20.0394  -54.2049 H         1 UNK         0.3000 
    236 H236       -4.2619  -18.5036  -56.5542 H         1 UNK         0.0600 
    237 H237       -3.3515  -20.8202  -56.5519 H         1 UNK         0.0600 
    238 H238       -2.2722  -19.7212  -57.3987 H         1 UNK         0.0600 
    239 H239       -1.8745  -20.2564  -55.7726 H         1 UNK         0.0600 
    240 H240       -1.8216  -18.2034  -53.9623 H         1 UNK         0.3000 
    241 H241       -0.4282  -15.9716  -55.0994 H         1 UNK         0.0600 
    242 H242       -3.6379  -14.1908  -53.4753 H         1 UNK         0.3800 
    243 H243       -3.6449  -15.8897  -53.8707 H         1 UNK         0.3800 
    244 H244       -0.5126  -17.0112  -52.2283 H         1 UNK         0.0800 
    245 H245        0.5738  -15.7574  -52.7832 H         1 UNK         0.0800 
    246 H246        2.8262  -16.8738  -52.1638 H         1 UNK         0.0800 
    247 H247        3.2736  -18.5086  -52.5619 H         1 UNK         0.0800 
@<TRIPOS>BOND
     1    1    2 1    
     2    1  127 1    
     3    1  128 1    
     4    1  129 1    
     5    2    3 2    
     6    2    4 am   BACKBONE|DICT|INTERRES
     7    4    5 1    
     8    4  130 1    
     9    5    6 1    
    10    5   65 1    
    11    5  131 1    
    12    6    7 1    
    13    6  132 1    
    14    6  133 1    
    15    7    8 1    
    16    8    9 1    
    17    8  134 1    
    18    8  135 1    
    19    9   10 ar   
    20    9   14 ar   
    21   10   11 ar   
    22   10  136 1    
    23   11   12 ar   
    24   11  126 1    
    25   12   13 ar   
    26   12  137 1    
    27   13   14 ar   
    28   13   15 1    
    29   14  138 1    
    30   15   16 1    
    31   15  139 1    
    32   15  140 1    
    33   16   17 1    
    34   17   18 1    
    35   17  141 1    
    36   17  142 1    
    37   18   19 1    
    38   18   67 1    
    39   18  143 1    
    40   19   20 am   BACKBONE|DICT|INTERRES
    41   19  144 1    
    42   20   21 2    
    43   20   22 1    
    44   22   23 1    
    45   22   24 1    
    46   22  145 1    
    47   23  146 1    
    48   23  147 1    
    49   23  148 1    
    50   24   25 am   BACKBONE|DICT|INTERRES
    51   24  149 1    
    52   25   26 2    
    53   25   27 1    
    54   27   28 1    
    55   27   29 1    
    56   27  150 1    
    57   28  151 1    
    58   28  152 1    
    59   28  153 1    
    60   29   30 am   BACKBONE|DICT|INTERRES
    61   29  154 1    
    62   30   31 2    
    63   30   32 1    
    64   32   33 1    
    65   32   34 1    
    66   32  155 1    
    67   33  156 1    
    68   33  157 1    
    69   33  158 1    
    70   34   35 am   BACKBONE|DICT|INTERRES
    71   34  159 1    
    72   35   36 2    
    73   35   37 1    
    74   37   38 1    
    75   37   39 1    
    76   37  160 1    
    77   38  161 1    
    78   38  162 1    
    79   38  163 1    
    80   39   40 am   BACKBONE|DICT|INTERRES
    81   39  164 1    
    82   40   41 2    
    83   40   42 1    
    84   42   43 1    
    85   42   44 1    
    86   42  165 1    
    87   43  166 1    
    88   43  167 1    
    89   43  168 1    
    90   44   45 am   BACKBONE|DICT|INTERRES
    91   44  169 1    
    92   45   46 2    
    93   45   47 1    
    94   47   48 1    
    95   47   49 1    
    96   47  170 1    
    97   48  171 1    
    98   48  172 1    
    99   48  173 1    
   100   49   50 am   BACKBONE|DICT|INTERRES
   101   49  174 1    
   102   50   51 2    
   103   50   52 1    
   104   52   53 1    
   105   52   54 1    
   106   52  175 1    
   107   53  176 1    
   108   53  177 1    
   109   53  178 1    
   110   54   55 am   BACKBONE|DICT|INTERRES
   111   54  179 1    
   112   55   56 2    
   113   55   57 1    
   114   57   58 1    
   115   57   59 1    
   116   57  180 1    
   117   58  181 1    
   118   58  182 1    
   119   58  183 1    
   120   59   60 am   BACKBONE|DICT|INTERRES
   121   59  184 1    
   122   60   61 2    
   123   60   62 1    
   124   62   63 1    
   125   62   64 1    
   126   62  185 1    
   127   63  186 1    
   128   63  187 1    
   129   63  188 1    
   130   64   65 am   BACKBONE|DICT|INTERRES
   131   64  189 1    
   132   65   66 2    
   133   67   68 2    
   134   67   69 am   BACKBONE|DICT|INTERRES
   135   69   70 1    
   136   69  190 1    
   137   70   71 1    
   138   70   72 1    
   139   70  191 1    
   140   71  192 1    
   141   71  193 1    
   142   71  194 1    
   143   72   73 2    
   144   72   74 am   BACKBONE|DICT|INTERRES
   145   74   75 1    
   146   74  195 1    
   147   75   76 1    
   148   75   77 1    
   149   75  196 1    
   150   76  197 1    
   151   76  198 1    
   152   76  199 1    
   153   77   78 2    
   154   77   79 am   BACKBONE|DICT|INTERRES
   155   79   80 1    
   156   79  200 1    
   157   80   81 1    
   158   80   82 1    
   159   80  201 1    
   160   81  202 1    
   161   81  203 1    
   162   81  204 1    
   163   82   83 2    
   164   82   84 am   BACKBONE|DICT|INTERRES
   165   84   85 1    
   166   84  205 1    
   167   85   86 1    
   168   85   87 1    
   169   85  206 1    
   170   86  207 1    
   171   86  208 1    
   172   86  209 1    
   173   87   88 2    
   174   87   89 am   BACKBONE|DICT|INTERRES
   175   89   90 1    
   176   89  210 1    
   177   90   91 1    
   178   90   92 1    
   179   90  211 1    
   180   91  212 1    
   181   91  213 1    
   182   91  214 1    
   183   92   93 2    
   184   92   94 am   BACKBONE|DICT|INTERRES
   185   94   95 1    
   186   94  215 1    
   187   95   96 1    
   188   95   97 1    
   189   95  216 1    
   190   96  217 1    
   191   96  218 1    
   192   96  219 1    
   193   97   98 2    
   194   97   99 am   BACKBONE|DICT|INTERRES
   195   99  100 1    
   196   99  220 1    
   197  100  101 1    
   198  100  102 1    
   199  100  221 1    
   200  101  222 1    
   201  101  223 1    
   202  101  224 1    
   203  102  103 2    
   204  102  104 am   BACKBONE|DICT|INTERRES
   205  104  105 1    
   206  104  225 1    
   207  105  106 1    
   208  105  107 1    
   209  105  226 1    
   210  106  227 1    
   211  106  228 1    
   212  106  229 1    
   213  107  108 2    
   214  107  109 am   BACKBONE|DICT|INTERRES
   215  109  110 1    
   216  109  230 1    
   217  110  111 1    
   218  110  112 1    
   219  110  231 1    
   220  111  232 1    
   221  111  233 1    
   222  111  234 1    
   223  112  113 2    
   224  112  114 am   BACKBONE|DICT|INTERRES
   225  114  115 1    
   226  114  235 1    
   227  115  116 1    
   228  115  117 1    
   229  115  236 1    
   230  116  237 1    
   231  116  238 1    
   232  116  239 1    
   233  117  118 2    
   234  117  119 am   BACKBONE|DICT|INTERRES
   235  119  120 1    
   236  119  240 1    
   237  120  121 1    
   238  120  124 1    
   239  120  241 1    
   240  121  122 am   BACKBONE|DICT|INTERRES
   241  121  123 2    
   242  122  242 1    
   243  122  243 1    
   244  124  125 1    
   245  124  244 1    
   246  124  245 1    
   247  125  126 1    
   248  126  246 1    
   249  126  247 1    
@<TRIPOS>SUBSTRUCTURE
     1 UNK         1 GROUP             0       ****    0 ROOT    
