@<TRIPOS>MOLECULE
3R540
247   249    1
SMALL
USER_CHARGES


@<TRIPOS>ATOM
      1 CA          7.1131  -12.1570  -46.6850 C.3       0 UNK        -0.1800 
      2 C           5.6339  -12.4034  -46.4310 C.2       0 UNK         0.5000 
      3 O           5.0434  -11.7461  -45.5746 O.2       0 UNK        -0.5000 
      4 N           5.0282  -13.3310  -47.1845 N.am      1 UNK        -0.5000 
      5 CA          3.6327  -13.7888  -47.0662 C.3       1 UNK         0.1400 
      6 C6          3.3371  -14.9525  -48.0415 C.3       23 UNK        -0.0398 
      7 S7          4.3653  -16.4218  -47.7039 S.3       23 UNK        -0.2404 
      8 C8          4.7164  -17.0086  -49.3909 C.3       23 UNK        -0.0205 
      9 C9          3.5280  -17.7478  -49.9887 C.ar      23 UNK        -0.0193 
     10 C10         2.5222  -17.0500  -50.6618 C.ar      23 UNK        -0.1150 
     11 C11         1.4367  -17.7301  -51.2187 C.ar      23 UNK        -0.0193 
     12 C12         1.3623  -19.1212  -51.1004 C.ar      23 UNK        -0.1150 
     13 C13         2.3628  -19.8374  -50.4357 C.ar      23 UNK        -0.0193 
     14 C14         3.4461  -19.1388  -49.8862 C.ar      23 UNK        -0.1150 
     15 C15         2.2609  -21.3622  -50.3691 C.3       23 UNK        -0.0205 
     16 S16         3.0786  -22.1298  -48.9280 S.3       23 UNK        -0.2404 
     17 C17         2.0765  -21.4633  -47.5579 C.3       23 UNK        -0.0398 
     18 CA          1.1784  -22.5326  -46.8968 C.3       11 UNK         0.1400 
     19 N           0.7218  -22.1066  -45.5744 N.am      11 UNK        -0.5000 
     20 C           0.0861  -22.8904  -44.6934 C.2       10 UNK         0.5000 
     21 O          -0.1421  -24.0859  -44.8792 O.2       10 UNK        -0.5000 
     22 CA         -0.4264  -22.2075  -43.4129 C.3       10 UNK         0.1400 
     23 CB          0.7096  -22.0290  -42.3951 C.3       10 UNK        -0.1800 
     24 N          -1.0576  -20.9143  -43.6857 N.am      10 UNK        -0.5000 
     25 C          -2.1698  -20.7618  -44.4191 C.2       9 UNK         0.5000 
     26 O          -2.8043  -21.7027  -44.8951 O.2       9 UNK        -0.5000 
     27 CA         -2.6355  -19.3227  -44.7011 C.3       9 UNK         0.1400 
     28 CB         -3.4068  -18.7557  -43.5003 C.3       9 UNK        -0.1800 
     29 N          -1.5363  -18.4228  -45.0486 N.am      9 UNK        -0.5000 
     30 C          -0.7591  -18.5380  -46.1357 C.2       8 UNK         0.5000 
     31 O          -0.8929  -19.4154  -46.9868 O.2       8 UNK        -0.5000 
     32 CA          0.3974  -17.5298  -46.2628 C.3       8 UNK         0.1400 
     33 CB         -0.1327  -16.1507  -46.6869 C.3       8 UNK        -0.1800 
     34 N           1.1531  -17.4075  -45.0149 N.am      8 UNK        -0.5000 
     35 C           1.7950  -18.4177  -44.4088 C.2       7 UNK         0.5000 
     36 O           1.8735  -19.5571  -44.8664 O.2       7 UNK        -0.5000 
     37 CA          2.3930  -18.1218  -43.0247 C.3       7 UNK         0.1400 
     38 CB          3.7820  -17.4775  -43.1512 C.3       7 UNK        -0.1800 
     39 N           1.5075  -17.2685  -42.2311 N.am      7 UNK        -0.5000 
     40 C           0.3401  -17.6775  -41.7114 C.2       6 UNK         0.5000 
     41 O          -0.0819  -18.8297  -41.8071 O.2       6 UNK        -0.5000 
     42 CA         -0.5198  -16.6131  -41.0041 C.3       6 UNK         0.1400 
     43 CB         -0.0636  -16.4273  -39.5495 C.3       6 UNK        -0.1800 
     44 N          -0.4924  -15.3209  -41.6902 N.am      6 UNK        -0.5000 
     45 C          -1.0043  -15.0987  -42.9093 C.2       5 UNK         0.5000 
     46 O          -1.6188  -15.9482  -43.5524 O.2       5 UNK        -0.5000 
     47 CA         -0.7430  -13.7146  -43.5362 C.3       5 UNK         0.1400 
     48 CB         -1.8943  -12.7502  -43.2183 C.3       5 UNK        -0.1800 
     49 N           0.5234  -13.1087  -43.1159 N.am      5 UNK        -0.5000 
     50 C           1.7347  -13.6411  -43.3180 C.2       4 UNK         0.5000 
     51 O           1.9139  -14.7228  -43.8808 O.2       4 UNK        -0.5000 
     52 CA          2.9301  -12.8266  -42.7905 C.3       4 UNK         0.1400 
     53 CB          4.2475  -13.6217  -42.8218 C.3       4 UNK        -0.1800 
     54 N           3.1024  -11.5946  -43.5546 N.am      4 UNK        -0.5000 
     55 C           2.3970  -10.4675  -43.3916 C.2       3 UNK         0.5000 
     56 O           1.5012  -10.3400  -42.5553 O.2       3 UNK        -0.5000 
     57 CA          2.7329   -9.3025  -44.3358 C.3       3 UNK         0.1400 
     58 CB          4.0541   -8.6330  -43.9254 C.3       3 UNK        -0.1800 
     59 N           2.8415   -9.7810  -45.7124 N.am      3 UNK        -0.5000 
     60 C           1.8914   -9.6470  -46.6477 C.2       2 UNK         0.5000 
     61 O           0.8477   -9.0148  -46.4807 O.2       2 UNK        -0.5000 
     62 CA          2.1395  -10.3471  -48.0005 C.3       2 UNK         0.1400 
     63 CB          2.8144   -9.3842  -48.9890 C.3       2 UNK        -0.1800 
     64 N           2.9552  -11.5574  -47.8815 N.am      2 UNK        -0.5000 
     65 C           2.5774  -12.6716  -47.2381 C.2       1 UNK         0.5000 
     66 O           1.4511  -12.8286  -46.7684 O.2       1 UNK        -0.5000 
     67 C          -0.0025  -22.9414  -47.8014 C.2       11 UNK         0.5000 
     68 O           0.0559  -23.9983  -48.4273 O.2       11 UNK        -0.5000 
     69 N          -1.0704  -22.1314  -47.8164 N.am      12 UNK        -0.5000 
     70 CA         -2.3132  -22.4000  -48.5403 C.3       12 UNK         0.1400 
     71 CB         -3.2569  -21.2000  -48.3960 C.3       12 UNK        -0.1800 
     72 C          -3.0099  -23.6919  -48.0805 C.2       12 UNK         0.5000 
     73 O          -3.4605  -24.4677  -48.9233 O.2       12 UNK        -0.5000 
     74 N          -3.0514  -23.9191  -46.7605 N.am      13 UNK        -0.5000 
     75 CA         -3.5749  -25.1380  -46.1459 C.3       13 UNK         0.1400 
     76 CB         -3.6647  -24.9541  -44.6235 C.3       13 UNK        -0.1800 
     77 C          -2.7436  -26.3830  -46.5042 C.2       13 UNK         0.5000 
     78 O          -3.3221  -27.4149  -46.8448 O.2       13 UNK        -0.5000 
     79 N          -1.4092  -26.2557  -46.4616 N.am      14 UNK        -0.5000 
     80 CA         -0.4602  -27.3064  -46.8392 C.3       14 UNK         0.1400 
     81 CB          0.9604  -26.8845  -46.4342 C.3       14 UNK        -0.1800 
     82 C          -0.5197  -27.6609  -48.3378 C.2       14 UNK         0.5000 
     83 O          -0.4519  -28.8396  -48.6881 O.2       14 UNK        -0.5000 
     84 N          -0.6729  -26.6391  -49.1902 N.am      15 UNK        -0.5000 
     85 CA         -0.8367  -26.7660  -50.6398 C.3       15 UNK         0.1400 
     86 CB         -0.5587  -25.3997  -51.2879 C.3       15 UNK        -0.1800 
     87 C          -2.2289  -27.2773  -51.0630 C.2       15 UNK         0.5000 
     88 O          -2.3884  -27.6880  -52.2131 O.2       15 UNK        -0.5000 
     89 N          -3.2043  -27.2211  -50.1434 N.am      16 UNK        -0.5000 
     90 CA         -4.6301  -27.5068  -50.3292 C.3       16 UNK         0.1400 
     91 CB         -4.8634  -28.9958  -50.6587 C.3       16 UNK        -0.1800 
     92 C          -5.2852  -26.5427  -51.3410 C.2       16 UNK         0.5000 
     93 O          -6.0620  -26.9648  -52.2010 O.2       16 UNK        -0.5000 
     94 N          -4.9467  -25.2524  -51.2214 N.am      17 UNK        -0.5000 
     95 CA         -5.4416  -24.1581  -52.0528 C.3       17 UNK         0.1400 
     96 CB         -4.4449  -22.9895  -51.9783 C.3       17 UNK        -0.1800 
     97 C          -6.8686  -23.7548  -51.6329 C.2       17 UNK         0.5000 
     98 O          -7.0661  -22.7383  -50.9662 O.2       17 UNK        -0.5000 
     99 N          -7.8418  -24.5924  -52.0096 N.am      18 UNK        -0.5000 
    100 CA        -9.2683  -24.4253  -51.7186 C.3       18 UNK         0.1400 
    101 CB        -9.9671  -25.7791  -51.9224 C.3       18 UNK        -0.1800 
    102 C         -9.9573  -23.3284  -52.5588 C.2       18 UNK         0.5000 
    103 O        -11.0881  -22.9527  -52.2459 O.2       18 UNK        -0.5000 
    104 N         -9.2827  -22.8433  -53.6062 N.am      19 UNK        -0.5000 
    105 CA        -9.7290  -21.7798  -54.4988 C.3       19 UNK         0.1400 
    106 CB       -10.3827  -22.4080  -55.7424 C.3       19 UNK        -0.1800 
    107 C         -8.5261  -20.9019  -54.8790 C.2       19 UNK         0.5000 
    108 O         -7.3801  -21.2931  -54.6373 O.2       19 UNK        -0.5000 
    109 N         -8.8196  -19.7412  -55.4816 N.am      20 UNK        -0.5000 
    110 CA        -7.8795  -18.6886  -55.8823 C.3       20 UNK         0.1400 
    111 CB        -6.9059  -19.1933  -56.9732 C.3       20 UNK        -0.1800 
    112 C         -7.1958  -18.0393  -54.6584 C.2       20 UNK         0.5000 
    113 O         -7.8756  -17.7725  -53.6645 O.2       20 UNK        -0.5000 
    114 N         -5.8901  -17.7705  -54.7516 N.am      21 UNK        -0.5000 
    115 CA        -5.0548  -17.2094  -53.6947 C.3       21 UNK         0.1400 
    116 CB        -4.9390  -15.6888  -53.8978 C.3       21 UNK        -0.1800 
    117 C         -3.6703  -17.8842  -53.7679 C.2       21 UNK         0.5000 
    118 O         -3.2808  -18.3095  -54.8578 O.2       21 UNK        -0.5000 
    119 N         -2.8918  -17.9661  -52.6807 N.am      22 UNK        -0.5000 
    120 CA        -3.2154  -17.6122  -51.2865 C.3       22 UNK         0.1400 
    121 C         -4.2699  -18.5585  -50.6453 C.2       22 UNK         0.5000 
    122 N         -4.9078  -18.1375  -49.5621 N.am      22 UNK        -0.7600 
    123 O         -4.5164  -19.6634  -51.1179 O.2       22 UNK        -0.5000 
    124 C124       -1.9295  -17.5591  -50.4176 C.3       23 UNK        -0.0398 
    125 S125       -0.8417  -16.1683  -50.8820 S.3       23 UNK        -0.2404 
    126 C126        0.3728  -16.9592  -51.9846 C.3       23 UNK        -0.0205 
    127 H127        7.6846  -12.3506  -45.7774 H         1 UNK         0.0600 
    128 H128        7.2750  -11.1193  -46.9764 H         1 UNK         0.0600 
    129 H129        7.5017  -12.7987  -47.4761 H         1 UNK         0.0600 
    130 H130        5.5803  -13.8337  -47.8648 H         1 UNK         0.3000 
    131 H131        3.5096  -14.1664  -46.0496 H         1 UNK         0.0600 
    132 H132        2.2952  -15.2659  -47.9886 H         1 UNK         0.0800 
    133 H133        3.4973  -14.6172  -49.0669 H         1 UNK         0.0800 
    134 H134        5.0079  -16.1737  -50.0299 H         1 UNK         0.0800 
    135 H135        5.5821  -17.6716  -49.3534 H         1 UNK         0.0800 
    136 H136        2.5841  -15.9761  -50.7622 H         1 UNK         0.1150 
    137 H137        0.5311  -19.6514  -51.5434 H         1 UNK         0.1150 
    138 H138        4.2374  -19.6728  -49.3805 H         1 UNK         0.1150 
    139 H139        1.2135  -21.6690  -50.3738 H         1 UNK         0.0800 
    140 H140        2.7056  -21.7737  -51.2758 H         1 UNK         0.0800 
    141 H141        1.4918  -20.6008  -47.8825 H         1 UNK         0.0800 
    142 H142        2.7862  -21.0774  -46.8254 H         1 UNK         0.0800 
    143 H143        1.7862  -23.4260  -46.7370 H         1 UNK         0.0600 
    144 H144        0.9059  -21.1383  -45.3248 H         1 UNK         0.3000 
    145 H145       -1.1805  -22.8601  -42.9681 H         1 UNK         0.0600 
    146 H146        0.3369  -21.6163  -41.4576 H         1 UNK         0.0600 
    147 H147        1.1813  -22.9851  -42.1651 H         1 UNK         0.0600 
    148 H148        1.4856  -21.3611  -42.7693 H         1 UNK         0.0600 
    149 H149       -0.6183  -20.0953  -43.2776 H         1 UNK         0.3000 
    150 H150       -3.3161  -19.3555  -45.5539 H         1 UNK         0.0600 
    151 H151       -4.2423  -19.4030  -43.2310 H         1 UNK         0.0600 
    152 H152       -3.8174  -17.7713  -43.7257 H         1 UNK         0.0600 
    153 H153       -2.7690  -18.6578  -42.6213 H         1 UNK         0.0600 
    154 H154       -1.3856  -17.6345  -44.4247 H         1 UNK         0.3000 
    155 H155        1.0888  -17.8862  -47.0298 H         1 UNK         0.0600 
    156 H156       -1.0281  -15.8646  -46.1357 H         1 UNK         0.0600 
    157 H157        0.6061  -15.3688  -46.5225 H         1 UNK         0.0600 
    158 H158       -0.3908  -16.1468  -47.7461 H         1 UNK         0.0600 
    159 H159        1.1829  -16.4913  -44.5801 H         1 UNK         0.3000 
    160 H160        2.5111  -19.0713  -42.4984 H         1 UNK         0.0600 
    161 H161        3.7549  -16.5570  -43.7339 H         1 UNK         0.0600 
    162 H162        4.4753  -18.1541  -43.6521 H         1 UNK         0.0600 
    163 H163        4.2029  -17.2462  -42.1727 H         1 UNK         0.0600 
    164 H164        1.7489  -16.2890  -42.1838 H         1 UNK         0.3000 
    165 H165       -1.5516  -16.9708  -40.9954 H         1 UNK         0.0600 
    166 H166       -0.7138  -15.7320  -39.0182 H         1 UNK         0.0600 
    167 H167       -0.0913  -17.3743  -39.0086 H         1 UNK         0.0600 
    168 H168        0.9565  -16.0455  -39.4910 H         1 UNK         0.0600 
    169 H169       -0.0100  -14.5650  -41.2272 H         1 UNK         0.3000 
    170 H170       -0.6975  -13.8482  -44.6189 H         1 UNK         0.0600 
    171 H171       -2.8504  -13.1626  -43.5437 H         1 UNK         0.0600 
    172 H172       -1.9686  -12.5506  -42.1486 H         1 UNK         0.0600 
    173 H173       -1.7616  -11.7966  -43.7298 H         1 UNK         0.0600 
    174 H174        0.4767  -12.1897  -42.6905 H         1 UNK         0.3000 
    175 H175        2.7238  -12.5728  -41.7486 H         1 UNK         0.0600 
    176 H176        4.5134  -13.9304  -43.8331 H         1 UNK         0.0600 
    177 H177        5.0736  -13.0302  -42.4271 H         1 UNK         0.0600 
    178 H178        4.1735  -14.5223  -42.2115 H         1 UNK         0.0600 
    179 H179        3.8165  -11.6230  -44.2797 H         1 UNK         0.3000 
    180 H180        1.9379   -8.5588  -44.2492 H         1 UNK         0.0600 
    181 H181        4.8977   -9.3211  -43.9957 H         1 UNK         0.0600 
    182 H182        4.0066   -8.2740  -42.8965 H         1 UNK         0.0600 
    183 H183        4.2713   -7.7738  -44.5601 H         1 UNK         0.0600 
    184 H184        3.6503  -10.3567  -45.9208 H         1 UNK         0.3000 
    185 H185        1.1676  -10.6326  -48.4086 H         1 UNK         0.0600 
    186 H186        2.2191   -8.4797  -49.1209 H         1 UNK         0.0600 
    187 H187        3.8027   -9.0790  -48.6426 H         1 UNK         0.0600 
    188 H188        2.9286   -9.8426  -49.9715 H         1 UNK         0.0600 
    189 H189        3.8981  -11.5083  -48.2388 H         1 UNK         0.3000 
    190 H190       -1.0265  -21.2485  -47.3127 H         1 UNK         0.3000 
    191 H191       -2.0630  -22.5136  -49.5969 H         1 UNK         0.0600 
    192 H192       -3.5268  -21.0175  -47.3570 H         1 UNK         0.0600 
    193 H193       -4.1837  -21.3592  -48.9475 H         1 UNK         0.0600 
    194 H194       -2.7948  -20.2930  -48.7836 H         1 UNK         0.0600 
    195 H195       -2.7118  -23.1986  -46.1292 H         1 UNK         0.3000 
    196 H196       -4.5863  -25.2938  -46.5270 H         1 UNK         0.0600 
    197 H197       -4.0718  -25.8458  -44.1455 H         1 UNK         0.0600 
    198 H198       -4.3175  -24.1198  -44.3663 H         1 UNK         0.0600 
    199 H199       -2.6875  -24.7606  -44.1809 H         1 UNK         0.0600 
    200 H200       -1.0114  -25.3811  -46.1321 H         1 UNK         0.3000 
    201 H201       -0.7186  -28.2058  -46.2765 H         1 UNK         0.0600 
    202 H202        1.0269  -26.7051  -45.3610 H         1 UNK         0.0600 
    203 H203        1.2713  -25.9726  -46.9445 H         1 UNK         0.0600 
    204 H204        1.6843  -27.6622  -46.6802 H         1 UNK         0.0600 
    205 H205       -0.6369  -25.6903  -48.8234 H         1 UNK         0.3000 
    206 H206       -0.0970  -27.4786  -51.0102 H         1 UNK         0.0600 
    207 H207        0.4450  -25.0465  -51.0502 H         1 UNK         0.0600 
    208 H208       -0.6343  -25.4564  -52.3744 H         1 UNK         0.0600 
    209 H209       -1.2686  -24.6444  -50.9480 H         1 UNK         0.0600 
    210 H210       -2.9595  -26.8344  -49.2413 H         1 UNK         0.3000 
    211 H211       -5.1049  -27.3059  -49.3678 H         1 UNK         0.0600 
    212 H212       -4.4685  -29.2642  -51.6387 H         1 UNK         0.0600 
    213 H213       -5.9283  -29.2307  -50.6616 H         1 UNK         0.0600 
    214 H214       -4.3910  -29.6407  -49.9177 H         1 UNK         0.0600 
    215 H215       -4.3409  -24.9867  -50.4470 H         1 UNK         0.3000 
    216 H216       -5.4790  -24.4916  -53.0921 H         1 UNK         0.0600 
    217 H217       -4.3423  -22.6121  -50.9615 H         1 UNK         0.0600 
    218 H218       -4.7722  -22.1577  -52.6038 H         1 UNK         0.0600 
    219 H219       -3.4558  -23.2899  -52.3244 H         1 UNK         0.0600 
    220 H220       -7.5717  -25.4444  -52.4878 H         1 UNK         0.3000 
    221 H221       -9.3731  -24.1426  -50.6691 H         1 UNK         0.0600 
    222 H222       -9.5312  -26.5482  -51.2842 H         1 UNK         0.0600 
    223 H223       -9.8916  -26.1180  -52.9564 H         1 UNK         0.0600 
    224 H224      -11.0273  -25.7154  -51.6739 H         1 UNK         0.0600 
    225 H225       -8.3279  -23.1418  -53.7531 H         1 UNK         0.3000 
    226 H226      -10.4550  -21.1445  -53.9869 H         1 UNK         0.0600 
    227 H227      -11.2358  -23.0285  -55.4673 H         1 UNK         0.0600 
    228 H228      -10.7481  -21.6425  -56.4277 H         1 UNK         0.0600 
    229 H229       -9.6782  -23.0332  -56.2925 H         1 UNK         0.0600 
    230 H230       -9.7946  -19.5095  -55.6104 H         1 UNK         0.3000 
    231 H231       -8.4866  -17.9019  -56.3323 H         1 UNK         0.0600 
    232 H232       -6.1952  -19.9243  -56.5863 H         1 UNK         0.0600 
    233 H233       -6.3341  -18.3702  -57.4033 H         1 UNK         0.0600 
    234 H234       -7.4493  -19.6632  -57.7930 H         1 UNK         0.0600 
    235 H235       -5.3748  -18.0773  -55.5671 H         1 UNK         0.3000 
    236 H236       -5.5208  -17.4079  -52.7312 H         1 UNK         0.0600 
    237 H237       -4.3133  -15.2325  -53.1305 H         1 UNK         0.0600 
    238 H238       -4.4982  -15.4464  -54.8656 H         1 UNK         0.0600 
    239 H239       -5.9167  -15.2094  -53.8466 H         1 UNK         0.0600 
    240 H240       -2.0032  -18.4255  -52.7939 H         1 UNK         0.3000 
    241 H241       -3.6561  -16.6144  -51.2930 H         1 UNK         0.0600 
    242 H242       -5.5968  -18.7423  -49.1437 H         1 UNK         0.3800 
    243 H243       -4.7380  -17.2305  -49.1565 H         1 UNK         0.3800 
    244 H244       -1.3844  -18.5025  -50.4654 H         1 UNK         0.0800 
    245 H245       -2.1789  -17.4183  -49.3643 H         1 UNK         0.0800 
    246 H246       -0.1318  -17.6066  -52.7016 H         1 UNK         0.0800 
    247 H247        0.8553  -16.1812  -52.5781 H         1 UNK         0.0800 
@<TRIPOS>BOND
     1    1    2 1    
     2    1  127 1    
     3    1  128 1    
     4    1  129 1    
     5    2    3 2    
     6    2    4 am   BACKBONE|DICT|INTERRES
     7    4    5 1    
     8    4  130 1    
     9    5    6 1    
    10    5   65 1    
    11    5  131 1    
    12    6    7 1    
    13    6  132 1    
    14    6  133 1    
    15    7    8 1    
    16    8    9 1    
    17    8  134 1    
    18    8  135 1    
    19    9   10 ar   
    20    9   14 ar   
    21   10   11 ar   
    22   10  136 1    
    23   11   12 ar   
    24   11  126 1    
    25   12   13 ar   
    26   12  137 1    
    27   13   14 ar   
    28   13   15 1    
    29   14  138 1    
    30   15   16 1    
    31   15  139 1    
    32   15  140 1    
    33   16   17 1    
    34   17   18 1    
    35   17  141 1    
    36   17  142 1    
    37   18   19 1    
    38   18   67 1    
    39   18  143 1    
    40   19   20 am   BACKBONE|DICT|INTERRES
    41   19  144 1    
    42   20   21 2    
    43   20   22 1    
    44   22   23 1    
    45   22   24 1    
    46   22  145 1    
    47   23  146 1    
    48   23  147 1    
    49   23  148 1    
    50   24   25 am   BACKBONE|DICT|INTERRES
    51   24  149 1    
    52   25   26 2    
    53   25   27 1    
    54   27   28 1    
    55   27   29 1    
    56   27  150 1    
    57   28  151 1    
    58   28  152 1    
    59   28  153 1    
    60   29   30 am   BACKBONE|DICT|INTERRES
    61   29  154 1    
    62   30   31 2    
    63   30   32 1    
    64   32   33 1    
    65   32   34 1    
    66   32  155 1    
    67   33  156 1    
    68   33  157 1    
    69   33  158 1    
    70   34   35 am   BACKBONE|DICT|INTERRES
    71   34  159 1    
    72   35   36 2    
    73   35   37 1    
    74   37   38 1    
    75   37   39 1    
    76   37  160 1    
    77   38  161 1    
    78   38  162 1    
    79   38  163 1    
    80   39   40 am   BACKBONE|DICT|INTERRES
    81   39  164 1    
    82   40   41 2    
    83   40   42 1    
    84   42   43 1    
    85   42   44 1    
    86   42  165 1    
    87   43  166 1    
    88   43  167 1    
    89   43  168 1    
    90   44   45 am   BACKBONE|DICT|INTERRES
    91   44  169 1    
    92   45   46 2    
    93   45   47 1    
    94   47   48 1    
    95   47   49 1    
    96   47  170 1    
    97   48  171 1    
    98   48  172 1    
    99   48  173 1    
   100   49   50 am   BACKBONE|DICT|INTERRES
   101   49  174 1    
   102   50   51 2    
   103   50   52 1    
   104   52   53 1    
   105   52   54 1    
   106   52  175 1    
   107   53  176 1    
   108   53  177 1    
   109   53  178 1    
   110   54   55 am   BACKBONE|DICT|INTERRES
   111   54  179 1    
   112   55   56 2    
   113   55   57 1    
   114   57   58 1    
   115   57   59 1    
   116   57  180 1    
   117   58  181 1    
   118   58  182 1    
   119   58  183 1    
   120   59   60 am   BACKBONE|DICT|INTERRES
   121   59  184 1    
   122   60   61 2    
   123   60   62 1    
   124   62   63 1    
   125   62   64 1    
   126   62  185 1    
   127   63  186 1    
   128   63  187 1    
   129   63  188 1    
   130   64   65 am   BACKBONE|DICT|INTERRES
   131   64  189 1    
   132   65   66 2    
   133   67   68 2    
   134   67   69 am   BACKBONE|DICT|INTERRES
   135   69   70 1    
   136   69  190 1    
   137   70   71 1    
   138   70   72 1    
   139   70  191 1    
   140   71  192 1    
   141   71  193 1    
   142   71  194 1    
   143   72   73 2    
   144   72   74 am   BACKBONE|DICT|INTERRES
   145   74   75 1    
   146   74  195 1    
   147   75   76 1    
   148   75   77 1    
   149   75  196 1    
   150   76  197 1    
   151   76  198 1    
   152   76  199 1    
   153   77   78 2    
   154   77   79 am   BACKBONE|DICT|INTERRES
   155   79   80 1    
   156   79  200 1    
   157   80   81 1    
   158   80   82 1    
   159   80  201 1    
   160   81  202 1    
   161   81  203 1    
   162   81  204 1    
   163   82   83 2    
   164   82   84 am   BACKBONE|DICT|INTERRES
   165   84   85 1    
   166   84  205 1    
   167   85   86 1    
   168   85   87 1    
   169   85  206 1    
   170   86  207 1    
   171   86  208 1    
   172   86  209 1    
   173   87   88 2    
   174   87   89 am   BACKBONE|DICT|INTERRES
   175   89   90 1    
   176   89  210 1    
   177   90   91 1    
   178   90   92 1    
   179   90  211 1    
   180   91  212 1    
   181   91  213 1    
   182   91  214 1    
   183   92   93 2    
   184   92   94 am   BACKBONE|DICT|INTERRES
   185   94   95 1    
   186   94  215 1    
   187   95   96 1    
   188   95   97 1    
   189   95  216 1    
   190   96  217 1    
   191   96  218 1    
   192   96  219 1    
   193   97   98 2    
   194   97   99 am   BACKBONE|DICT|INTERRES
   195   99  100 1    
   196   99  220 1    
   197  100  101 1    
   198  100  102 1    
   199  100  221 1    
   200  101  222 1    
   201  101  223 1    
   202  101  224 1    
   203  102  103 2    
   204  102  104 am   BACKBONE|DICT|INTERRES
   205  104  105 1    
   206  104  225 1    
   207  105  106 1    
   208  105  107 1    
   209  105  226 1    
   210  106  227 1    
   211  106  228 1    
   212  106  229 1    
   213  107  108 2    
   214  107  109 am   BACKBONE|DICT|INTERRES
   215  109  110 1    
   216  109  230 1    
   217  110  111 1    
   218  110  112 1    
   219  110  231 1    
   220  111  232 1    
   221  111  233 1    
   222  111  234 1    
   223  112  113 2    
   224  112  114 am   BACKBONE|DICT|INTERRES
   225  114  115 1    
   226  114  235 1    
   227  115  116 1    
   228  115  117 1    
   229  115  236 1    
   230  116  237 1    
   231  116  238 1    
   232  116  239 1    
   233  117  118 2    
   234  117  119 am   BACKBONE|DICT|INTERRES
   235  119  120 1    
   236  119  240 1    
   237  120  121 1    
   238  120  124 1    
   239  120  241 1    
   240  121  122 am   BACKBONE|DICT|INTERRES
   241  121  123 2    
   242  122  242 1    
   243  122  243 1    
   244  124  125 1    
   245  124  244 1    
   246  124  245 1    
   247  125  126 1    
   248  126  246 1    
   249  126  247 1    
@<TRIPOS>SUBSTRUCTURE
     1 UNK         1 GROUP             0       ****    0 ROOT    
