@<TRIPOS>MOLECULE
3R540
247   249    1
SMALL
USER_CHARGES


@<TRIPOS>ATOM
      1 CA         -2.4934  -10.7343  -50.9567 C.3       0 UNK        -0.1800 
      2 C          -1.4702  -11.7022  -50.3808 C.2       0 UNK         0.5000 
      3 O          -0.5899  -12.1677  -51.1056 O.2       0 UNK        -0.5000 
      4 N          -1.5763  -12.0039  -49.0808 N.am      1 UNK        -0.5000 
      5 CA         -0.7074  -12.9314  -48.3473 C.3       1 UNK         0.1400 
      6 C6         -1.4048  -13.5394  -47.0983 C.3       23 UNK        -0.0398 
      7 S7         -3.0221  -14.3013  -47.4834 S.3       23 UNK        -0.2404 
      8 C8         -2.6121  -16.0699  -47.6584 C.3       23 UNK        -0.0205 
      9 C9         -1.5576  -16.3381  -48.7237 C.ar      23 UNK        -0.0193 
     10 C10        -1.7508  -15.9197  -50.0446 C.ar      23 UNK        -0.1150 
     11 C11        -0.7728  -16.1562  -51.0153 C.ar      23 UNK        -0.0193 
     12 C12         0.3875  -16.8542  -50.6652 C.ar      23 UNK        -0.1150 
     13 C13         0.5824  -17.2969  -49.3543 C.ar      23 UNK        -0.0193 
     14 C14        -0.3846  -17.0167  -48.3844 C.ar      23 UNK        -0.1150 
     15 C15         1.8290  -18.0920  -48.9857 C.3       23 UNK        -0.0205 
     16 S16         1.7992  -19.7860  -49.6637 S.3       23 UNK        -0.2404 
     17 C17         0.2031  -20.4125  -49.0427 C.3       23 UNK        -0.0398 
     18 CA          0.2839  -21.7909  -48.3520 C.3       11 UNK         0.1400 
     19 N           1.2309  -21.7917  -47.2354 N.am      11 UNK        -0.5000 
     20 C           1.6210  -22.8781  -46.5551 C.2       10 UNK         0.5000 
     21 O           1.2454  -24.0201  -46.8156 O.2       10 UNK        -0.5000 
     22 CA          2.5362  -22.6293  -45.3395 C.3       10 UNK         0.1400 
     23 CB          4.0116  -22.6507  -45.7646 C.3       10 UNK        -0.1800 
     24 N           2.2469  -21.3657  -44.6511 N.am      10 UNK        -0.5000 
     25 C           1.0654  -21.0531  -44.1017 C.2       9 UNK         0.5000 
     26 O           0.0933  -21.8121  -44.1038 O.2       9 UNK        -0.5000 
     27 CA          0.9289  -19.6231  -43.5514 C.3       9 UNK         0.1400 
     28 CB          0.6534  -18.6501  -44.7096 C.3       9 UNK        -0.1800 
     29 N          -0.1440  -19.5073  -42.5613 N.am      9 UNK        -0.5000 
     30 C          -0.0950  -20.0420  -41.3309 C.2       8 UNK         0.5000 
     31 O           0.8860  -20.6533  -40.9038 O.2       8 UNK        -0.5000 
     32 CA         -1.3133  -19.8550  -40.4022 C.3       8 UNK         0.1400 
     33 CB         -0.9093  -19.1663  -39.0872 C.3       8 UNK        -0.1800 
     34 N          -2.3879  -19.0806  -41.0240 N.am      8 UNK        -0.5000 
     35 C          -3.4580  -19.6127  -41.6302 C.2       7 UNK         0.5000 
     36 O          -3.6785  -20.8228  -41.6803 O.2       7 UNK        -0.5000 
     37 CA         -4.4575  -18.6437  -42.2978 C.3       7 UNK         0.1400 
     38 CB         -5.7222  -18.4995  -41.4374 C.3       7 UNK        -0.1800 
     39 N          -3.9169  -17.3088  -42.5656 N.am      7 UNK        -0.5000 
     40 C          -2.9284  -17.0351  -43.4264 C.2       6 UNK         0.5000 
     41 O          -2.3632  -17.8933  -44.1022 O.2       6 UNK        -0.5000 
     42 CA         -2.4533  -15.5719  -43.5218 C.3       6 UNK         0.1400 
     43 CB         -3.4300  -14.5475  -42.9037 C.3       6 UNK        -0.1800 
     44 N          -1.1135  -15.4021  -42.9553 N.am      6 UNK        -0.5000 
     45 C          -0.6950  -15.7060  -41.7195 C.2       5 UNK         0.5000 
     46 O          -1.4193  -16.2235  -40.8680 O.2       5 UNK        -0.5000 
     47 CA          0.7638  -15.3584  -41.3423 C.3       5 UNK         0.1400 
     48 CB          1.6577  -16.6118  -41.3480 C.3       5 UNK        -0.1800 
     49 N           1.3947  -14.2701  -42.1087 N.am      5 UNK        -0.5000 
     50 C           1.7089  -14.2307  -43.4115 C.2       4 UNK         0.5000 
     51 O           1.4025  -15.1184  -44.2108 O.2       4 UNK        -0.5000 
     52 CA          2.4226  -12.9596  -43.9165 C.3       4 UNK         0.1400 
     53 CB          3.4258  -12.3640  -42.9034 C.3       4 UNK        -0.1800 
     54 N           3.0414  -13.1783  -45.2261 N.am      4 UNK        -0.5000 
     55 C           4.0875  -13.9659  -45.5245 C.2       3 UNK         0.5000 
     56 O           4.7881  -14.5265  -44.6804 O.2       3 UNK        -0.5000 
     57 CA          4.4014  -14.1950  -47.0208 C.3       3 UNK         0.1400 
     58 CB          4.1450  -15.6630  -47.3986 C.3       3 UNK        -0.1800 
     59 N           3.6189  -13.3492  -47.9239 N.am      3 UNK        -0.5000 
     60 C           3.8036  -12.0369  -48.1185 C.2       2 UNK         0.5000 
     61 O           4.7380  -11.3994  -47.6322 O.2       2 UNK        -0.5000 
     62 CA          2.7452  -11.3067  -48.9714 C.3       2 UNK         0.1400 
     63 CB          3.2625  -11.0911  -50.4016 C.3       2 UNK        -0.1800 
     64 N           1.4440  -11.9834  -49.0376 N.am      2 UNK        -0.5000 
     65 C           0.6351  -12.2529  -48.0035 C.2       1 UNK         0.5000 
     66 O           0.9131  -11.9764  -46.8359 O.2       1 UNK        -0.5000 
     67 C          -1.1375  -22.2125  -47.9199 C.2       11 UNK         0.5000 
     68 O          -1.8540  -22.8415  -48.7008 O.2       11 UNK        -0.5000 
     69 N          -1.5245  -21.8308  -46.6943 N.am      12 UNK        -0.5000 
     70 CA         -2.8074  -22.1743  -46.0892 C.3       12 UNK         0.1400 
     71 CB         -3.1613  -21.1505  -45.0032 C.3       12 UNK        -0.1800 
     72 C          -2.7866  -23.6064  -45.5333 C.2       12 UNK         0.5000 
     73 O          -3.7612  -24.3375  -45.7073 O.2       12 UNK        -0.5000 
     74 N          -1.6556  -23.9992  -44.9278 N.am      13 UNK        -0.5000 
     75 CA         -1.3931  -25.3517  -44.4298 C.3       13 UNK         0.1400 
     76 CB         -0.0538  -25.3687  -43.6794 C.3       13 UNK        -0.1800 
     77 C          -1.4104  -26.4224  -45.5393 C.2       13 UNK         0.5000 
     78 O          -1.8392  -27.5492  -45.2869 O.2       13 UNK        -0.5000 
     79 N          -1.0053  -26.0431  -46.7598 N.am      14 UNK        -0.5000 
     80 CA         -1.0744  -26.8379  -47.9897 C.3       14 UNK         0.1400 
     81 CB         -0.1099  -26.2248  -49.0215 C.3       14 UNK        -0.1800 
     82 C          -2.5159  -26.9690  -48.5376 C.2       14 UNK         0.5000 
     83 O          -2.7684  -26.6565  -49.7035 O.2       14 UNK        -0.5000 
     84 N          -3.4467  -27.3990  -47.6716 N.am      15 UNK        -0.5000 
     85 CA         -4.8790  -27.6330  -47.9110 C.3       15 UNK         0.1400 
     86 CB         -5.0617  -28.8754  -48.8068 C.3       15 UNK        -0.1800 
     87 C          -5.6427  -26.4047  -48.4579 C.2       15 UNK         0.5000 
     88 O          -6.6682  -26.5656  -49.1213 O.2       15 UNK        -0.5000 
     89 N          -5.1013  -25.2042  -48.2046 N.am      16 UNK        -0.5000 
     90 CA         -5.4867  -23.8990  -48.7492 C.3       16 UNK         0.1400 
     91 CB         -6.8665  -23.4686  -48.2140 C.3       16 UNK        -0.1800 
     92 C          -5.3887  -23.7815  -50.2863 C.2       16 UNK         0.5000 
     93 O          -5.8682  -22.7929  -50.8403 O.2       16 UNK        -0.5000 
     94 N          -4.7616  -24.7580  -50.9581 N.am      17 UNK        -0.5000 
     95 CA         -4.6624  -24.8224  -52.4150 C.3       17 UNK         0.1400 
     96 CB         -4.2265  -26.2328  -52.8397 C.3       17 UNK        -0.1800 
     97 C          -3.7040  -23.7579  -52.9644 C.2       17 UNK         0.5000 
     98 O          -4.0536  -23.0411  -53.9021 O.2       17 UNK        -0.5000 
     99 N          -2.5301  -23.6368  -52.3324 N.am      18 UNK        -0.5000 
    100 CA        -1.5212  -22.6360  -52.6730 C.3       18 UNK         0.1400 
    101 CB        -0.1972  -22.9922  -51.9860 C.3       18 UNK        -0.1800 
    102 C         -1.9718  -21.2041  -52.3332 C.2       18 UNK         0.5000 
    103 O         -1.6709  -20.2879  -53.0957 O.2       18 UNK        -0.5000 
    104 N         -2.7172  -21.0465  -51.2287 N.am      19 UNK        -0.5000 
    105 CA        -3.3088  -19.7742  -50.8018 C.3       19 UNK         0.1400 
    106 CB        -3.7582  -19.8838  -49.3359 C.3       19 UNK        -0.1800 
    107 C         -4.4795  -19.3147  -51.6934 C.2       19 UNK         0.5000 
    108 O         -4.7668  -18.1191  -51.7394 O.2       19 UNK        -0.5000 
    109 N         -5.1412  -20.2574  -52.3770 N.am      20 UNK        -0.5000 
    110 CA        -6.1594  -19.9719  -53.3845 C.3       20 UNK         0.1400 
    111 CB        -7.1148  -21.1692  -53.5084 C.3       20 UNK        -0.1800 
    112 C         -5.5210  -19.6358  -54.7432 C.2       20 UNK         0.5000 
    113 O         -5.9681  -18.6992  -55.4062 O.2       20 UNK        -0.5000 
    114 N         -4.5023  -20.4130  -55.1381 N.am      21 UNK        -0.5000 
    115 CA        -3.8047  -20.2829  -56.4156 C.3       21 UNK         0.1400 
    116 CB        -2.9770  -21.5516  -56.6781 C.3       21 UNK        -0.1800 
    117 C         -2.9245  -19.0236  -56.4999 C.2       21 UNK         0.5000 
    118 O         -3.0899  -18.2338  -57.4306 O.2       21 UNK        -0.5000 
    119 N         -1.9987  -18.8728  -55.5420 N.am      22 UNK        -0.5000 
    120 CA        -1.0058  -17.7848  -55.4488 C.3       22 UNK         0.1400 
    121 C         -0.0293  -17.6685  -56.6624 C.2       22 UNK         0.5000 
    122 N          0.1913  -18.7277  -57.4321 N.am      22 UNK        -0.7600 
    123 O          0.5677  -16.6208  -56.8963 O.2       22 UNK        -0.5000 
    124 C124       -1.6492  -16.4307  -55.0387 C.3       23 UNK        -0.0398 
    125 S125       -2.2740  -16.5037  -53.3266 S.3       23 UNK        -0.2404 
    126 C126       -0.9502  -15.6315  -52.4323 C.3       23 UNK        -0.0205 
    127 H127       -1.9922   -9.8520  -51.3548 H         1 UNK         0.0600 
    128 H128       -3.2116  -10.4081  -50.2041 H         1 UNK         0.0600 
    129 H129       -3.0436  -11.2109  -51.7680 H         1 UNK         0.0600 
    130 H130       -2.3148  -11.5828  -48.5356 H         1 UNK         0.3000 
    131 H131       -0.4600  -13.7598  -49.0114 H         1 UNK         0.0600 
    132 H132       -1.5803  -12.7684  -46.3461 H         1 UNK         0.0800 
    133 H133       -0.7613  -14.2832  -46.6243 H         1 UNK         0.0800 
    134 H134       -3.5195  -16.6148  -47.9217 H         1 UNK         0.0800 
    135 H135       -2.2931  -16.4605  -46.6913 H         1 UNK         0.0800 
    136 H136       -2.6530  -15.3881  -50.3134 H         1 UNK         0.1150 
    137 H137        1.1410  -17.0594  -51.4126 H         1 UNK         0.1150 
    138 H138       -0.2333  -17.3468  -47.3663 H         1 UNK         0.1150 
    139 H139        2.7110  -17.5767  -49.3678 H         1 UNK         0.0800 
    140 H140        1.9491  -18.1433  -47.9028 H         1 UNK         0.0800 
    141 H141       -0.4696  -20.4495  -49.8974 H         1 UNK         0.0800 
    142 H142       -0.2304  -19.6915  -48.3507 H         1 UNK         0.0800 
    143 H143        0.6470  -22.5234  -49.0730 H         1 UNK         0.0600 
    144 H144        1.6151  -20.8975  -46.9712 H         1 UNK         0.3000 
    145 H145        2.3734  -23.4403  -44.6278 H         1 UNK         0.0600 
    146 H146        4.6723  -22.5556  -44.9027 H         1 UNK         0.0600 
    147 H147        4.2606  -23.5897  -46.2610 H         1 UNK         0.0600 
    148 H148        4.2438  -21.8413  -46.4580 H         1 UNK         0.0600 
    149 H149        2.9978  -20.6911  -44.6191 H         1 UNK         0.3000 
    150 H150        1.8686  -19.3436  -43.0712 H         1 UNK         0.0600 
    151 H151        1.5028  -18.5970  -45.3910 H         1 UNK         0.0600 
    152 H152        0.4706  -17.6397  -44.3457 H         1 UNK         0.0600 
    153 H153       -0.2173  -18.9535  -45.2925 H         1 UNK         0.0600 
    154 H154       -0.9952  -19.0548  -42.8714 H         1 UNK         0.3000 
    155 H155       -1.6720  -20.8551  -40.1509 H         1 UNK         0.0600 
    156 H156       -0.5115  -18.1663  -39.2573 H         1 UNK         0.0600 
    157 H157       -0.1438  -19.7383  -38.5615 H         1 UNK         0.0600 
    158 H158       -1.7619  -19.0752  -38.4142 H         1 UNK         0.0600 
    159 H159       -2.2698  -18.0719  -41.0228 H         1 UNK         0.3000 
    160 H160       -4.7438  -19.0848  -43.2546 H         1 UNK         0.0600 
    161 H161       -5.5009  -18.0431  -40.4718 H         1 UNK         0.0600 
    162 H162       -6.1776  -19.4718  -41.2443 H         1 UNK         0.0600 
    163 H163       -6.4720  -17.8854  -41.9366 H         1 UNK         0.0600 
    164 H164       -4.2994  -16.5503  -42.0201 H         1 UNK         0.3000 
    165 H165       -2.3700  -15.3447  -44.5843 H         1 UNK         0.0600 
    166 H166       -3.5269  -14.6642  -41.8238 H         1 UNK         0.0600 
    167 H167       -3.0901  -13.5292  -43.0928 H         1 UNK         0.0600 
    168 H168       -4.4246  -14.6376  -43.3424 H         1 UNK         0.0600 
    169 H169       -0.3922  -15.1013  -43.6037 H         1 UNK         0.3000 
    170 H170        0.7217  -14.9994  -40.3129 H         1 UNK         0.0600 
    171 H171        1.2420  -17.3957  -40.7159 H         1 UNK         0.0600 
    172 H172        1.7715  -17.0234  -42.3496 H         1 UNK         0.0600 
    173 H173        2.6534  -16.3854  -40.9671 H         1 UNK         0.0600 
    174 H174        1.6441  -13.4630  -41.5543 H         1 UNK         0.3000 
    175 H175        1.6404  -12.2175  -44.0818 H         1 UNK         0.0600 
    176 H176        4.1426  -13.1070  -42.5523 H         1 UNK         0.0600 
    177 H177        3.9880  -11.5413  -43.3455 H         1 UNK         0.0600 
    178 H178        2.9142  -11.9636  -42.0279 H         1 UNK         0.0600 
    179 H179        2.5061  -12.7946  -45.9978 H         1 UNK         0.3000 
    180 H180        5.4609  -13.9786  -47.1717 H         1 UNK         0.0600 
    181 H181        4.3988  -15.8539  -48.4414 H         1 UNK         0.0600 
    182 H182        3.0996  -15.9354  -47.2478 H         1 UNK         0.0600 
    183 H183        4.7495  -16.3371  -46.7903 H         1 UNK         0.0600 
    184 H184        2.8290  -13.7849  -48.3758 H         1 UNK         0.3000 
    185 H185        2.5826  -10.3286  -48.5145 H         1 UNK         0.0600 
    186 H186        2.5621  -10.4970  -50.9891 H         1 UNK         0.0600 
    187 H187        4.2151  -10.5594  -50.3985 H         1 UNK         0.0600 
    188 H188        3.4160  -12.0386  -50.9196 H         1 UNK         0.0600 
    189 H189        1.0873  -12.1893  -49.9657 H         1 UNK         0.3000 
    190 H190       -0.8575  -21.3731  -46.0888 H         1 UNK         0.3000 
    191 H191       -3.5825  -22.1130  -46.8521 H         1 UNK         0.0600 
    192 H192       -4.1266  -21.3812  -44.5512 H         1 UNK         0.0600 
    193 H193       -3.2291  -20.1453  -45.4193 H         1 UNK         0.0600 
    194 H194       -2.4228  -21.1308  -44.2024 H         1 UNK         0.0600 
    195 H195       -0.9274  -23.3076  -44.7738 H         1 UNK         0.3000 
    196 H196       -2.1852  -25.5981  -43.7200 H         1 UNK         0.0600 
    197 H197        0.7837  -25.1823  -44.3507 H         1 UNK         0.0600 
    198 H198       -0.0295  -24.6144  -42.8924 H         1 UNK         0.0600 
    199 H199        0.1152  -26.3379  -43.2086 H         1 UNK         0.0600 
    200 H200       -0.6129  -25.1141  -46.8558 H         1 UNK         0.3000 
    201 H201       -0.7255  -27.8479  -47.7667 H         1 UNK         0.0600 
    202 H202       -0.3982  -25.2062  -49.2833 H         1 UNK         0.0600 
    203 H203       -0.0919  -26.8100  -49.9417 H         1 UNK         0.0600 
    204 H204        0.9101  -26.1944  -48.6381 H         1 UNK         0.0600 
    205 H205       -3.1233  -27.5956  -46.7283 H         1 UNK         0.3000 
    206 H206       -5.3195  -27.8542  -46.9381 H         1 UNK         0.0600 
    207 H207       -4.5303  -29.7361  -48.4006 H         1 UNK         0.0600 
    208 H208       -6.1130  -29.1546  -48.8852 H         1 UNK         0.0600 
    209 H209       -4.6926  -28.7000  -49.8180 H         1 UNK         0.0600 
    210 H210       -4.2972  -25.1833  -47.5881 H         1 UNK         0.3000 
    211 H211       -4.7522  -23.1933  -48.3683 H         1 UNK         0.0600 
    212 H212       -7.0938  -22.4398  -48.4954 H         1 UNK         0.0600 
    213 H213       -6.8986  -23.5196  -47.1256 H         1 UNK         0.0600 
    214 H214       -7.6663  -24.0980  -48.6047 H         1 UNK         0.0600 
    215 H215       -4.3227  -25.5097  -50.4366 H         1 UNK         0.3000 
    216 H216       -5.6523  -24.6322  -52.8354 H         1 UNK         0.0600 
    217 H217       -3.2433  -26.4903  -52.4439 H         1 UNK         0.0600 
    218 H218       -4.1756  -26.3145  -53.9261 H         1 UNK         0.0600 
    219 H219       -4.9337  -26.9846  -52.4888 H         1 UNK         0.0600 
    220 H220       -2.3326  -24.2485  -51.5527 H         1 UNK         0.3000 
    221 H221       -1.3551  -22.6724  -53.7517 H         1 UNK         0.0600 
    222 H222        0.2435  -23.8853  -52.4292 H         1 UNK         0.0600 
    223 H223       -0.3457  -23.1921  -50.9279 H         1 UNK         0.0600 
    224 H224        0.5329  -22.1867  -52.0789 H         1 UNK         0.0600 
    225 H225       -2.9003  -21.8546  -50.6497 H         1 UNK         0.3000 
    226 H226       -2.5382  -19.0016  -50.8620 H         1 UNK         0.0600 
    227 H227       -4.4551  -20.7093  -49.1878 H         1 UNK         0.0600 
    228 H228       -2.9084  -20.0317  -48.6720 H         1 UNK         0.0600 
    229 H229       -4.2572  -18.9701  -49.0105 H         1 UNK         0.0600 
    230 H230       -4.9059  -21.2297  -52.2283 H         1 UNK         0.3000 
    231 H231       -6.7490  -19.1094  -53.0663 H         1 UNK         0.0600 
    232 H232       -6.5916  -22.0791  -53.8032 H         1 UNK         0.0600 
    233 H233       -7.8865  -20.9771  -54.2547 H         1 UNK         0.0600 
    234 H234       -7.6192  -21.3675  -52.5626 H         1 UNK         0.0600 
    235 H235       -4.2352  -21.2009  -54.5564 H         1 UNK         0.3000 
    236 H236       -4.5584  -20.2120  -57.2028 H         1 UNK         0.0600 
    237 H237       -3.6152  -22.4344  -56.7204 H         1 UNK         0.0600 
    238 H238       -2.4504  -21.4859  -57.6310 H         1 UNK         0.0600 
    239 H239       -2.2322  -21.7180  -55.8994 H         1 UNK         0.0600 
    240 H240       -1.9662  -19.5392  -54.7739 H         1 UNK         0.3000 
    241 H241       -0.3452  -18.0798  -54.6325 H         1 UNK         0.0600 
    242 H242        0.8301  -18.6524  -58.2082 H         1 UNK         0.3800 
    243 H243       -0.2750  -19.6012  -57.2484 H         1 UNK         0.3800 
    244 H244       -2.4726  -16.1760  -55.7066 H         1 UNK         0.0800 
    245 H245       -0.9411  -15.6045  -55.1144 H         1 UNK         0.0800 
    246 H246       -0.0104  -15.7245  -52.9784 H         1 UNK         0.0800 
    247 H247       -1.1818  -14.5661  -52.4005 H         1 UNK         0.0800 
@<TRIPOS>BOND
     1    1    2 1    
     2    1  127 1    
     3    1  128 1    
     4    1  129 1    
     5    2    3 2    
     6    2    4 am   BACKBONE|DICT|INTERRES
     7    4    5 1    
     8    4  130 1    
     9    5    6 1    
    10    5   65 1    
    11    5  131 1    
    12    6    7 1    
    13    6  132 1    
    14    6  133 1    
    15    7    8 1    
    16    8    9 1    
    17    8  134 1    
    18    8  135 1    
    19    9   10 ar   
    20    9   14 ar   
    21   10   11 ar   
    22   10  136 1    
    23   11   12 ar   
    24   11  126 1    
    25   12   13 ar   
    26   12  137 1    
    27   13   14 ar   
    28   13   15 1    
    29   14  138 1    
    30   15   16 1    
    31   15  139 1    
    32   15  140 1    
    33   16   17 1    
    34   17   18 1    
    35   17  141 1    
    36   17  142 1    
    37   18   19 1    
    38   18   67 1    
    39   18  143 1    
    40   19   20 am   BACKBONE|DICT|INTERRES
    41   19  144 1    
    42   20   21 2    
    43   20   22 1    
    44   22   23 1    
    45   22   24 1    
    46   22  145 1    
    47   23  146 1    
    48   23  147 1    
    49   23  148 1    
    50   24   25 am   BACKBONE|DICT|INTERRES
    51   24  149 1    
    52   25   26 2    
    53   25   27 1    
    54   27   28 1    
    55   27   29 1    
    56   27  150 1    
    57   28  151 1    
    58   28  152 1    
    59   28  153 1    
    60   29   30 am   BACKBONE|DICT|INTERRES
    61   29  154 1    
    62   30   31 2    
    63   30   32 1    
    64   32   33 1    
    65   32   34 1    
    66   32  155 1    
    67   33  156 1    
    68   33  157 1    
    69   33  158 1    
    70   34   35 am   BACKBONE|DICT|INTERRES
    71   34  159 1    
    72   35   36 2    
    73   35   37 1    
    74   37   38 1    
    75   37   39 1    
    76   37  160 1    
    77   38  161 1    
    78   38  162 1    
    79   38  163 1    
    80   39   40 am   BACKBONE|DICT|INTERRES
    81   39  164 1    
    82   40   41 2    
    83   40   42 1    
    84   42   43 1    
    85   42   44 1    
    86   42  165 1    
    87   43  166 1    
    88   43  167 1    
    89   43  168 1    
    90   44   45 am   BACKBONE|DICT|INTERRES
    91   44  169 1    
    92   45   46 2    
    93   45   47 1    
    94   47   48 1    
    95   47   49 1    
    96   47  170 1    
    97   48  171 1    
    98   48  172 1    
    99   48  173 1    
   100   49   50 am   BACKBONE|DICT|INTERRES
   101   49  174 1    
   102   50   51 2    
   103   50   52 1    
   104   52   53 1    
   105   52   54 1    
   106   52  175 1    
   107   53  176 1    
   108   53  177 1    
   109   53  178 1    
   110   54   55 am   BACKBONE|DICT|INTERRES
   111   54  179 1    
   112   55   56 2    
   113   55   57 1    
   114   57   58 1    
   115   57   59 1    
   116   57  180 1    
   117   58  181 1    
   118   58  182 1    
   119   58  183 1    
   120   59   60 am   BACKBONE|DICT|INTERRES
   121   59  184 1    
   122   60   61 2    
   123   60   62 1    
   124   62   63 1    
   125   62   64 1    
   126   62  185 1    
   127   63  186 1    
   128   63  187 1    
   129   63  188 1    
   130   64   65 am   BACKBONE|DICT|INTERRES
   131   64  189 1    
   132   65   66 2    
   133   67   68 2    
   134   67   69 am   BACKBONE|DICT|INTERRES
   135   69   70 1    
   136   69  190 1    
   137   70   71 1    
   138   70   72 1    
   139   70  191 1    
   140   71  192 1    
   141   71  193 1    
   142   71  194 1    
   143   72   73 2    
   144   72   74 am   BACKBONE|DICT|INTERRES
   145   74   75 1    
   146   74  195 1    
   147   75   76 1    
   148   75   77 1    
   149   75  196 1    
   150   76  197 1    
   151   76  198 1    
   152   76  199 1    
   153   77   78 2    
   154   77   79 am   BACKBONE|DICT|INTERRES
   155   79   80 1    
   156   79  200 1    
   157   80   81 1    
   158   80   82 1    
   159   80  201 1    
   160   81  202 1    
   161   81  203 1    
   162   81  204 1    
   163   82   83 2    
   164   82   84 am   BACKBONE|DICT|INTERRES
   165   84   85 1    
   166   84  205 1    
   167   85   86 1    
   168   85   87 1    
   169   85  206 1    
   170   86  207 1    
   171   86  208 1    
   172   86  209 1    
   173   87   88 2    
   174   87   89 am   BACKBONE|DICT|INTERRES
   175   89   90 1    
   176   89  210 1    
   177   90   91 1    
   178   90   92 1    
   179   90  211 1    
   180   91  212 1    
   181   91  213 1    
   182   91  214 1    
   183   92   93 2    
   184   92   94 am   BACKBONE|DICT|INTERRES
   185   94   95 1    
   186   94  215 1    
   187   95   96 1    
   188   95   97 1    
   189   95  216 1    
   190   96  217 1    
   191   96  218 1    
   192   96  219 1    
   193   97   98 2    
   194   97   99 am   BACKBONE|DICT|INTERRES
   195   99  100 1    
   196   99  220 1    
   197  100  101 1    
   198  100  102 1    
   199  100  221 1    
   200  101  222 1    
   201  101  223 1    
   202  101  224 1    
   203  102  103 2    
   204  102  104 am   BACKBONE|DICT|INTERRES
   205  104  105 1    
   206  104  225 1    
   207  105  106 1    
   208  105  107 1    
   209  105  226 1    
   210  106  227 1    
   211  106  228 1    
   212  106  229 1    
   213  107  108 2    
   214  107  109 am   BACKBONE|DICT|INTERRES
   215  109  110 1    
   216  109  230 1    
   217  110  111 1    
   218  110  112 1    
   219  110  231 1    
   220  111  232 1    
   221  111  233 1    
   222  111  234 1    
   223  112  113 2    
   224  112  114 am   BACKBONE|DICT|INTERRES
   225  114  115 1    
   226  114  235 1    
   227  115  116 1    
   228  115  117 1    
   229  115  236 1    
   230  116  237 1    
   231  116  238 1    
   232  116  239 1    
   233  117  118 2    
   234  117  119 am   BACKBONE|DICT|INTERRES
   235  119  120 1    
   236  119  240 1    
   237  120  121 1    
   238  120  124 1    
   239  120  241 1    
   240  121  122 am   BACKBONE|DICT|INTERRES
   241  121  123 2    
   242  122  242 1    
   243  122  243 1    
   244  124  125 1    
   245  124  244 1    
   246  124  245 1    
   247  125  126 1    
   248  126  246 1    
   249  126  247 1    
@<TRIPOS>SUBSTRUCTURE
     1 UNK         1 GROUP             0       ****    0 ROOT    
