@<TRIPOS>MOLECULE
3R540
247   249    1
SMALL
USER_CHARGES


@<TRIPOS>ATOM
      1 CA         -2.1947  -16.2120  -49.5471 C.3       0 UNK        -0.1800 
      2 C          -1.2562  -15.6941  -48.4725 C.2       0 UNK         0.5000 
      3 O          -1.6757  -14.9507  -47.5851 O.2       0 UNK        -0.5000 
      4 N           0.0172  -16.1022  -48.5361 N.am      1 UNK        -0.5000 
      5 CA          1.0805  -15.6436  -47.6339 C.3       1 UNK         0.1400 
      6 C6          2.4902  -16.0245  -48.1376 C.3       23 UNK        -0.0398 
      7 S7          2.8363  -15.2850  -49.7701 S.3       23 UNK        -0.2404 
      8 C8          3.4446  -16.7085  -50.7289 C.3       23 UNK        -0.0205 
      9 C9          2.4175  -17.8250  -50.8591 C.ar      23 UNK        -0.0193 
     10 C10         1.2376  -17.6262  -51.5828 C.ar      23 UNK        -0.1150 
     11 C11         0.3154  -18.6665  -51.7368 C.ar      23 UNK        -0.0193 
     12 C12         0.5747  -19.9074  -51.1462 C.ar      23 UNK        -0.1150 
     13 C13         1.7488  -20.1173  -50.4173 C.ar      23 UNK        -0.0193 
     14 C14         2.6660  -19.0725  -50.2799 C.ar      23 UNK        -0.1150 
     15 C15         2.0472  -21.4779  -49.8021 C.3       23 UNK        -0.0205 
     16 S16         1.9789  -21.4414  -47.9830 S.3       23 UNK        -0.2404 
     17 C17         0.1919  -21.2419  -47.6751 C.3       23 UNK        -0.0398 
     18 CA         -0.4428  -22.4576  -46.9524 C.3       11 UNK         0.1400 
     19 N           0.2625  -22.8203  -45.7139 N.am      11 UNK        -0.5000 
     20 C           0.1678  -24.0126  -45.1062 C.2       10 UNK         0.5000 
     21 O          -0.5585  -24.9255  -45.4939 O.2       10 UNK        -0.5000 
     22 CA          0.9727  -24.2049  -43.8068 C.3       10 UNK         0.1400 
     23 CB          2.4167  -24.6180  -44.1281 C.3       10 UNK        -0.1800 
     24 N           0.9958  -23.0338  -42.9287 N.am      10 UNK        -0.5000 
     25 C          -0.0625  -22.3283  -42.5060 C.2       9 UNK         0.5000 
     26 O          -1.2222  -22.5893  -42.8286 O.2       9 UNK        -0.5000 
     27 CA          0.2061  -21.1216  -41.5813 C.3       9 UNK         0.1400 
     28 CB         -0.3478  -21.3978  -40.1753 C.3       9 UNK        -0.1800 
     29 N           1.6124  -20.7166  -41.4622 N.am      9 UNK        -0.5000 
     30 C           2.3888  -20.2655  -42.4564 C.2       8 UNK         0.5000 
     31 O           2.0335  -20.2198  -43.6359 O.2       8 UNK        -0.5000 
     32 CA          3.8206  -19.8548  -42.0597 C.3       8 UNK         0.1400 
     33 CB          4.7027  -21.1016  -41.8833 C.3       8 UNK        -0.1800 
     34 N           4.4453  -18.9801  -43.0517 N.am      8 UNK        -0.5000 
     35 C           4.0323  -17.7433  -43.3524 C.2       7 UNK         0.5000 
     36 O           3.1298  -17.1531  -42.7500 O.2       7 UNK        -0.5000 
     37 CA          4.7524  -17.0660  -44.5295 C.3       7 UNK         0.1400 
     38 CB          4.5045  -17.8275  -45.8442 C.3       7 UNK        -0.1800 
     39 N           4.2534  -15.7033  -44.6625 N.am      7 UNK        -0.5000 
     40 C           4.9883  -14.6007  -44.8436 C.2       6 UNK         0.5000 
     41 O           6.2048  -14.6112  -45.0346 O.2       6 UNK        -0.5000 
     42 CA          4.2400  -13.2544  -44.7890 C.3       6 UNK         0.1400 
     43 CB          3.9737  -12.7190  -46.2048 C.3       6 UNK        -0.1800 
     44 N           2.9624  -13.3758  -44.0892 N.am      6 UNK        -0.5000 
     45 C           2.7800  -13.2579  -42.7686 C.2       5 UNK         0.5000 
     46 O           3.6721  -12.9324  -41.9832 O.2       5 UNK        -0.5000 
     47 CA          1.3599  -13.5782  -42.2506 C.3       5 UNK         0.1400 
     48 CB          1.0333  -12.8930  -40.9076 C.3       5 UNK        -0.1800 
     49 N           0.3150  -13.3204  -43.2493 N.am      5 UNK        -0.5000 
     50 C          -0.0371  -12.1423  -43.7881 C.2       4 UNK         0.5000 
     51 O           0.4360  -11.0589  -43.4437 O.2       4 UNK        -0.5000 
     52 CA         -1.0705  -12.1770  -44.9342 C.3       4 UNK         0.1400 
     53 CB         -0.3747  -11.9149  -46.2789 C.3       4 UNK        -0.1800 
     54 N          -1.8016  -13.4429  -45.0244 N.am      4 UNK        -0.5000 
     55 C          -2.7561  -13.8368  -44.1700 C.2       3 UNK         0.5000 
     56 O          -3.1724  -13.1455  -43.2400 O.2       3 UNK        -0.5000 
     57 CA         -3.3084  -15.2587  -44.3690 C.3       3 UNK         0.1400 
     58 CB         -4.4511  -15.2672  -45.3960 C.3       3 UNK        -0.1800 
     59 N          -2.2679  -16.1972  -44.7917 N.am      3 UNK        -0.5000 
     60 C          -1.3123  -16.6848  -43.9877 C.2       2 UNK         0.5000 
     61 O          -1.2042  -16.3957  -42.7966 O.2       2 UNK        -0.5000 
     62 CA         -0.2996  -17.6467  -44.6344 C.3       2 UNK         0.1400 
     63 CB         -0.9182  -19.0479  -44.7515 C.3       2 UNK        -0.1800 
     64 N           0.1426  -17.1915  -45.9549 N.am      2 UNK        -0.5000 
     65 C           0.8669  -16.0837  -46.1707 C.2       1 UNK         0.5000 
     66 O           1.3248  -15.3840  -45.2681 O.2       1 UNK        -0.5000 
     67 C          -1.9559  -22.2195  -46.7440 C.2       11 UNK         0.5000 
     68 O          -2.6849  -22.1557  -47.7340 O.2       11 UNK        -0.5000 
     69 N          -2.4059  -22.0761  -45.4894 N.am      12 UNK        -0.5000 
     70 CA         -3.8202  -22.0081  -45.1237 C.3       12 UNK         0.1400 
     71 CB         -4.0311  -20.9199  -44.0592 C.3       12 UNK        -0.1800 
     72 C          -4.3193  -23.3728  -44.6195 C.2       12 UNK         0.5000 
     73 O          -5.4526  -23.7443  -44.9236 O.2       12 UNK        -0.5000 
     74 N          -3.4700  -24.0988  -43.8747 N.am      13 UNK        -0.5000 
     75 CA         -3.7394  -25.4434  -43.3568 C.3       13 UNK         0.1400 
     76 CB         -2.6130  -25.8580  -42.3978 C.3       13 UNK        -0.1800 
     77 C          -3.9210  -26.4788  -44.4826 C.2       13 UNK         0.5000 
     78 O          -4.9162  -27.2043  -44.4928 O.2       13 UNK        -0.5000 
     79 N          -2.9857  -26.4794  -45.4385 N.am      14 UNK        -0.5000 
     80 CA         -3.1332  -27.0864  -46.7541 C.3       14 UNK         0.1400 
     81 CB         -1.8459  -27.8484  -47.1121 C.3       14 UNK        -0.1800 
     82 C          -3.3943  -25.9042  -47.6935 C.2       14 UNK         0.5000 
     83 O          -2.4462  -25.2095  -48.0579 O.2       14 UNK        -0.5000 
     84 N          -4.6817  -25.6387  -47.9539 N.am      15 UNK        -0.5000 
     85 CA         -5.2625  -24.3936  -48.4736 C.3       15 UNK         0.1400 
     86 CB         -6.7923  -24.4748  -48.3211 C.3       15 UNK        -0.1800 
     87 C          -4.8367  -23.9529  -49.8944 C.2       15 UNK         0.5000 
     88 O          -5.6860  -23.6138  -50.7202 O.2       15 UNK        -0.5000 
     89 N          -3.5253  -23.8875  -50.1390 N.am      16 UNK        -0.5000 
     90 CA         -2.8879  -23.2742  -51.3029 C.3       16 UNK         0.1400 
     91 CB         -1.3705  -23.4887  -51.2101 C.3       16 UNK        -0.1800 
     92 C          -3.2128  -21.7743  -51.4311 C.2       16 UNK         0.5000 
     93 O          -3.3292  -21.2758  -52.5478 O.2       16 UNK        -0.5000 
     94 N          -3.4153  -21.0976  -50.2904 N.am      17 UNK        -0.5000 
     95 CA         -3.8716  -19.7100  -50.1829 C.3       17 UNK         0.1400 
     96 CB         -3.8567  -19.2986  -48.7015 C.3       17 UNK        -0.1800 
     97 C          -5.2602  -19.4452  -50.8017 C.2       17 UNK         0.5000 
     98 O          -5.5536  -18.3010  -51.1480 O.2       17 UNK        -0.5000 
     99 N          -6.0794  -20.4934  -50.9520 N.am      18 UNK        -0.5000 
    100 CA        -7.3917  -20.4446  -51.5960 C.3       18 UNK         0.1400 
    101 CB        -8.3688  -21.2955  -50.7657 C.3       18 UNK        -0.1800 
    102 C         -7.3419  -20.9250  -53.0625 C.2       18 UNK         0.5000 
    103 O         -8.4012  -21.0965  -53.6685 O.2       18 UNK        -0.5000 
    104 N         -6.1405  -21.1595  -53.6068 N.am      19 UNK        -0.5000 
    105 CA        -5.9106  -21.7426  -54.9250 C.3       19 UNK         0.1400 
    106 CB        -5.5519  -23.2300  -54.7352 C.3       19 UNK        -0.1800 
    107 C         -4.8149  -20.9733  -55.6865 C.2       19 UNK         0.5000 
    108 O         -4.3812  -19.9001  -55.2522 O.2       19 UNK        -0.5000 
    109 N         -4.4075  -21.5452  -56.8300 N.am      20 UNK        -0.5000 
    110 CA        -3.3754  -21.1063  -57.7769 C.3       20 UNK         0.1400 
    111 CB        -1.9864  -21.0488  -57.1073 C.3       20 UNK        -0.1800 
    112 C         -3.7209  -19.7921  -58.5001 C.2       20 UNK         0.5000 
    113 O         -3.9304  -19.7997  -59.7135 O.2       20 UNK        -0.5000 
    114 N         -3.7839  -18.7072  -57.7269 N.am      21 UNK        -0.5000 
    115 CA        -4.0850  -17.3261  -58.1022 C.3       21 UNK         0.1400 
    116 CB        -3.1585  -16.8098  -59.2234 C.3       21 UNK        -0.1800 
    117 C         -3.9331  -16.4367  -56.8598 C.2       21 UNK         0.5000 
    118 O         -4.7236  -15.5124  -56.6677 O.2       21 UNK        -0.5000 
    119 N         -2.9174  -16.7408  -56.0408 N.am      22 UNK        -0.5000 
    120 CA        -2.6065  -16.0575  -54.7789 C.3       22 UNK         0.1400 
    121 C         -3.5992  -16.3407  -53.6153 C.2       22 UNK         0.5000 
    122 N         -4.3333  -17.4464  -53.6113 N.am      22 UNK        -0.7600 
    123 O         -3.6996  -15.5354  -52.6948 O.2       22 UNK        -0.5000 
    124 C124       -1.1341  -16.3011  -54.3474 C.3       23 UNK        -0.0398 
    125 S125       -0.6610  -18.0686  -54.2801 S.3       23 UNK        -0.2404 
    126 C126       -0.9670  -18.4571  -52.5284 C.3       23 UNK        -0.0205 
    127 H127       -3.2327  -16.1396  -49.2225 H         1 UNK         0.0600 
    128 H128       -1.9779  -17.2544  -49.7730 H         1 UNK         0.0600 
    129 H129       -2.0805  -15.6258  -50.4584 H         1 UNK         0.0600 
    130 H130        0.3158  -16.6974  -49.2962 H         1 UNK         0.3000 
    131 H131        1.0313  -14.5536  -47.6272 H         1 UNK         0.0600 
    132 H132        3.2560  -15.6637  -47.4503 H         1 UNK         0.0800 
    133 H133        2.6021  -17.1082  -48.1785 H         1 UNK         0.0800 
    134 H134        3.7208  -16.3660  -51.7270 H         1 UNK         0.0800 
    135 H135        4.3633  -17.0761  -50.2689 H         1 UNK         0.0800 
    136 H136        1.0459  -16.6652  -52.0389 H         1 UNK         0.1150 
    137 H137       -0.1350  -20.7137  -51.2619 H         1 UNK         0.1150 
    138 H138        3.5782  -19.2377  -49.7236 H         1 UNK         0.1150 
    139 H139        1.3632  -22.2397  -50.1780 H         1 UNK         0.0800 
    140 H140        3.0463  -21.7914  -50.1075 H         1 UNK         0.0800 
    141 H141       -0.3174  -21.0661  -48.6238 H         1 UNK         0.0800 
    142 H142        0.0598  -20.3273  -47.1009 H         1 UNK         0.0800 
    143 H143       -0.3639  -23.3109  -47.6299 H         1 UNK         0.0600 
    144 H144        0.8822  -22.1231  -45.3239 H         1 UNK         0.3000 
    145 H145        0.5055  -25.0165  -43.2472 H         1 UNK         0.0600 
    146 H146        2.9692  -24.8631  -43.2209 H         1 UNK         0.0600 
    147 H147        2.4376  -25.5012  -44.7682 H         1 UNK         0.0600 
    148 H148        2.9561  -23.8238  -44.6461 H         1 UNK         0.0600 
    149 H149        1.9059  -22.7257  -42.6222 H         1 UNK         0.3000 
    150 H150       -0.3416  -20.2752  -41.9967 H         1 UNK         0.0600 
    151 H151        0.1779  -22.2219  -39.6913 H         1 UNK         0.0600 
    152 H152       -1.4058  -21.6615  -40.2141 H         1 UNK         0.0600 
    153 H153       -0.2594  -20.5194  -39.5357 H         1 UNK         0.0600 
    154 H154        1.9980  -20.7485  -40.5292 H         1 UNK         0.3000 
    155 H155        3.7749  -19.3151  -41.1114 H         1 UNK         0.0600 
    156 H156        4.7767  -21.6761  -42.8077 H         1 UNK         0.0600 
    157 H157        4.3017  -21.7652  -41.1161 H         1 UNK         0.0600 
    158 H158        5.7128  -20.8298  -41.5758 H         1 UNK         0.0600 
    159 H159        5.1725  -19.3975  -43.6130 H         1 UNK         0.3000 
    160 H160        5.8217  -17.0570  -44.3084 H         1 UNK         0.0600 
    161 H161        3.4387  -17.9548  -46.0371 H         1 UNK         0.0600 
    162 H162        4.9485  -18.8229  -45.8152 H         1 UNK         0.0600 
    163 H163        4.9462  -17.3063  -46.6935 H         1 UNK         0.0600 
    164 H164        3.2645  -15.5983  -44.4612 H         1 UNK         0.3000 
    165 H165        4.8776  -12.5389  -44.2657 H         1 UNK         0.0600 
    166 H166        3.5190  -11.7288  -46.1692 H         1 UNK         0.0600 
    167 H167        4.9010  -12.6307  -46.7722 H         1 UNK         0.0600 
    168 H168        3.3045  -13.3709  -46.7658 H         1 UNK         0.0600 
    169 H169        2.1847  -13.7355  -44.6322 H         1 UNK         0.3000 
    170 H170        1.3444  -14.6559  -42.0795 H         1 UNK         0.0600 
    171 H171        1.7194  -13.2207  -40.1259 H         1 UNK         0.0600 
    172 H172        1.1111  -11.8077  -40.9744 H         1 UNK         0.0600 
    173 H173        0.0244  -13.1385  -40.5759 H         1 UNK         0.0600 
    174 H174       -0.1221  -14.1486  -43.6301 H         1 UNK         0.3000 
    175 H175       -1.7899  -11.3749  -44.7573 H         1 UNK         0.0600 
    176 H176        0.0978  -10.9319  -46.2889 H         1 UNK         0.0600 
    177 H177        0.4034  -12.6515  -46.4760 H         1 UNK         0.0600 
    178 H178       -1.0840  -11.9439  -47.1064 H         1 UNK         0.0600 
    179 H179       -1.5784  -14.0475  -45.8094 H         1 UNK         0.3000 
    180 H180       -3.7111  -15.5979  -43.4121 H         1 UNK         0.0600 
    181 H181       -4.1151  -14.9386  -46.3800 H         1 UNK         0.0600 
    182 H182       -5.2572  -14.6010  -45.0863 H         1 UNK         0.0600 
    183 H183       -4.8772  -16.2648  -45.5033 H         1 UNK         0.0600 
    184 H184       -2.2482  -16.4318  -45.7735 H         1 UNK         0.3000 
    185 H185        0.5711  -17.7066  -43.9772 H         1 UNK         0.0600 
    186 H186       -1.4130  -19.3390  -43.8251 H         1 UNK         0.0600 
    187 H187       -1.6630  -19.0996  -45.5464 H         1 UNK         0.0600 
    188 H188       -0.1551  -19.7972  -44.9485 H         1 UNK         0.0600 
    189 H189       -0.1971  -17.7015  -46.7557 H         1 UNK         0.3000 
    190 H190       -1.7505  -22.1590  -44.7210 H         1 UNK         0.3000 
    191 H191       -4.4245  -21.7380  -45.9923 H         1 UNK         0.0600 
    192 H192       -3.7813  -19.9346  -44.4516 H         1 UNK         0.0600 
    193 H193       -5.0737  -20.8836  -43.7412 H         1 UNK         0.0600 
    194 H194       -3.4238  -21.0936  -43.1708 H         1 UNK         0.0600 
    195 H195       -2.5812  -23.6842  -43.6130 H         1 UNK         0.3000 
    196 H196       -4.6705  -25.3996  -42.7882 H         1 UNK         0.0600 
    197 H197       -2.8193  -26.8323  -41.9534 H         1 UNK         0.0600 
    198 H198       -2.5053  -25.1428  -41.5820 H         1 UNK         0.0600 
    199 H199       -1.6538  -25.9281  -42.9101 H         1 UNK         0.0600 
    200 H200       -2.2055  -25.8290  -45.3631 H         1 UNK         0.3000 
    201 H201       -3.9745  -27.7817  -46.7889 H         1 UNK         0.0600 
    202 H202       -1.9116  -28.2718  -48.1149 H         1 UNK         0.0600 
    203 H203       -1.6744  -28.6721  -46.4193 H         1 UNK         0.0600 
    204 H204       -0.9667  -27.2032  -47.0836 H         1 UNK         0.0600 
    205 H205       -5.3616  -26.2964  -47.6010 H         1 UNK         0.3000 
    206 H206       -4.9254  -23.5967  -47.8093 H         1 UNK         0.0600 
    207 H207       -7.0756  -24.6784  -47.2880 H         1 UNK         0.0600 
    208 H208       -7.2681  -23.5338  -48.6002 H         1 UNK         0.0600 
    209 H209       -7.2167  -25.2591  -48.9490 H         1 UNK         0.0600 
    210 H210       -2.9093  -24.2052  -49.3902 H         1 UNK         0.3000 
    211 H211       -3.2600  -23.7781  -52.1965 H         1 UNK         0.0600 
    212 H212       -0.9601  -23.0401  -50.3049 H         1 UNK         0.0600 
    213 H213       -0.8576  -23.0450  -52.0645 H         1 UNK         0.0600 
    214 H214       -1.1235  -24.5504  -51.1968 H         1 UNK         0.0600 
    215 H215       -3.2647  -21.5865  -49.4099 H         1 UNK         0.3000 
    216 H216       -3.1610  -19.0842  -50.7219 H         1 UNK         0.0600 
    217 H217       -4.2199  -18.2791  -48.5691 H         1 UNK         0.0600 
    218 H218       -2.8479  -19.3408  -48.2905 H         1 UNK         0.0600 
    219 H219       -4.4907  -19.9504  -48.0992 H         1 UNK         0.0600 
    220 H220       -5.7521  -21.4162  -50.6925 H         1 UNK         0.3000 
    221 H221       -7.7686  -19.4201  -51.6074 H         1 UNK         0.0600 
    222 H222       -8.0954  -22.3509  -50.7797 H         1 UNK         0.0600 
    223 H223       -8.3925  -20.9686  -49.7260 H         1 UNK         0.0600 
    224 H224       -9.3857  -21.2158  -51.1518 H         1 UNK         0.0600 
    225 H225       -5.2962  -20.9428  -53.0871 H         1 UNK         0.3000 
    226 H226       -6.8161  -21.6738  -55.5309 H         1 UNK         0.0600 
    227 H227       -5.5030  -23.7591  -55.6871 H         1 UNK         0.0600 
    228 H228       -4.5870  -23.3467  -54.2408 H         1 UNK         0.0600 
    229 H229       -6.2988  -23.7408  -54.1267 H         1 UNK         0.0600 
    230 H230       -4.8685  -22.4034  -57.0975 H         1 UNK         0.3000 
    231 H231       -3.3281  -21.8800  -58.5449 H         1 UNK         0.0600 
    232 H232       -1.9464  -20.3271  -56.2910 H         1 UNK         0.0600 
    233 H233       -1.2185  -20.7664  -57.8284 H         1 UNK         0.0600 
    234 H234       -1.7082  -22.0212  -56.7012 H         1 UNK         0.0600 
    235 H235       -3.7333  -18.8793  -56.7258 H         1 UNK         0.3000 
    236 H236       -5.1229  -17.2766  -58.4359 H         1 UNK         0.0600 
    237 H237       -3.3551  -17.3069  -60.1726 H         1 UNK         0.0600 
    238 H238       -3.3075  -15.7424  -59.3923 H         1 UNK         0.0600 
    239 H239       -2.1067  -16.9590  -58.9768 H         1 UNK         0.0600 
    240 H240       -2.3039  -17.5054  -56.2813 H         1 UNK         0.3000 
    241 H241       -2.6962  -14.9873  -54.9760 H         1 UNK         0.0600 
    242 H242       -4.2398  -18.1615  -54.3242 H         1 UNK         0.3800 
    243 H243       -4.9357  -17.6167  -52.8127 H         1 UNK         0.3800 
    244 H244       -0.4720  -15.8211  -55.0690 H         1 UNK         0.0800 
    245 H245       -0.9163  -15.8153  -53.3946 H         1 UNK         0.0800 
    246 H246       -1.5570  -17.6730  -52.0572 H         1 UNK         0.0800 
    247 H247       -1.5816  -19.3555  -52.4994 H         1 UNK         0.0800 
@<TRIPOS>BOND
     1    1    2 1    
     2    1  127 1    
     3    1  128 1    
     4    1  129 1    
     5    2    3 2    
     6    2    4 am   BACKBONE|DICT|INTERRES
     7    4    5 1    
     8    4  130 1    
     9    5    6 1    
    10    5   65 1    
    11    5  131 1    
    12    6    7 1    
    13    6  132 1    
    14    6  133 1    
    15    7    8 1    
    16    8    9 1    
    17    8  134 1    
    18    8  135 1    
    19    9   10 ar   
    20    9   14 ar   
    21   10   11 ar   
    22   10  136 1    
    23   11   12 ar   
    24   11  126 1    
    25   12   13 ar   
    26   12  137 1    
    27   13   14 ar   
    28   13   15 1    
    29   14  138 1    
    30   15   16 1    
    31   15  139 1    
    32   15  140 1    
    33   16   17 1    
    34   17   18 1    
    35   17  141 1    
    36   17  142 1    
    37   18   19 1    
    38   18   67 1    
    39   18  143 1    
    40   19   20 am   BACKBONE|DICT|INTERRES
    41   19  144 1    
    42   20   21 2    
    43   20   22 1    
    44   22   23 1    
    45   22   24 1    
    46   22  145 1    
    47   23  146 1    
    48   23  147 1    
    49   23  148 1    
    50   24   25 am   BACKBONE|DICT|INTERRES
    51   24  149 1    
    52   25   26 2    
    53   25   27 1    
    54   27   28 1    
    55   27   29 1    
    56   27  150 1    
    57   28  151 1    
    58   28  152 1    
    59   28  153 1    
    60   29   30 am   BACKBONE|DICT|INTERRES
    61   29  154 1    
    62   30   31 2    
    63   30   32 1    
    64   32   33 1    
    65   32   34 1    
    66   32  155 1    
    67   33  156 1    
    68   33  157 1    
    69   33  158 1    
    70   34   35 am   BACKBONE|DICT|INTERRES
    71   34  159 1    
    72   35   36 2    
    73   35   37 1    
    74   37   38 1    
    75   37   39 1    
    76   37  160 1    
    77   38  161 1    
    78   38  162 1    
    79   38  163 1    
    80   39   40 am   BACKBONE|DICT|INTERRES
    81   39  164 1    
    82   40   41 2    
    83   40   42 1    
    84   42   43 1    
    85   42   44 1    
    86   42  165 1    
    87   43  166 1    
    88   43  167 1    
    89   43  168 1    
    90   44   45 am   BACKBONE|DICT|INTERRES
    91   44  169 1    
    92   45   46 2    
    93   45   47 1    
    94   47   48 1    
    95   47   49 1    
    96   47  170 1    
    97   48  171 1    
    98   48  172 1    
    99   48  173 1    
   100   49   50 am   BACKBONE|DICT|INTERRES
   101   49  174 1    
   102   50   51 2    
   103   50   52 1    
   104   52   53 1    
   105   52   54 1    
   106   52  175 1    
   107   53  176 1    
   108   53  177 1    
   109   53  178 1    
   110   54   55 am   BACKBONE|DICT|INTERRES
   111   54  179 1    
   112   55   56 2    
   113   55   57 1    
   114   57   58 1    
   115   57   59 1    
   116   57  180 1    
   117   58  181 1    
   118   58  182 1    
   119   58  183 1    
   120   59   60 am   BACKBONE|DICT|INTERRES
   121   59  184 1    
   122   60   61 2    
   123   60   62 1    
   124   62   63 1    
   125   62   64 1    
   126   62  185 1    
   127   63  186 1    
   128   63  187 1    
   129   63  188 1    
   130   64   65 am   BACKBONE|DICT|INTERRES
   131   64  189 1    
   132   65   66 2    
   133   67   68 2    
   134   67   69 am   BACKBONE|DICT|INTERRES
   135   69   70 1    
   136   69  190 1    
   137   70   71 1    
   138   70   72 1    
   139   70  191 1    
   140   71  192 1    
   141   71  193 1    
   142   71  194 1    
   143   72   73 2    
   144   72   74 am   BACKBONE|DICT|INTERRES
   145   74   75 1    
   146   74  195 1    
   147   75   76 1    
   148   75   77 1    
   149   75  196 1    
   150   76  197 1    
   151   76  198 1    
   152   76  199 1    
   153   77   78 2    
   154   77   79 am   BACKBONE|DICT|INTERRES
   155   79   80 1    
   156   79  200 1    
   157   80   81 1    
   158   80   82 1    
   159   80  201 1    
   160   81  202 1    
   161   81  203 1    
   162   81  204 1    
   163   82   83 2    
   164   82   84 am   BACKBONE|DICT|INTERRES
   165   84   85 1    
   166   84  205 1    
   167   85   86 1    
   168   85   87 1    
   169   85  206 1    
   170   86  207 1    
   171   86  208 1    
   172   86  209 1    
   173   87   88 2    
   174   87   89 am   BACKBONE|DICT|INTERRES
   175   89   90 1    
   176   89  210 1    
   177   90   91 1    
   178   90   92 1    
   179   90  211 1    
   180   91  212 1    
   181   91  213 1    
   182   91  214 1    
   183   92   93 2    
   184   92   94 am   BACKBONE|DICT|INTERRES
   185   94   95 1    
   186   94  215 1    
   187   95   96 1    
   188   95   97 1    
   189   95  216 1    
   190   96  217 1    
   191   96  218 1    
   192   96  219 1    
   193   97   98 2    
   194   97   99 am   BACKBONE|DICT|INTERRES
   195   99  100 1    
   196   99  220 1    
   197  100  101 1    
   198  100  102 1    
   199  100  221 1    
   200  101  222 1    
   201  101  223 1    
   202  101  224 1    
   203  102  103 2    
   204  102  104 am   BACKBONE|DICT|INTERRES
   205  104  105 1    
   206  104  225 1    
   207  105  106 1    
   208  105  107 1    
   209  105  226 1    
   210  106  227 1    
   211  106  228 1    
   212  106  229 1    
   213  107  108 2    
   214  107  109 am   BACKBONE|DICT|INTERRES
   215  109  110 1    
   216  109  230 1    
   217  110  111 1    
   218  110  112 1    
   219  110  231 1    
   220  111  232 1    
   221  111  233 1    
   222  111  234 1    
   223  112  113 2    
   224  112  114 am   BACKBONE|DICT|INTERRES
   225  114  115 1    
   226  114  235 1    
   227  115  116 1    
   228  115  117 1    
   229  115  236 1    
   230  116  237 1    
   231  116  238 1    
   232  116  239 1    
   233  117  118 2    
   234  117  119 am   BACKBONE|DICT|INTERRES
   235  119  120 1    
   236  119  240 1    
   237  120  121 1    
   238  120  124 1    
   239  120  241 1    
   240  121  122 am   BACKBONE|DICT|INTERRES
   241  121  123 2    
   242  122  242 1    
   243  122  243 1    
   244  124  125 1    
   245  124  244 1    
   246  124  245 1    
   247  125  126 1    
   248  126  246 1    
   249  126  247 1    
@<TRIPOS>SUBSTRUCTURE
     1 UNK         1 GROUP             0       ****    0 ROOT    
