@<TRIPOS>MOLECULE
3R540
247   249    1
SMALL
USER_CHARGES


@<TRIPOS>ATOM
      1 CA         -0.4791  -11.2445  -50.6899 C.3       0 UNK        -0.1800 
      2 C          -0.7253  -12.1707  -49.5092 C.2       0 UNK         0.5000 
      3 O           0.1176  -12.2604  -48.6192 O.2       0 UNK        -0.5000 
      4 N          -1.8809  -12.8468  -49.4883 N.am      1 UNK        -0.5000 
      5 CA         -2.2803  -13.8340  -48.4729 C.3       1 UNK         0.1400 
      6 C6         -3.5667  -14.5853  -48.9181 C.3       23 UNK        -0.0398 
      7 S7         -3.6109  -16.3454  -48.4301 S.3       23 UNK        -0.2404 
      8 C8         -3.3066  -17.2196  -50.0034 C.3       23 UNK        -0.0205 
      9 C9         -1.8263  -17.4696  -50.2679 C.ar      23 UNK        -0.0193 
     10 C10        -0.9567  -16.4029  -50.5012 C.ar      23 UNK        -0.1150 
     11 C11         0.3969  -16.6238  -50.7604 C.ar      23 UNK        -0.0193 
     12 C12         0.8748  -17.9340  -50.8509 C.ar      23 UNK        -0.1150 
     13 C13         0.0071  -19.0160  -50.6671 C.ar      23 UNK        -0.0193 
     14 C14        -1.3320  -18.7750  -50.3444 C.ar      23 UNK        -0.1150 
     15 C15         0.4995  -20.4409  -50.8829 C.3       23 UNK        -0.0205 
     16 S16         0.9869  -21.2598  -49.3343 S.3       23 UNK        -0.2404 
     17 C17        -0.6272  -21.7650  -48.6517 C.3       23 UNK        -0.0398 
     18 CA         -0.5179  -23.0053  -47.7313 C.3       11 UNK         0.1400 
     19 N           0.2988  -22.7642  -46.5379 N.am      11 UNK        -0.5000 
     20 C           0.6414  -23.6984  -45.6390 C.2       10 UNK         0.5000 
     21 O           0.3576  -24.8912  -45.7498 O.2       10 UNK        -0.5000 
     22 CA          1.3719  -23.2108  -44.3749 C.3       10 UNK         0.1400 
     23 CB          2.8757  -23.0305  -44.6315 C.3       10 UNK        -0.1800 
     24 N           0.8004  -21.9673  -43.8562 N.am      10 UNK        -0.5000 
     25 C          -0.4189  -21.8749  -43.3063 C.2       9 UNK         0.5000 
     26 O          -1.1658  -22.8390  -43.1376 O.2       9 UNK        -0.5000 
     27 CA         -0.9039  -20.4662  -42.9166 C.3       9 UNK         0.1400 
     28 CB         -0.3210  -20.0486  -41.5585 C.3       9 UNK        -0.1800 
     29 N          -0.5794  -19.4529  -43.9208 N.am      9 UNK        -0.5000 
     30 C          -1.0384  -19.4564  -45.1805 C.2       8 UNK         0.5000 
     31 O          -1.8307  -20.2887  -45.6171 O.2       8 UNK        -0.5000 
     32 CA         -0.4840  -18.3824  -46.1303 C.3       8 UNK         0.1400 
     33 CB         -1.2380  -17.0653  -45.9354 C.3       8 UNK        -0.1800 
     34 N           0.9488  -18.1452  -45.9683 N.am      8 UNK        -0.5000 
     35 C           1.9071  -19.0754  -46.0740 C.2       7 UNK         0.5000 
     36 O           1.6907  -20.2622  -46.3060 O.2       7 UNK        -0.5000 
     37 CA          3.3444  -18.6089  -45.8062 C.3       7 UNK         0.1400 
     38 CB          3.9045  -17.8316  -47.0075 C.3       7 UNK        -0.1800 
     39 N           3.4066  -17.7861  -44.5992 N.am      7 UNK        -0.5000 
     40 C           3.2900  -18.2718  -43.3548 C.2       6 UNK         0.5000 
     41 O           3.1905  -19.4716  -43.0945 O.2       6 UNK        -0.5000 
     42 CA          3.2489  -17.2407  -42.2114 C.3       6 UNK         0.1400 
     43 CB          4.6711  -16.8501  -41.7824 C.3       6 UNK        -0.1800 
     44 N           2.4994  -16.0323  -42.5613 N.am      6 UNK        -0.5000 
     45 C           1.1748  -15.9971  -42.7635 C.2       5 UNK         0.5000 
     46 O           0.4426  -16.9808  -42.6584 O.2       5 UNK        -0.5000 
     47 CA          0.5725  -14.6441  -43.1895 C.3       5 UNK         0.1400 
     48 CB          0.2399  -13.7871  -41.9595 C.3       5 UNK        -0.1800 
     49 N           1.4173  -13.8679  -44.1003 N.am      5 UNK        -0.5000 
     50 C           1.8664  -14.2799  -45.2934 C.2       4 UNK         0.5000 
     51 O           1.7086  -15.4231  -45.7221 O.2       4 UNK        -0.5000 
     52 CA          2.6001  -13.2277  -46.1448 C.3       4 UNK         0.1400 
     53 CB          3.0218  -13.7686  -47.5229 C.3       4 UNK        -0.1800 
     54 N           1.7556  -12.0522  -46.3429 N.am      4 UNK        -0.5000 
     55 C           1.6655  -11.0092  -45.5097 C.2       3 UNK         0.5000 
     56 O           2.2865  -10.9291  -44.4491 O.2       3 UNK        -0.5000 
     57 CA          0.6909   -9.8937  -45.9143 C.3       3 UNK         0.1400 
     58 CB          1.2004   -9.1320  -47.1490 C.3       3 UNK        -0.1800 
     59 N          -0.6410  -10.4298  -46.1877 N.am      3 UNK        -0.5000 
     60 C          -1.5718  -10.6660  -45.2529 C.2       2 UNK         0.5000 
     61 O          -1.3994  -10.4626  -44.0507 O.2       2 UNK        -0.5000 
     62 CA         -2.9354  -11.1955  -45.7391 C.3       2 UNK         0.1400 
     63 CB         -3.9185  -10.0323  -45.9420 C.3       2 UNK        -0.1800 
     64 N          -2.8390  -11.9568  -46.9854 N.am      2 UNK        -0.5000 
     65 C          -2.4171  -13.2269  -47.0576 C.2       1 UNK         0.5000 
     66 O          -2.1138  -13.8951  -46.0699 O.2       1 UNK        -0.5000 
     67 C          -1.9177  -23.5287  -47.3547 C.2       11 UNK         0.5000 
     68 O          -2.3569  -24.5321  -47.9150 O.2       11 UNK        -0.5000 
     69 N          -2.5797  -22.8696  -46.3930 N.am      12 UNK        -0.5000 
     70 CA         -3.8852  -23.2566  -45.8576 C.3       12 UNK         0.1400 
     71 CB         -4.3848  -22.1860  -44.8765 C.3       12 UNK        -0.1800 
     72 C          -3.8735  -24.6410  -45.1909 C.2       12 UNK         0.5000 
     73 O          -4.7949  -25.4220  -45.4177 O.2       12 UNK        -0.5000 
     74 N          -2.8206  -24.9435  -44.4196 N.am      13 UNK        -0.5000 
     75 CA         -2.6153  -26.2525  -43.7970 C.3       13 UNK         0.1400 
     76 CB         -1.4231  -26.1810  -42.8310 C.3       13 UNK        -0.1800 
     77 C          -2.4194  -27.3855  -44.8240 C.2       13 UNK         0.5000 
     78 O          -2.9075  -28.4943  -44.6022 O.2       13 UNK        -0.5000 
     79 N          -1.7182  -27.0865  -45.9250 N.am      14 UNK        -0.5000 
     80 CA         -1.4363  -28.0276  -47.0047 C.3       14 UNK         0.1400 
     81 CB         -0.2102  -27.5396  -47.7934 C.3       14 UNK        -0.1800 
     82 C          -2.6364  -28.2455  -47.9443 C.2       14 UNK         0.5000 
     83 O          -2.9959  -29.3937  -48.2088 O.2       14 UNK        -0.5000 
     84 N          -3.2040  -27.1497  -48.4648 N.am      15 UNK        -0.5000 
     85 CA         -4.1415  -27.1662  -49.5914 C.3       15 UNK         0.1400 
     86 CB         -3.7188  -26.0723  -50.5867 C.3       15 UNK        -0.1800 
     87 C          -5.6151  -26.9761  -49.1916 C.2       15 UNK         0.5000 
     88 O          -6.4758  -27.0610  -50.0689 O.2       15 UNK        -0.5000 
     89 N          -5.8946  -26.6844  -47.9123 N.am      16 UNK        -0.5000 
     90 CA         -7.2038  -26.3834  -47.3073 C.3       16 UNK         0.1400 
     91 CB         -8.2145  -27.5307  -47.5043 C.3       16 UNK        -0.1800 
     92 C          -7.7868  -25.0268  -47.7516 C.2       16 UNK         0.5000 
     93 O          -8.1030  -24.1912  -46.9048 O.2       16 UNK        -0.5000 
     94 N          -7.8877  -24.8181  -49.0694 N.am      17 UNK        -0.5000 
     95 CA         -8.3311  -23.5762  -49.7091 C.3       17 UNK         0.1400 
     96 CB         -8.8841  -23.9201  -51.1012 C.3       17 UNK        -0.1800 
     97 C          -7.2104  -22.5215  -49.8233 C.2       17 UNK         0.5000 
     98 O          -7.4862  -21.3856  -50.2125 O.2       17 UNK        -0.5000 
     99 N          -5.9702  -22.9215  -49.5094 N.am      18 UNK        -0.5000 
    100 CA        -4.7104  -22.1801  -49.6025 C.3       18 UNK         0.1400 
    101 CB        -4.7215  -20.8918  -48.7541 C.3       18 UNK        -0.1800 
    102 C         -4.2690  -21.9247  -51.0532 C.2       18 UNK         0.5000 
    103 O         -3.2490  -22.4777  -51.4619 O.2       18 UNK        -0.5000 
    104 N         -5.0603  -21.1240  -51.7834 N.am      19 UNK        -0.5000 
    105 CA        -4.8614  -20.6080  -53.1442 C.3       19 UNK         0.1400 
    106 CB        -4.7493  -21.7496  -54.1723 C.3       19 UNK        -0.1800 
    107 C         -3.6606  -19.6464  -53.2423 C.2       19 UNK         0.5000 
    108 O         -2.5545  -19.9966  -52.8343 O.2       19 UNK        -0.5000 
    109 N         -3.8879  -18.4476  -53.7969 N.am      20 UNK        -0.5000 
    110 CA        -2.9126  -17.3555  -53.9176 C.3       20 UNK         0.1400 
    111 CB        -3.6688  -16.0419  -54.1825 C.3       20 UNK        -0.1800 
    112 C         -1.7984  -17.6226  -54.9545 C.2       20 UNK         0.5000 
    113 O         -1.6385  -16.8671  -55.9158 O.2       20 UNK        -0.5000 
    114 N         -1.0343  -18.6966  -54.7277 N.am      21 UNK        -0.5000 
    115 CA         0.0640  -19.1875  -55.5612 C.3       21 UNK         0.1400 
    116 CB         0.5601  -20.5211  -54.9825 C.3       21 UNK        -0.1800 
    117 C          1.2343  -18.1974  -55.7163 C.2       21 UNK         0.5000 
    118 O          1.9756  -18.2938  -56.6955 O.2       21 UNK        -0.5000 
    119 N          1.3707  -17.2585  -54.7705 N.am      22 UNK        -0.5000 
    120 CA         2.3093  -16.1309  -54.8503 C.3       22 UNK         0.1400 
    121 C          1.9155  -15.0212  -55.8744 C.2       22 UNK         0.5000 
    122 N          0.7140  -15.0243  -56.4431 N.am      22 UNK        -0.7600 
    123 O          2.7260  -14.1475  -56.1711 O.2       22 UNK        -0.5000 
    124 C124        2.6363  -15.5554  -53.4486 C.3       23 UNK        -0.0398 
    125 S125        1.2278  -14.7412  -52.6115 S.3       23 UNK        -0.2404 
    126 C126        1.3260  -15.4341  -50.9326 C.3       23 UNK        -0.0205 
    127 H127        0.4049  -11.5697  -51.2386 H         1 UNK         0.0600 
    128 H128       -1.3228  -11.2327  -51.3802 H         1 UNK         0.0600 
    129 H129       -0.3096  -10.2264  -50.3395 H         1 UNK         0.0600 
    130 H130       -2.5368  -12.7047  -50.2431 H         1 UNK         0.3000 
    131 H131       -1.4595  -14.5505  -48.4066 H         1 UNK         0.0600 
    132 H132       -3.6751  -14.5422  -50.0022 H         1 UNK         0.0800 
    133 H133       -4.4637  -14.0973  -48.5321 H         1 UNK         0.0800 
    134 H134       -3.7427  -16.6704  -50.8382 H         1 UNK         0.0800 
    135 H135       -3.8418  -18.1692  -49.9668 H         1 UNK         0.0800 
    136 H136       -1.3309  -15.3923  -50.4904 H         1 UNK         0.1150 
    137 H137        1.9156  -18.1118  -51.0818 H         1 UNK         0.1150 
    138 H138       -2.0024  -19.6114  -50.2115 H         1 UNK         0.1150 
    139 H139       -0.2645  -21.0277  -51.3963 H         1 UNK         0.0800 
    140 H140        1.3638  -20.4316  -51.5478 H         1 UNK         0.0800 
    141 H141       -1.2978  -21.9789  -49.4859 H         1 UNK         0.0800 
    142 H142       -1.0595  -20.9185  -48.1181 H         1 UNK         0.0800 
    143 H143       -0.0271  -23.7990  -48.2987 H         1 UNK         0.0600 
    144 H144        0.6349  -21.8132  -46.4023 H         1 UNK         0.3000 
    145 H145        1.2546  -23.9790  -43.6077 H         1 UNK         0.0600 
    146 H146        3.3948  -22.7151  -43.7262 H         1 UNK         0.0600 
    147 H147        3.3279  -23.9680  -44.9572 H         1 UNK         0.0600 
    148 H148        3.0728  -22.2881  -45.4045 H         1 UNK         0.0600 
    149 H149        1.3390  -21.1232  -43.9985 H         1 UNK         0.3000 
    150 H150       -1.9910  -20.5049  -42.8232 H         1 UNK         0.0600 
    151 H151       -0.5438  -20.7911  -40.7913 H         1 UNK         0.0600 
    152 H152       -0.7424  -19.1002  -41.2248 H         1 UNK         0.0600 
    153 H153        0.7629  -19.9348  -41.6035 H         1 UNK         0.0600 
    154 H154        0.0205  -18.6904  -43.6219 H         1 UNK         0.3000 
    155 H155       -0.6476  -18.7217  -47.1550 H         1 UNK         0.0600 
    156 H156       -1.0478  -16.6350  -44.9544 H         1 UNK         0.0600 
    157 H157       -2.3143  -17.2154  -46.0149 H         1 UNK         0.0600 
    158 H158       -0.9470  -16.3321  -46.6874 H         1 UNK         0.0600 
    159 H159        1.2274  -17.1816  -45.7931 H         1 UNK         0.3000 
    160 H160        3.9667  -19.4941  -45.6566 H         1 UNK         0.0600 
    161 H161        4.9253  -17.4973  -46.8225 H         1 UNK         0.0600 
    162 H162        3.3001  -16.9560  -47.2432 H         1 UNK         0.0600 
    163 H163        3.9231  -18.4605  -47.8985 H         1 UNK         0.0600 
    164 H164        3.4080  -16.7852  -44.7325 H         1 UNK         0.3000 
    165 H165        2.7535  -17.7116  -41.3594 H         1 UNK         0.0600 
    166 H166        4.6536  -16.1820  -40.9212 H         1 UNK         0.0600 
    167 H167        5.2479  -17.7309  -41.4973 H         1 UNK         0.0600 
    168 H168        5.2123  -16.3491  -42.5860 H         1 UNK         0.0600 
    169 H169        3.0269  -15.1789  -42.6724 H         1 UNK         0.3000 
    170 H170       -0.3616  -14.8475  -43.7148 H         1 UNK         0.0600 
    171 H171       -0.4108  -14.3277  -41.2708 H         1 UNK         0.0600 
    172 H172        1.1388  -13.5043  -41.4103 H         1 UNK         0.0600 
    173 H173       -0.2804  -12.8727  -42.2464 H         1 UNK         0.0600 
    174 H174        1.6005  -12.9060  -43.8414 H         1 UNK         0.3000 
    175 H175        3.5063  -12.9408  -45.6075 H         1 UNK         0.0600 
    176 H176        2.1654  -14.1368  -48.0888 H         1 UNK         0.0600 
    177 H177        3.5081  -12.9962  -48.1188 H         1 UNK         0.0600 
    178 H178        3.7295  -14.5912  -47.4199 H         1 UNK         0.0600 
    179 H179        1.1618  -12.0727  -47.1711 H         1 UNK         0.3000 
    180 H180        0.6302   -9.1828  -45.0872 H         1 UNK         0.0600 
    181 H181        1.2684   -9.7748  -48.0275 H         1 UNK         0.0600 
    182 H182        2.1931   -8.7178  -46.9685 H         1 UNK         0.0600 
    183 H183        0.5415   -8.2994  -47.3957 H         1 UNK         0.0600 
    184 H184       -0.8357  -10.6934  -47.1426 H         1 UNK         0.3000 
    185 H185       -3.3368  -11.8448  -44.9577 H         1 UNK         0.0600 
    186 H186       -4.0358   -9.4556  -45.0234 H         1 UNK         0.0600 
    187 H187       -3.5777   -9.3464  -46.7186 H         1 UNK         0.0600 
    188 H188       -4.9069  -10.3957  -46.2240 H         1 UNK         0.0600 
    189 H189       -3.0677  -11.4707  -47.8402 H         1 UNK         0.3000 
    190 H190       -2.1722  -22.0191  -46.0071 H         1 UNK         0.3000 
    191 H191       -4.5860  -23.3040  -46.6931 H         1 UNK         0.0600 
    192 H192       -3.7140  -22.0774  -44.0239 H         1 UNK         0.0600 
    193 H193       -5.3719  -22.4417  -44.4894 H         1 UNK         0.0600 
    194 H194       -4.4676  -21.2127  -45.3598 H         1 UNK         0.0600 
    195 H195       -2.1224  -24.2307  -44.2320 H         1 UNK         0.3000 
    196 H196       -3.5084  -26.4872  -43.2141 H         1 UNK         0.0600 
    197 H197       -1.2621  -27.1399  -42.3370 H         1 UNK         0.0600 
    198 H198       -1.5917  -25.4378  -42.0515 H         1 UNK         0.0600 
    199 H199       -0.5002  -25.9188  -43.3487 H         1 UNK         0.0600 
    200 H200       -1.3107  -26.1615  -46.0070 H         1 UNK         0.3000 
    201 H201       -1.1806  -28.9935  -46.5635 H         1 UNK         0.0600 
    202 H202        0.6692  -27.4774  -47.1521 H         1 UNK         0.0600 
    203 H203       -0.3738  -26.5526  -48.2277 H         1 UNK         0.0600 
    204 H204        0.0291  -28.2232  -48.6089 H         1 UNK         0.0600 
    205 H205       -2.8539  -26.2330  -48.1876 H         1 UNK         0.3000 
    206 H206       -4.0801  -28.1233  -50.1134 H         1 UNK         0.0600 
    207 H207       -2.6906  -26.2174  -50.9185 H         1 UNK         0.0600 
    208 H208       -4.3489  -26.0801  -51.4770 H         1 UNK         0.0600 
    209 H209       -3.7876  -25.0782  -50.1469 H         1 UNK         0.0600 
    210 H210       -5.1146  -26.5944  -47.2717 H         1 UNK         0.3000 
    211 H211       -7.0297  -26.3107  -46.2338 H         1 UNK         0.0600 
    212 H212       -8.5048  -27.6560  -48.5474 H         1 UNK         0.0600 
    213 H213       -9.1270  -27.3410  -46.9378 H         1 UNK         0.0600 
    214 H214       -7.8062  -28.4784  -47.1535 H         1 UNK         0.0600 
    215 H215       -7.5830  -25.5709  -49.6820 H         1 UNK         0.3000 
    216 H216       -9.1368  -23.1372  -49.1172 H         1 UNK         0.0600 
    217 H217       -9.2614  -23.0295  -51.6057 H         1 UNK         0.0600 
    218 H218       -9.7108  -24.6274  -51.0330 H         1 UNK         0.0600 
    219 H219       -8.1175  -24.3604  -51.7404 H         1 UNK         0.0600 
    220 H220       -5.8776  -23.8857  -49.2275 H         1 UNK         0.3000 
    221 H221       -3.9635  -22.8394  -49.1668 H         1 UNK         0.0600 
    222 H222       -5.3858  -20.1299  -49.1617 H         1 UNK         0.0600 
    223 H223       -5.0428  -21.0948  -47.7336 H         1 UNK         0.0600 
    224 H224       -3.7233  -20.4570  -48.6963 H         1 UNK         0.0600 
    225 H225       -5.9067  -20.8048  -51.3223 H         1 UNK         0.3000 
    226 H226       -5.7657  -20.0440  -53.3775 H         1 UNK         0.0600 
    227 H227       -5.5986  -22.4292  -54.1018 H         1 UNK         0.0600 
    228 H228       -4.7305  -21.3545  -55.1886 H         1 UNK         0.0600 
    229 H229       -3.8388  -22.3341  -54.0367 H         1 UNK         0.0600 
    230 H230       -4.8114  -18.2482  -54.1532 H         1 UNK         0.3000 
    231 H231       -2.4089  -17.2470  -52.9572 H         1 UNK         0.0600 
    232 H232       -4.3834  -15.8305  -53.3869 H         1 UNK         0.0600 
    233 H233       -4.2147  -16.0749  -55.1261 H         1 UNK         0.0600 
    234 H234       -2.9805  -15.1968  -54.2288 H         1 UNK         0.0600 
    235 H235       -1.2939  -19.2747  -53.9301 H         1 UNK         0.3000 
    236 H236       -0.3394  -19.3733  -56.5585 H         1 UNK         0.0600 
    237 H237        1.3471  -20.9500  -55.6041 H         1 UNK         0.0600 
    238 H238        0.9659  -20.3941  -53.9788 H         1 UNK         0.0600 
    239 H239       -0.2465  -21.2527  -54.9276 H         1 UNK         0.0600 
    240 H240        0.7154  -17.2418  -54.0030 H         1 UNK         0.3000 
    241 H241        3.2482  -16.5377  -55.2313 H         1 UNK         0.0600 
    242 H242        0.4823  -14.3025  -57.1067 H         1 UNK         0.3800 
    243 H243        0.0221  -15.7289  -56.2126 H         1 UNK         0.3800 
    244 H244        3.0215  -16.3579  -52.8187 H         1 UNK         0.0800 
    245 H245        3.4480  -14.8298  -53.5220 H         1 UNK         0.0800 
    246 H246        1.0409  -14.6557  -50.2236 H         1 UNK         0.0800 
    247 H247        2.3535  -15.7004  -50.6807 H         1 UNK         0.0800 
@<TRIPOS>BOND
     1    1    2 1    
     2    1  127 1    
     3    1  128 1    
     4    1  129 1    
     5    2    3 2    
     6    2    4 am   BACKBONE|DICT|INTERRES
     7    4    5 1    
     8    4  130 1    
     9    5    6 1    
    10    5   65 1    
    11    5  131 1    
    12    6    7 1    
    13    6  132 1    
    14    6  133 1    
    15    7    8 1    
    16    8    9 1    
    17    8  134 1    
    18    8  135 1    
    19    9   10 ar   
    20    9   14 ar   
    21   10   11 ar   
    22   10  136 1    
    23   11   12 ar   
    24   11  126 1    
    25   12   13 ar   
    26   12  137 1    
    27   13   14 ar   
    28   13   15 1    
    29   14  138 1    
    30   15   16 1    
    31   15  139 1    
    32   15  140 1    
    33   16   17 1    
    34   17   18 1    
    35   17  141 1    
    36   17  142 1    
    37   18   19 1    
    38   18   67 1    
    39   18  143 1    
    40   19   20 am   BACKBONE|DICT|INTERRES
    41   19  144 1    
    42   20   21 2    
    43   20   22 1    
    44   22   23 1    
    45   22   24 1    
    46   22  145 1    
    47   23  146 1    
    48   23  147 1    
    49   23  148 1    
    50   24   25 am   BACKBONE|DICT|INTERRES
    51   24  149 1    
    52   25   26 2    
    53   25   27 1    
    54   27   28 1    
    55   27   29 1    
    56   27  150 1    
    57   28  151 1    
    58   28  152 1    
    59   28  153 1    
    60   29   30 am   BACKBONE|DICT|INTERRES
    61   29  154 1    
    62   30   31 2    
    63   30   32 1    
    64   32   33 1    
    65   32   34 1    
    66   32  155 1    
    67   33  156 1    
    68   33  157 1    
    69   33  158 1    
    70   34   35 am   BACKBONE|DICT|INTERRES
    71   34  159 1    
    72   35   36 2    
    73   35   37 1    
    74   37   38 1    
    75   37   39 1    
    76   37  160 1    
    77   38  161 1    
    78   38  162 1    
    79   38  163 1    
    80   39   40 am   BACKBONE|DICT|INTERRES
    81   39  164 1    
    82   40   41 2    
    83   40   42 1    
    84   42   43 1    
    85   42   44 1    
    86   42  165 1    
    87   43  166 1    
    88   43  167 1    
    89   43  168 1    
    90   44   45 am   BACKBONE|DICT|INTERRES
    91   44  169 1    
    92   45   46 2    
    93   45   47 1    
    94   47   48 1    
    95   47   49 1    
    96   47  170 1    
    97   48  171 1    
    98   48  172 1    
    99   48  173 1    
   100   49   50 am   BACKBONE|DICT|INTERRES
   101   49  174 1    
   102   50   51 2    
   103   50   52 1    
   104   52   53 1    
   105   52   54 1    
   106   52  175 1    
   107   53  176 1    
   108   53  177 1    
   109   53  178 1    
   110   54   55 am   BACKBONE|DICT|INTERRES
   111   54  179 1    
   112   55   56 2    
   113   55   57 1    
   114   57   58 1    
   115   57   59 1    
   116   57  180 1    
   117   58  181 1    
   118   58  182 1    
   119   58  183 1    
   120   59   60 am   BACKBONE|DICT|INTERRES
   121   59  184 1    
   122   60   61 2    
   123   60   62 1    
   124   62   63 1    
   125   62   64 1    
   126   62  185 1    
   127   63  186 1    
   128   63  187 1    
   129   63  188 1    
   130   64   65 am   BACKBONE|DICT|INTERRES
   131   64  189 1    
   132   65   66 2    
   133   67   68 2    
   134   67   69 am   BACKBONE|DICT|INTERRES
   135   69   70 1    
   136   69  190 1    
   137   70   71 1    
   138   70   72 1    
   139   70  191 1    
   140   71  192 1    
   141   71  193 1    
   142   71  194 1    
   143   72   73 2    
   144   72   74 am   BACKBONE|DICT|INTERRES
   145   74   75 1    
   146   74  195 1    
   147   75   76 1    
   148   75   77 1    
   149   75  196 1    
   150   76  197 1    
   151   76  198 1    
   152   76  199 1    
   153   77   78 2    
   154   77   79 am   BACKBONE|DICT|INTERRES
   155   79   80 1    
   156   79  200 1    
   157   80   81 1    
   158   80   82 1    
   159   80  201 1    
   160   81  202 1    
   161   81  203 1    
   162   81  204 1    
   163   82   83 2    
   164   82   84 am   BACKBONE|DICT|INTERRES
   165   84   85 1    
   166   84  205 1    
   167   85   86 1    
   168   85   87 1    
   169   85  206 1    
   170   86  207 1    
   171   86  208 1    
   172   86  209 1    
   173   87   88 2    
   174   87   89 am   BACKBONE|DICT|INTERRES
   175   89   90 1    
   176   89  210 1    
   177   90   91 1    
   178   90   92 1    
   179   90  211 1    
   180   91  212 1    
   181   91  213 1    
   182   91  214 1    
   183   92   93 2    
   184   92   94 am   BACKBONE|DICT|INTERRES
   185   94   95 1    
   186   94  215 1    
   187   95   96 1    
   188   95   97 1    
   189   95  216 1    
   190   96  217 1    
   191   96  218 1    
   192   96  219 1    
   193   97   98 2    
   194   97   99 am   BACKBONE|DICT|INTERRES
   195   99  100 1    
   196   99  220 1    
   197  100  101 1    
   198  100  102 1    
   199  100  221 1    
   200  101  222 1    
   201  101  223 1    
   202  101  224 1    
   203  102  103 2    
   204  102  104 am   BACKBONE|DICT|INTERRES
   205  104  105 1    
   206  104  225 1    
   207  105  106 1    
   208  105  107 1    
   209  105  226 1    
   210  106  227 1    
   211  106  228 1    
   212  106  229 1    
   213  107  108 2    
   214  107  109 am   BACKBONE|DICT|INTERRES
   215  109  110 1    
   216  109  230 1    
   217  110  111 1    
   218  110  112 1    
   219  110  231 1    
   220  111  232 1    
   221  111  233 1    
   222  111  234 1    
   223  112  113 2    
   224  112  114 am   BACKBONE|DICT|INTERRES
   225  114  115 1    
   226  114  235 1    
   227  115  116 1    
   228  115  117 1    
   229  115  236 1    
   230  116  237 1    
   231  116  238 1    
   232  116  239 1    
   233  117  118 2    
   234  117  119 am   BACKBONE|DICT|INTERRES
   235  119  120 1    
   236  119  240 1    
   237  120  121 1    
   238  120  124 1    
   239  120  241 1    
   240  121  122 am   BACKBONE|DICT|INTERRES
   241  121  123 2    
   242  122  242 1    
   243  122  243 1    
   244  124  125 1    
   245  124  244 1    
   246  124  245 1    
   247  125  126 1    
   248  126  246 1    
   249  126  247 1    
@<TRIPOS>SUBSTRUCTURE
     1 UNK         1 GROUP             0       ****    0 ROOT    
