@<TRIPOS>MOLECULE
3R540
247   249    1
SMALL
USER_CHARGES


@<TRIPOS>ATOM
      1 CA          2.2802   -9.8896  -45.6202 C.3       0 UNK        -0.1800 
      2 C           3.1141  -11.1093  -45.9838 C.2       0 UNK         0.5000 
      3 O           4.3301  -11.0025  -46.1431 O.2       0 UNK        -0.5000 
      4 N           2.4729  -12.2770  -46.0896 N.am      1 UNK        -0.5000 
      5 CA          3.0723  -13.5833  -46.3873 C.3       1 UNK         0.1400 
      6 C6          2.0943  -14.4946  -47.1786 C.3       23 UNK        -0.0398 
      7 S7          0.4107  -14.5884  -46.4634 S.3       23 UNK        -0.2404 
      8 C8         -0.5534  -13.5674  -47.6184 C.3       23 UNK        -0.0205 
      9 C9         -1.3698  -14.4092  -48.5885 C.ar      23 UNK        -0.0193 
     10 C10        -2.7544  -14.5211  -48.4181 C.ar      23 UNK        -0.1150 
     11 C11        -3.5375  -15.2180  -49.3423 C.ar      23 UNK        -0.0193 
     12 C12        -2.9142  -15.7767  -50.4576 C.ar      23 UNK        -0.1150 
     13 C13        -1.5300  -15.7327  -50.6156 C.ar      23 UNK        -0.0193 
     14 C14        -0.7577  -15.0400  -49.6780 C.ar      23 UNK        -0.1150 
     15 C15        -0.8949  -16.4090  -51.8228 C.3       23 UNK        -0.0205 
     16 S16        -0.3935  -18.1327  -51.4933 S.3       23 UNK        -0.2404 
     17 C17        -1.9733  -18.9989  -51.1506 C.3       23 UNK        -0.0398 
     18 CA         -1.9356  -19.7930  -49.8231 C.3       11 UNK         0.1400 
     19 N          -1.4485  -19.0000  -48.6908 N.am      11 UNK        -0.5000 
     20 C          -0.8573  -19.5400  -47.6193 C.2       10 UNK         0.5000 
     21 O          -0.7289  -20.7510  -47.4499 O.2       10 UNK        -0.5000 
     22 CA         -0.3633  -18.5674  -46.5403 C.3       10 UNK         0.1400 
     23 CB          0.9696  -17.9484  -46.9764 C.3       10 UNK        -0.1800 
     24 N          -1.3257  -17.5120  -46.2061 N.am      10 UNK        -0.5000 
     25 C          -2.5664  -17.7349  -45.7481 C.2       9 UNK         0.5000 
     26 O          -3.0631  -18.8610  -45.6814 O.2       9 UNK        -0.5000 
     27 CA         -3.3808  -16.5141  -45.2800 C.3       9 UNK         0.1400 
     28 CB         -4.5290  -16.8960  -44.3214 C.3       9 UNK        -0.1800 
     29 N          -2.5314  -15.4962  -44.6558 N.am      9 UNK        -0.5000 
     30 C          -2.8633  -14.1993  -44.5552 C.2       8 UNK         0.5000 
     31 O          -3.8924  -13.7319  -45.0453 O.2       8 UNK        -0.5000 
     32 CA         -1.9177  -13.2604  -43.7783 C.3       8 UNK         0.1400 
     33 CB         -2.6863  -12.2473  -42.9105 C.3       8 UNK        -0.1800 
     34 N          -0.9910  -14.0037  -42.9281 N.am      8 UNK        -0.5000 
     35 C           0.3271  -13.7906  -42.8544 C.2       7 UNK         0.5000 
     36 O           0.8979  -12.8668  -43.4355 O.2       7 UNK        -0.5000 
     37 CA          1.1601  -14.7564  -41.9836 C.3       7 UNK         0.1400 
     38 CB          1.7651  -14.0141  -40.7810 C.3       7 UNK        -0.1800 
     39 N           0.4680  -15.9524  -41.4879 N.am      7 UNK        -0.5000 
     40 C          -0.0650  -16.9262  -42.2358 C.2       6 UNK         0.5000 
     41 O          -0.1861  -16.8568  -43.4578 O.2       6 UNK        -0.5000 
     42 CA         -0.4958  -18.1999  -41.4838 C.3       6 UNK         0.1400 
     43 CB         -1.3465  -19.1410  -42.3548 C.3       6 UNK        -0.1800 
     44 N           0.6959  -18.9198  -41.0450 N.am      6 UNK        -0.5000 
     45 C           1.4221  -18.6337  -39.9558 C.2       5 UNK         0.5000 
     46 O           1.0756  -17.8227  -39.0959 O.2       5 UNK        -0.5000 
     47 CA          2.7962  -19.3257  -39.8546 C.3       5 UNK         0.1400 
     48 CB          2.6698  -20.6877  -39.1557 C.3       5 UNK        -0.1800 
     49 N           3.4201  -19.5076  -41.1706 N.am      5 UNK        -0.5000 
     50 C           3.8347  -18.4995  -41.9511 C.2       4 UNK         0.5000 
     51 O           3.8271  -17.3165  -41.6020 O.2       4 UNK        -0.5000 
     52 CA          4.2580  -18.8800  -43.3790 C.3       4 UNK         0.1400 
     53 CB          3.0136  -18.9930  -44.2727 C.3       4 UNK        -0.1800 
     54 N           5.1382  -17.8564  -43.9344 N.am      4 UNK        -0.5000 
     55 C           6.4763  -17.8783  -43.8592 C.2       3 UNK         0.5000 
     56 O           7.1211  -18.8330  -43.4229 O.2       3 UNK        -0.5000 
     57 CA          7.2263  -16.6165  -44.3366 C.3       3 UNK         0.1400 
     58 CB          7.6450  -16.7612  -45.8076 C.3       3 UNK        -0.1800 
     59 N           6.4286  -15.3994  -44.1865 N.am      3 UNK        -0.5000 
     60 C           6.0643  -14.8667  -43.0125 C.2       2 UNK         0.5000 
     61 O           6.5284  -15.2346  -41.9325 O.2       2 UNK        -0.5000 
     62 CA          4.9991  -13.7502  -43.0339 C.3       2 UNK         0.1400 
     63 CB          5.5491  -12.4486  -42.4290 C.3       2 UNK        -0.1800 
     64 N           4.4260  -13.4416  -44.3483 N.am      2 UNK        -0.5000 
     65 C           3.6602  -14.2351  -45.1107 C.2       1 UNK         0.5000 
     66 O           3.4401  -15.4173  -44.8429 O.2       1 UNK        -0.5000 
     67 C          -3.2829  -20.4836  -49.5143 C.2       11 UNK         0.5000 
     68 O          -3.6373  -21.4287  -50.2145 O.2       11 UNK        -0.5000 
     69 N          -3.9917  -20.0459  -48.4609 N.am      12 UNK        -0.5000 
     70 CA         -5.1579  -20.7461  -47.9191 C.3       12 UNK         0.1400 
     71 CB         -6.0676  -19.7715  -47.1587 C.3       12 UNK        -0.1800 
     72 C          -4.7371  -21.9182  -47.0181 C.2       12 UNK         0.5000 
     73 O          -5.3616  -22.9769  -47.0720 O.2       12 UNK        -0.5000 
     74 N          -3.6678  -21.7314  -46.2315 N.am      13 UNK        -0.5000 
     75 CA         -3.0489  -22.7874  -45.4284 C.3       13 UNK         0.1400 
     76 CB         -2.0390  -22.1647  -44.4529 C.3       13 UNK        -0.1800 
     77 C          -2.3871  -23.8687  -46.3054 C.2       13 UNK         0.5000 
     78 O          -2.5283  -25.0584  -46.0226 O.2       13 UNK        -0.5000 
     79 N          -1.7176  -23.4334  -47.3798 N.am      14 UNK        -0.5000 
     80 CA         -1.0479  -24.2756  -48.3703 C.3       14 UNK         0.1400 
     81 CB          0.2252  -23.5559  -48.8490 C.3       14 UNK        -0.1800 
     82 C          -1.9544  -24.6558  -49.5599 C.2       14 UNK         0.5000 
     83 O          -1.4308  -25.0363  -50.6080 O.2       14 UNK        -0.5000 
     84 N          -3.2853  -24.5742  -49.4048 N.am      15 UNK        -0.5000 
     85 CA         -4.2846  -24.8164  -50.4586 C.3       15 UNK         0.1400 
     86 CB         -5.6820  -24.4584  -49.9334 C.3       15 UNK        -0.1800 
     87 C          -4.2828  -26.2362  -51.0666 C.2       15 UNK         0.5000 
     88 O          -4.8765  -26.4436  -52.1249 O.2       15 UNK        -0.5000 
     89 N          -3.6053  -27.1879  -50.4105 N.am      16 UNK        -0.5000 
     90 CA         -3.3136  -28.5180  -50.9466 C.3       16 UNK         0.1400 
     91 CB         -2.7702  -29.4025  -49.8141 C.3       16 UNK        -0.1800 
     92 C          -2.3218  -28.4863  -52.1300 C.2       16 UNK         0.5000 
     93 O          -2.3671  -29.3824  -52.9739 O.2       16 UNK        -0.5000 
     94 N          -1.4538  -27.4657  -52.1711 N.am      17 UNK        -0.5000 
     95 CA         -0.4778  -27.2282  -53.2332 C.3       17 UNK         0.1400 
     96 CB          0.9092  -27.0223  -52.6031 C.3       17 UNK        -0.1800 
     97 C          -0.8705  -26.0067  -54.0807 C.2       17 UNK         0.5000 
     98 O          -0.7678  -26.0628  -55.3069 O.2       17 UNK        -0.5000 
     99 N          -1.3123  -24.9264  -53.4223 N.am      18 UNK        -0.5000 
    100 CA        -1.7698  -23.6903  -54.0502 C.3       18 UNK         0.1400 
    101 CB        -1.7189  -22.5504  -53.0193 C.3       18 UNK        -0.1800 
    102 C         -3.1825  -23.8738  -54.6301 C.2       18 UNK         0.5000 
    103 O         -4.1647  -23.8180  -53.8874 O.2       18 UNK        -0.5000 
    104 N         -3.2563  -24.1168  -55.9451 N.am      19 UNK        -0.5000 
    105 CA        -4.4968  -24.2999  -56.6990 C.3       19 UNK         0.1400 
    106 CB        -4.1583  -24.6004  -58.1672 C.3       19 UNK        -0.1800 
    107 C         -5.4241  -23.0748  -56.5879 C.2       19 UNK         0.5000 
    108 O         -4.9797  -21.9518  -56.8351 O.2       19 UNK        -0.5000 
    109 N         -6.6807  -23.3275  -56.1971 N.am      20 UNK        -0.5000 
    110 CA        -7.7333  -22.3471  -55.9017 C.3       20 UNK         0.1400 
    111 CB        -8.0982  -21.5195  -57.1528 C.3       20 UNK        -0.1800 
    112 C         -7.4416  -21.4659  -54.6651 C.2       20 UNK         0.5000 
    113 O         -8.0281  -20.3885  -54.5380 O.2       20 UNK        -0.5000 
    114 N         -6.5694  -21.9430  -53.7617 N.am      21 UNK        -0.5000 
    115 CA        -6.1556  -21.3024  -52.5107 C.3       21 UNK         0.1400 
    116 CB        -7.3236  -21.3023  -51.4972 C.3       21 UNK        -0.1800 
    117 C         -5.5360  -19.9122  -52.7674 C.2       21 UNK         0.5000 
    118 O         -4.5082  -19.8295  -53.4415 O.2       21 UNK        -0.5000 
    119 N         -6.1727  -18.8504  -52.2562 N.am      22 UNK        -0.5000 
    120 CA        -5.8093  -17.4505  -52.5274 C.3       22 UNK         0.1400 
    121 C         -6.2243  -16.9379  -53.9403 C.2       22 UNK         0.5000 
    122 N         -6.9875  -17.6775  -54.7364 N.am      22 UNK        -0.7600 
    123 O         -5.8368  -15.8391  -54.3278 O.2       22 UNK        -0.5000 
    124 C124       -6.3228  -16.4827  -51.4244 C.3       23 UNK        -0.0398 
    125 S125       -5.7769  -16.9054  -49.7289 S.3       23 UNK        -0.2404 
    126 C126       -5.0473  -15.3324  -49.1336 C.3       23 UNK        -0.0205 
    127 H127        1.2328  -10.1493  -45.4631 H         1 UNK         0.0600 
    128 H128        2.3328   -9.1473  -46.4165 H         1 UNK         0.0600 
    129 H129        2.6581   -9.4371  -44.7033 H         1 UNK         0.0600 
    130 H130        1.4940  -12.3215  -45.8396 H         1 UNK         0.3000 
    131 H131        3.9302  -13.4192  -47.0427 H         1 UNK         0.0600 
    132 H132        2.0235  -14.1298  -48.2033 H         1 UNK         0.0800 
    133 H133        2.4982  -15.5028  -47.2738 H         1 UNK         0.0800 
    134 H134        0.0962  -12.8892  -48.1730 H         1 UNK         0.0800 
    135 H135       -1.2149  -12.9249  -47.0361 H         1 UNK         0.0800 
    136 H136       -3.2300  -14.0435  -47.5739 H         1 UNK         0.1150 
    137 H137       -3.5090  -16.2601  -51.2099 H         1 UNK         0.1150 
    138 H138        0.3129  -14.9730  -49.8083 H         1 UNK         0.1150 
    139 H139       -1.5802  -16.3916  -52.6719 H         1 UNK         0.0800 
    140 H140       -0.0155  -15.8440  -52.1352 H         1 UNK         0.0800 
    141 H141       -2.1584  -19.6806  -51.9815 H         1 UNK         0.0800 
    142 H142       -2.8106  -18.3083  -51.1576 H         1 UNK         0.0800 
    143 H143       -1.2210  -20.6035  -49.9824 H         1 UNK         0.0600 
    144 H144       -1.5130  -17.9949  -48.7702 H         1 UNK         0.3000 
    145 H145       -0.1856  -19.1451  -45.6312 H         1 UNK         0.0600 
    146 H146        0.8508  -17.3187  -47.8590 H         1 UNK         0.0600 
    147 H147        1.3943  -17.3405  -46.1792 H         1 UNK         0.0600 
    148 H148        1.7008  -18.7199  -47.2201 H         1 UNK         0.0600 
    149 H149       -0.9742  -16.5638  -46.2295 H         1 UNK         0.3000 
    150 H150       -3.8231  -16.0959  -46.1853 H         1 UNK         0.0600 
    151 H151       -5.2018  -17.6232  -44.7742 H         1 UNK         0.0600 
    152 H152       -5.1358  -16.0297  -44.0587 H         1 UNK         0.0600 
    153 H153       -4.1494  -17.3290  -43.3962 H         1 UNK         0.0600 
    154 H154       -1.6459  -15.8277  -44.2794 H         1 UNK         0.3000 
    155 H155       -1.3640  -12.7046  -44.5372 H         1 UNK         0.0600 
    156 H156       -3.2987  -12.7475  -42.1595 H         1 UNK         0.0600 
    157 H157       -2.0019  -11.5755  -42.3921 H         1 UNK         0.0600 
    158 H158       -3.3472  -11.6269  -43.5169 H         1 UNK         0.0600 
    159 H159       -1.3776  -14.7799  -42.4117 H         1 UNK         0.3000 
    160 H160        1.9794  -15.1080  -42.6120 H         1 UNK         0.0600 
    161 H161        2.3095  -13.1232  -41.0972 H         1 UNK         0.0600 
    162 H162        2.4703  -14.6484  -40.2430 H         1 UNK         0.0600 
    163 H163        0.9940  -13.6946  -40.0791 H         1 UNK         0.0600 
    164 H164        0.5492  -16.1265  -40.4939 H         1 UNK         0.3000 
    165 H165       -1.0921  -17.9041  -40.6181 H         1 UNK         0.0600 
    166 H166       -1.6592  -20.0209  -41.7928 H         1 UNK         0.0600 
    167 H167       -2.2502  -18.6416  -42.7034 H         1 UNK         0.0600 
    168 H168       -0.8018  -19.4832  -43.2355 H         1 UNK         0.0600 
    169 H169        1.0803  -19.5790  -41.7044 H         1 UNK         0.3000 
    170 H170        3.4474  -18.6890  -39.2519 H         1 UNK         0.0600 
    171 H171        2.2259  -20.5774  -38.1654 H         1 UNK         0.0600 
    172 H172        2.0415  -21.3764  -39.7221 H         1 UNK         0.0600 
    173 H173        3.6458  -21.1547  -39.0226 H         1 UNK         0.0600 
    174 H174        3.4679  -20.4539  -41.5201 H         1 UNK         0.3000 
    175 H175        4.7674  -19.8457  -43.3598 H         1 UNK         0.0600 
    176 H176        2.4267  -18.0736  -44.2504 H         1 UNK         0.0600 
    177 H177        3.2881  -19.1941  -45.3081 H         1 UNK         0.0600 
    178 H178        2.3623  -19.8040  -43.9456 H         1 UNK         0.0600 
    179 H179        4.6787  -17.0057  -44.2422 H         1 UNK         0.3000 
    180 H180        8.1283  -16.5137  -43.7297 H         1 UNK         0.0600 
    181 H181        6.7796  -16.8542  -46.4652 H         1 UNK         0.0600 
    182 H182        8.2635  -17.6481  -45.9514 H         1 UNK         0.0600 
    183 H183        8.2287  -15.9020  -46.1385 H         1 UNK         0.0600 
    184 H184        6.0017  -15.0300  -45.0224 H         1 UNK         0.3000 
    185 H185        4.1848  -14.0997  -42.3986 H         1 UNK         0.0600 
    186 H186        4.7693  -11.6907  -42.3505 H         1 UNK         0.0600 
    187 H187        5.9392  -12.6135  -41.4238 H         1 UNK         0.0600 
    188 H188        6.3587  -12.0375  -43.0333 H         1 UNK         0.0600 
    189 H189        4.5757  -12.4979  -44.6866 H         1 UNK         0.3000 
    190 H190       -3.6195  -19.2895  -47.9039 H         1 UNK         0.3000 
    191 H191       -5.7372  -21.1610  -48.7435 H         1 UNK         0.0600 
    192 H192       -5.5548  -19.3115  -46.3165 H         1 UNK         0.0600 
    193 H193       -6.9433  -20.2875  -46.7635 H         1 UNK         0.0600 
    194 H194       -6.4302  -18.9774  -47.8088 H         1 UNK         0.0600 
    195 H195       -3.2433  -20.8106  -46.1884 H         1 UNK         0.3000 
    196 H196       -3.8325  -23.2693  -44.8400 H         1 UNK         0.0600 
    197 H197       -1.5811  -22.9286  -43.8235 H         1 UNK         0.0600 
    198 H198       -2.5278  -21.4483  -43.7929 H         1 UNK         0.0600 
    199 H199       -1.2362  -21.6436  -44.9744 H         1 UNK         0.0600 
    200 H200       -1.5965  -22.4301  -47.4954 H         1 UNK         0.3000 
    201 H201       -0.7399  -25.2100  -47.8972 H         1 UNK         0.0600 
    202 H202        0.8579  -23.2710  -48.0082 H         1 UNK         0.0600 
    203 H203       -0.0124  -22.6516  -49.4097 H         1 UNK         0.0600 
    204 H204        0.8220  -24.1973  -49.4987 H         1 UNK         0.0600 
    205 H205       -3.6436  -24.2548  -48.5159 H         1 UNK         0.3000 
    206 H206       -4.0570  -24.1314  -51.2754 H         1 UNK         0.0600 
    207 H207       -5.7462  -23.3979  -49.6951 H         1 UNK         0.0600 
    208 H208       -6.4501  -24.6610  -50.6810 H         1 UNK         0.0600 
    209 H209       -5.9338  -25.0260  -49.0370 H         1 UNK         0.0600 
    210 H210       -3.1657  -26.9410  -49.5364 H         1 UNK         0.3000 
    211 H211       -4.2471  -28.9557  -51.3065 H         1 UNK         0.0600 
    212 H212       -1.8409  -29.0053  -49.4035 H         1 UNK         0.0600 
    213 H213       -2.5657  -30.4126  -50.1717 H         1 UNK         0.0600 
    214 H214       -3.4894  -29.4870  -48.9992 H         1 UNK         0.0600 
    215 H215       -1.5107  -26.7487  -51.4545 H         1 UNK         0.3000 
    216 H216       -0.4193  -28.0900  -53.9011 H         1 UNK         0.0600 
    217 H217        1.6625  -26.8343  -53.3692 H         1 UNK         0.0600 
    218 H218        1.2227  -27.9068  -52.0485 H         1 UNK         0.0600 
    219 H219        0.9201  -26.1758  -51.9151 H         1 UNK         0.0600 
    220 H220       -1.3676  -24.9572  -52.4071 H         1 UNK         0.3000 
    221 H221       -1.0866  -23.4306  -54.8617 H         1 UNK         0.0600 
    222 H222       -2.3379  -22.7629  -52.1484 H         1 UNK         0.0600 
    223 H223       -0.7013  -22.3780  -52.6687 H         1 UNK         0.0600 
    224 H224       -2.0788  -21.6181  -53.4559 H         1 UNK         0.0600 
    225 H225       -2.3982  -24.1742  -56.4744 H         1 UNK         0.3000 
    226 H226       -5.0058  -25.1711  -56.2812 H         1 UNK         0.0600 
    227 H227       -3.5503  -25.5010  -58.2564 H         1 UNK         0.0600 
    228 H228       -5.0653  -24.7618  -58.7512 H         1 UNK         0.0600 
    229 H229       -3.6116  -23.7780  -58.6305 H         1 UNK         0.0600 
    230 H230       -6.9336  -24.2890  -56.0136 H         1 UNK         0.3000 
    231 H231       -8.6146  -22.9333  -55.6378 H         1 UNK         0.0600 
    232 H232       -8.9990  -20.9292  -56.9812 H         1 UNK         0.0600 
    233 H233       -8.2936  -22.1637  -58.0100 H         1 UNK         0.0600 
    234 H234       -7.3042  -20.8247  -57.4273 H         1 UNK         0.0600 
    235 H235       -6.0646  -22.7932  -53.9852 H         1 UNK         0.3000 
    236 H236       -5.3589  -21.9234  -52.1006 H         1 UNK         0.0600 
    237 H237       -7.0309  -20.8415  -50.5550 H         1 UNK         0.0600 
    238 H238       -7.6392  -22.3207  -51.2710 H         1 UNK         0.0600 
    239 H239       -8.1962  -20.7643  -51.8683 H         1 UNK         0.0600 
    240 H240       -7.0192  -18.9970  -51.7271 H         1 UNK         0.3000 
    241 H241       -4.7215  -17.4057  -52.5309 H         1 UNK         0.0600 
    242 H242       -7.3124  -18.6007  -54.4627 H         1 UNK         0.3800 
    243 H243       -7.2369  -17.3195  -55.6443 H         1 UNK         0.3800 
    244 H244       -6.0044  -15.4635  -51.6490 H         1 UNK         0.0800 
    245 H245       -7.4137  -16.4602  -51.4258 H         1 UNK         0.0800 
    246 H246       -5.5427  -14.4815  -49.6020 H         1 UNK         0.0800 
    247 H247       -5.2680  -15.2576  -48.0678 H         1 UNK         0.0800 
@<TRIPOS>BOND
     1    1    2 1    
     2    1  127 1    
     3    1  128 1    
     4    1  129 1    
     5    2    3 2    
     6    2    4 am   BACKBONE|DICT|INTERRES
     7    4    5 1    
     8    4  130 1    
     9    5    6 1    
    10    5   65 1    
    11    5  131 1    
    12    6    7 1    
    13    6  132 1    
    14    6  133 1    
    15    7    8 1    
    16    8    9 1    
    17    8  134 1    
    18    8  135 1    
    19    9   10 ar   
    20    9   14 ar   
    21   10   11 ar   
    22   10  136 1    
    23   11   12 ar   
    24   11  126 1    
    25   12   13 ar   
    26   12  137 1    
    27   13   14 ar   
    28   13   15 1    
    29   14  138 1    
    30   15   16 1    
    31   15  139 1    
    32   15  140 1    
    33   16   17 1    
    34   17   18 1    
    35   17  141 1    
    36   17  142 1    
    37   18   19 1    
    38   18   67 1    
    39   18  143 1    
    40   19   20 am   BACKBONE|DICT|INTERRES
    41   19  144 1    
    42   20   21 2    
    43   20   22 1    
    44   22   23 1    
    45   22   24 1    
    46   22  145 1    
    47   23  146 1    
    48   23  147 1    
    49   23  148 1    
    50   24   25 am   BACKBONE|DICT|INTERRES
    51   24  149 1    
    52   25   26 2    
    53   25   27 1    
    54   27   28 1    
    55   27   29 1    
    56   27  150 1    
    57   28  151 1    
    58   28  152 1    
    59   28  153 1    
    60   29   30 am   BACKBONE|DICT|INTERRES
    61   29  154 1    
    62   30   31 2    
    63   30   32 1    
    64   32   33 1    
    65   32   34 1    
    66   32  155 1    
    67   33  156 1    
    68   33  157 1    
    69   33  158 1    
    70   34   35 am   BACKBONE|DICT|INTERRES
    71   34  159 1    
    72   35   36 2    
    73   35   37 1    
    74   37   38 1    
    75   37   39 1    
    76   37  160 1    
    77   38  161 1    
    78   38  162 1    
    79   38  163 1    
    80   39   40 am   BACKBONE|DICT|INTERRES
    81   39  164 1    
    82   40   41 2    
    83   40   42 1    
    84   42   43 1    
    85   42   44 1    
    86   42  165 1    
    87   43  166 1    
    88   43  167 1    
    89   43  168 1    
    90   44   45 am   BACKBONE|DICT|INTERRES
    91   44  169 1    
    92   45   46 2    
    93   45   47 1    
    94   47   48 1    
    95   47   49 1    
    96   47  170 1    
    97   48  171 1    
    98   48  172 1    
    99   48  173 1    
   100   49   50 am   BACKBONE|DICT|INTERRES
   101   49  174 1    
   102   50   51 2    
   103   50   52 1    
   104   52   53 1    
   105   52   54 1    
   106   52  175 1    
   107   53  176 1    
   108   53  177 1    
   109   53  178 1    
   110   54   55 am   BACKBONE|DICT|INTERRES
   111   54  179 1    
   112   55   56 2    
   113   55   57 1    
   114   57   58 1    
   115   57   59 1    
   116   57  180 1    
   117   58  181 1    
   118   58  182 1    
   119   58  183 1    
   120   59   60 am   BACKBONE|DICT|INTERRES
   121   59  184 1    
   122   60   61 2    
   123   60   62 1    
   124   62   63 1    
   125   62   64 1    
   126   62  185 1    
   127   63  186 1    
   128   63  187 1    
   129   63  188 1    
   130   64   65 am   BACKBONE|DICT|INTERRES
   131   64  189 1    
   132   65   66 2    
   133   67   68 2    
   134   67   69 am   BACKBONE|DICT|INTERRES
   135   69   70 1    
   136   69  190 1    
   137   70   71 1    
   138   70   72 1    
   139   70  191 1    
   140   71  192 1    
   141   71  193 1    
   142   71  194 1    
   143   72   73 2    
   144   72   74 am   BACKBONE|DICT|INTERRES
   145   74   75 1    
   146   74  195 1    
   147   75   76 1    
   148   75   77 1    
   149   75  196 1    
   150   76  197 1    
   151   76  198 1    
   152   76  199 1    
   153   77   78 2    
   154   77   79 am   BACKBONE|DICT|INTERRES
   155   79   80 1    
   156   79  200 1    
   157   80   81 1    
   158   80   82 1    
   159   80  201 1    
   160   81  202 1    
   161   81  203 1    
   162   81  204 1    
   163   82   83 2    
   164   82   84 am   BACKBONE|DICT|INTERRES
   165   84   85 1    
   166   84  205 1    
   167   85   86 1    
   168   85   87 1    
   169   85  206 1    
   170   86  207 1    
   171   86  208 1    
   172   86  209 1    
   173   87   88 2    
   174   87   89 am   BACKBONE|DICT|INTERRES
   175   89   90 1    
   176   89  210 1    
   177   90   91 1    
   178   90   92 1    
   179   90  211 1    
   180   91  212 1    
   181   91  213 1    
   182   91  214 1    
   183   92   93 2    
   184   92   94 am   BACKBONE|DICT|INTERRES
   185   94   95 1    
   186   94  215 1    
   187   95   96 1    
   188   95   97 1    
   189   95  216 1    
   190   96  217 1    
   191   96  218 1    
   192   96  219 1    
   193   97   98 2    
   194   97   99 am   BACKBONE|DICT|INTERRES
   195   99  100 1    
   196   99  220 1    
   197  100  101 1    
   198  100  102 1    
   199  100  221 1    
   200  101  222 1    
   201  101  223 1    
   202  101  224 1    
   203  102  103 2    
   204  102  104 am   BACKBONE|DICT|INTERRES
   205  104  105 1    
   206  104  225 1    
   207  105  106 1    
   208  105  107 1    
   209  105  226 1    
   210  106  227 1    
   211  106  228 1    
   212  106  229 1    
   213  107  108 2    
   214  107  109 am   BACKBONE|DICT|INTERRES
   215  109  110 1    
   216  109  230 1    
   217  110  111 1    
   218  110  112 1    
   219  110  231 1    
   220  111  232 1    
   221  111  233 1    
   222  111  234 1    
   223  112  113 2    
   224  112  114 am   BACKBONE|DICT|INTERRES
   225  114  115 1    
   226  114  235 1    
   227  115  116 1    
   228  115  117 1    
   229  115  236 1    
   230  116  237 1    
   231  116  238 1    
   232  116  239 1    
   233  117  118 2    
   234  117  119 am   BACKBONE|DICT|INTERRES
   235  119  120 1    
   236  119  240 1    
   237  120  121 1    
   238  120  124 1    
   239  120  241 1    
   240  121  122 am   BACKBONE|DICT|INTERRES
   241  121  123 2    
   242  122  242 1    
   243  122  243 1    
   244  124  125 1    
   245  124  244 1    
   246  124  245 1    
   247  125  126 1    
   248  126  246 1    
   249  126  247 1    
@<TRIPOS>SUBSTRUCTURE
     1 UNK         1 GROUP             0       ****    0 ROOT    
