@<TRIPOS>MOLECULE
3R540
247   249    1
SMALL
USER_CHARGES


@<TRIPOS>ATOM
      1 CA         -2.0771  -16.4236  -40.9466 C.3       0 UNK        -0.1800 
      2 C          -1.7119  -15.5265  -42.1199 C.2       0 UNK         0.5000 
      3 O          -0.5322  -15.3591  -42.4297 O.2       0 UNK        -0.5000 
      4 N          -2.7263  -14.9348  -42.7563 N.am      1 UNK        -0.5000 
      5 CA         -2.6099  -14.0828  -43.9410 C.3       1 UNK         0.1400 
      6 C6         -3.8572  -13.1684  -44.1145 C.3       23 UNK        -0.0398 
      7 S7         -5.4737  -13.9756  -43.8179 S.3       23 UNK        -0.2404 
      8 C8         -6.2305  -14.0040  -45.4763 C.3       23 UNK        -0.0205 
      9 C9         -5.6965  -15.1303  -46.3508 C.ar      23 UNK        -0.0193 
     10 C10        -5.1227  -14.8514  -47.5940 C.ar      23 UNK        -0.1150 
     11 C11        -4.6670  -15.8878  -48.4149 C.ar      23 UNK        -0.0193 
     12 C12        -4.7616  -17.2118  -47.9726 C.ar      23 UNK        -0.1150 
     13 C13        -5.3394  -17.5059  -46.7325 C.ar      23 UNK        -0.0193 
     14 C14        -5.8186  -16.4601  -45.9371 C.ar      23 UNK        -0.1150 
     15 C15        -5.5168  -18.9527  -46.2862 C.3       23 UNK        -0.0205 
     16 S16        -4.8872  -19.2838  -44.6038 S.3       23 UNK        -0.2404 
     17 C17        -3.1158  -19.6273  -44.8939 C.3       23 UNK        -0.0398 
     18 CA         -2.8181  -21.0362  -45.4676 C.3       11 UNK         0.1400 
     19 N          -1.3959  -21.2099  -45.7846 N.am      11 UNK        -0.5000 
     20 C          -0.8895  -22.2403  -46.4797 C.2       10 UNK         0.5000 
     21 O          -1.5597  -23.2025  -46.8547 O.2       10 UNK        -0.5000 
     22 CA          0.6020  -22.1868  -46.8309 C.3       10 UNK         0.1400 
     23 CB          0.8460  -21.1721  -47.9529 C.3       10 UNK        -0.1800 
     24 N           1.3990  -21.8320  -45.6625 N.am      10 UNK        -0.5000 
     25 C           1.8167  -22.7206  -44.7515 C.2       9 UNK         0.5000 
     26 O           1.6581  -23.9374  -44.8549 O.2       9 UNK        -0.5000 
     27 CA          2.5016  -22.1518  -43.4949 C.3       9 UNK         0.1400 
     28 CB          4.0025  -21.9414  -43.7455 C.3       9 UNK        -0.1800 
     29 N           1.9119  -20.8954  -43.0290 N.am      9 UNK        -0.5000 
     30 C           0.6374  -20.7387  -42.6436 C.2       8 UNK         0.5000 
     31 O          -0.2002  -21.6383  -42.6495 O.2       8 UNK        -0.5000 
     32 CA          0.2142  -19.3269  -42.2095 C.3       8 UNK         0.1400 
     33 CB          0.5101  -19.1296  -40.7149 C.3       8 UNK        -0.1800 
     34 N           0.8569  -18.2550  -42.9709 N.am      8 UNK        -0.5000 
     35 C           0.8114  -18.0895  -44.3004 C.2       7 UNK         0.5000 
     36 O           0.2164  -18.8573  -45.0638 O.2       7 UNK        -0.5000 
     37 CA          1.5668  -16.8496  -44.8276 C.3       7 UNK         0.1400 
     38 CB          3.0179  -16.7936  -44.2992 C.3       7 UNK        -0.1800 
     39 N           1.5514  -16.7010  -46.2845 N.am      7 UNK        -0.5000 
     40 C           2.0917  -17.5186  -47.1980 C.2       6 UNK         0.5000 
     41 O           2.7308  -18.5365  -46.9287 O.2       6 UNK        -0.5000 
     42 CA          1.9090  -17.1092  -48.6657 C.3       6 UNK         0.1400 
     43 CB          0.4946  -17.4526  -49.1649 C.3       6 UNK        -0.1800 
     44 N           2.1700  -15.6815  -48.8720 N.am      6 UNK        -0.5000 
     45 C           2.6202  -15.1737  -50.0264 C.2       5 UNK         0.5000 
     46 O           2.9212  -15.8661  -50.9997 O.2       5 UNK        -0.5000 
     47 CA          2.7407  -13.6468  -50.1509 C.3       5 UNK         0.1400 
     48 CB          1.4437  -13.0657  -50.7315 C.3       5 UNK        -0.1800 
     49 N           3.0335  -12.9686  -48.8851 N.am      5 UNK        -0.5000 
     50 C           4.1500  -12.2580  -48.6646 C.2       4 UNK         0.5000 
     51 O           5.1129  -12.2452  -49.4332 O.2       4 UNK        -0.5000 
     52 CA          4.2046  -11.3677  -47.4074 C.3       4 UNK         0.1400 
     53 CB          3.9880   -9.8952  -47.7921 C.3       4 UNK        -0.1800 
     54 N           3.2181  -11.7290  -46.3919 N.am      4 UNK        -0.5000 
     55 C           3.3908  -12.6976  -45.4860 C.2       3 UNK         0.5000 
     56 O           4.4063  -13.3888  -45.4067 O.2       3 UNK        -0.5000 
     57 CA          2.2277  -12.9411  -44.5060 C.3       3 UNK         0.1400 
     58 CB          2.4373  -12.1381  -43.2138 C.3       3 UNK        -0.1800 
     59 N           0.8908  -12.6482  -45.0374 N.am      3 UNK        -0.5000 
     60 C           0.3430  -13.2228  -46.1154 C.2       2 UNK         0.5000 
     61 O           0.9542  -13.9645  -46.8899 O.2       2 UNK        -0.5000 
     62 CA         -1.1524  -12.9742  -46.3473 C.3       2 UNK         0.1400 
     63 CB         -1.3996  -12.3169  -47.7111 C.3       2 UNK        -0.1800 
     64 N          -1.8097  -14.2807  -46.3019 N.am      2 UNK        -0.5000 
     65 C          -2.3092  -14.9025  -45.2224 C.2       1 UNK         0.5000 
     66 O          -2.5548  -16.1073  -45.2425 O.2       1 UNK        -0.5000 
     67 C          -3.4011  -22.2018  -44.6321 C.2       11 UNK         0.5000 
     68 O          -4.5105  -22.6498  -44.9266 O.2       11 UNK        -0.5000 
     69 N          -2.6215  -22.7454  -43.6849 N.am      12 UNK        -0.5000 
     70 CA         -2.9757  -23.9322  -42.8958 C.3       12 UNK         0.1400 
     71 CB         -1.9436  -24.1248  -41.7747 C.3       12 UNK        -0.1800 
     72 C          -3.1077  -25.2268  -43.7270 C.2       12 UNK         0.5000 
     73 O          -3.7785  -26.1597  -43.2850 O.2       12 UNK        -0.5000 
     74 N          -2.4970  -25.2533  -44.9186 N.am      13 UNK        -0.5000 
     75 CA         -2.5863  -26.3293  -45.9047 C.3       13 UNK         0.1400 
     76 CB         -1.1750  -26.6118  -46.4520 C.3       13 UNK        -0.1800 
     77 C          -3.5846  -25.9776  -47.0285 C.2       13 UNK         0.5000 
     78 O          -3.4304  -26.4617  -48.1503 O.2       13 UNK        -0.5000 
     79 N          -4.5750  -25.1225  -46.7258 N.am      14 UNK        -0.5000 
     80 CA         -5.6148  -24.6119  -47.6275 C.3       14 UNK         0.1400 
     81 CB         -6.5519  -25.7475  -48.0903 C.3       14 UNK        -0.1800 
     82 C          -5.0191  -23.8041  -48.7970 C.2       14 UNK         0.5000 
     83 O          -5.3734  -24.0269  -49.9555 O.2       14 UNK        -0.5000 
     84 N          -4.0789  -22.9098  -48.4597 N.am      15 UNK        -0.5000 
     85 CA         -3.2595  -22.1047  -49.3731 C.3       15 UNK         0.1400 
     86 CB         -4.1270  -21.0891  -50.1383 C.3       15 UNK        -0.1800 
     87 C          -2.3928  -22.9939  -50.2876 C.2       15 UNK         0.5000 
     88 O          -2.3305  -22.7693  -51.4964 O.2       15 UNK        -0.5000 
     89 N          -1.7834  -24.0230  -49.6788 N.am      16 UNK        -0.5000 
     90 CA         -1.0374  -25.1197  -50.3056 C.3       16 UNK         0.1400 
     91 CB          0.3080  -24.6069  -50.8572 C.3       16 UNK        -0.1800 
     92 C          -1.8812  -25.8561  -51.3679 C.2       16 UNK         0.5000 
     93 O          -1.4514  -25.9950  -52.5125 O.2       16 UNK        -0.5000 
     94 N          -3.1015  -26.2554  -50.9804 N.am      17 UNK        -0.5000 
     95 CA         -4.1575  -26.8162  -51.8339 C.3       17 UNK         0.1400 
     96 CB         -3.7918  -28.2481  -52.2755 C.3       17 UNK        -0.1800 
     97 C          -4.5125  -25.8865  -53.0177 C.2       17 UNK         0.5000 
     98 O          -4.6251  -26.3382  -54.1586 O.2       17 UNK        -0.5000 
     99 N          -4.6380  -24.5890  -52.7080 N.am      18 UNK        -0.5000 
    100 CA        -4.8763  -23.4491  -53.5990 C.3       18 UNK         0.1400 
    101 CB        -6.2413  -23.5795  -54.3047 C.3       18 UNK        -0.1800 
    102 C         -3.7347  -23.1292  -54.5916 C.2       18 UNK         0.5000 
    103 O         -3.9178  -22.2550  -55.4406 O.2       18 UNK        -0.5000 
    104 N         -2.5745  -23.7936  -54.4792 N.am      19 UNK        -0.5000 
    105 CA        -1.4087  -23.5478  -55.3336 C.3       19 UNK         0.1400 
    106 CB        -0.4807  -24.7712  -55.3085 C.3       19 UNK        -0.1800 
    107 C         -0.6282  -22.2792  -54.9396 C.2       19 UNK         0.5000 
    108 O          0.0760  -21.7233  -55.7834 O.2       19 UNK        -0.5000 
    109 N         -0.7631  -21.8422  -53.6820 N.am      20 UNK        -0.5000 
    110 CA        -0.1171  -20.6629  -53.1142 C.3       20 UNK         0.1400 
    111 CB         0.8855  -21.1036  -52.0324 C.3       20 UNK        -0.1800 
    112 C         -1.1912  -19.7075  -52.5716 C.2       20 UNK         0.5000 
    113 O         -1.0958  -19.2428  -51.4356 O.2       20 UNK        -0.5000 
    114 N         -2.2036  -19.4144  -53.3987 N.am      21 UNK        -0.5000 
    115 CA        -3.3263  -18.5154  -53.1062 C.3       21 UNK         0.1400 
    116 CB        -4.4905  -18.8615  -54.0513 C.3       21 UNK        -0.1800 
    117 C         -2.9425  -17.0177  -53.1411 C.2       21 UNK         0.5000 
    118 O         -3.6569  -16.2101  -53.7370 O.2       21 UNK        -0.5000 
    119 N         -1.8200  -16.6785  -52.4948 N.am      22 UNK        -0.5000 
    120 CA        -1.2573  -15.3261  -52.3335 C.3       22 UNK         0.1400 
    121 C         -0.8423  -14.6226  -53.6643 C.2       22 UNK         0.5000 
    122 N         -0.5984  -15.3522  -54.7461 N.am      22 UNK        -0.7600 
    123 O         -0.7092  -13.4031  -53.7178 O.2       22 UNK        -0.5000 
    124 C124       -2.1295  -14.4229  -51.4183 C.3       23 UNK        -0.0398 
    125 S125       -2.3643  -15.1231  -49.7460 S.3       23 UNK        -0.2404 
    126 C126       -4.1231  -15.5713  -49.7989 C.3       23 UNK        -0.0205 
    127 H127       -3.0840  -16.2172  -40.5830 H         1 UNK         0.0600 
    128 H128       -1.3836  -16.2680  -40.1203 H         1 UNK         0.0600 
    129 H129       -2.0336  -17.4696  -41.2459 H         1 UNK         0.0600 
    130 H130       -3.6763  -15.1416  -42.4815 H         1 UNK         0.3000 
    131 H131       -1.7512  -13.4388  -43.7498 H         1 UNK         0.0600 
    132 H132       -3.7866  -12.3520  -43.3946 H         1 UNK         0.0800 
    133 H133       -3.8650  -12.6815  -45.0909 H         1 UNK         0.0800 
    134 H134       -7.3065  -14.1416  -45.3617 H         1 UNK         0.0800 
    135 H135       -6.0992  -13.0328  -45.9558 H         1 UNK         0.0800 
    136 H136       -5.0440  -13.8284  -47.9344 H         1 UNK         0.1150 
    137 H137       -4.4098  -18.0125  -48.6076 H         1 UNK         0.1150 
    138 H138       -6.2829  -16.6813  -44.9865 H         1 UNK         0.1150 
    139 H139       -6.5836  -19.1788  -46.2991 H         1 UNK         0.0800 
    140 H140       -5.0569  -19.6402  -46.9961 H         1 UNK         0.0800 
    141 H141       -2.5899  -19.4904  -43.9493 H         1 UNK         0.0800 
    142 H142       -2.7255  -18.8600  -45.5650 H         1 UNK         0.0800 
    143 H143       -3.3303  -21.0823  -46.4285 H         1 UNK         0.0600 
    144 H144       -0.7792  -20.4460  -45.5186 H         1 UNK         0.3000 
    145 H145        0.9001  -23.1713  -47.1983 H         1 UNK         0.0600 
    146 H146        1.8910  -21.1650  -48.2627 H         1 UNK         0.0600 
    147 H147        0.2428  -21.4033  -48.8312 H         1 UNK         0.0600 
    148 H148        0.5856  -20.1659  -47.6281 H         1 UNK         0.0600 
    149 H149        1.5452  -20.8456  -45.4915 H         1 UNK         0.3000 
    150 H150        2.3863  -22.8872  -42.6959 H         1 UNK         0.0600 
    151 H151        4.4763  -22.8661  -44.0778 H         1 UNK         0.0600 
    152 H152        4.5141  -21.6242  -42.8366 H         1 UNK         0.0600 
    153 H153        4.1804  -21.1868  -44.5129 H         1 UNK         0.0600 
    154 H154        2.5205  -20.0910  -43.0019 H         1 UNK         0.3000 
    155 H155       -0.8618  -19.2416  -42.3642 H         1 UNK         0.0600 
    156 H156       -0.0188  -19.8693  -40.1122 H         1 UNK         0.0600 
    157 H157        0.1958  -18.1457  -40.3696 H         1 UNK         0.0600 
    158 H158        1.5744  -19.2310  -40.4986 H         1 UNK         0.0600 
    159 H159        1.3367  -17.5556  -42.4231 H         1 UNK         0.3000 
    160 H160        1.0300  -15.9814  -44.4473 H         1 UNK         0.0600 
    161 H161        3.5538  -17.7243  -44.4890 H         1 UNK         0.0600 
    162 H162        3.0449  -16.6129  -43.2244 H         1 UNK         0.0600 
    163 H163        3.5816  -15.9892  -44.7709 H         1 UNK         0.0600 
    164 H164        1.0569  -15.8811  -46.6164 H         1 UNK         0.3000 
    165 H165        2.6280  -17.6932  -49.2447 H         1 UNK         0.0600 
    166 H166        0.3565  -17.1543  -50.2031 H         1 UNK         0.0600 
    167 H167        0.3076  -18.5237  -49.1208 H         1 UNK         0.0600 
    168 H168       -0.2744  -16.9594  -48.5699 H         1 UNK         0.0600 
    169 H169        1.9360  -15.0557  -48.1080 H         1 UNK         0.3000 
    170 H170        3.5320  -13.4551  -50.8784 H         1 UNK         0.0600 
    171 H171        1.2608  -13.4577  -51.7317 H         1 UNK         0.0600 
    172 H172        0.5815  -13.3180  -50.1162 H         1 UNK         0.0600 
    173 H173        1.4948  -11.9800  -50.8149 H         1 UNK         0.0600 
    174 H174        2.3092  -12.9816  -48.1780 H         1 UNK         0.3000 
    175 H175        5.2067  -11.4604  -46.9829 H         1 UNK         0.0600 
    176 H176        3.0011   -9.7336  -48.2277 H         1 UNK         0.0600 
    177 H177        4.0839   -9.2424  -46.9242 H         1 UNK         0.0600 
    178 H178        4.7272   -9.5685  -48.5247 H         1 UNK         0.0600 
    179 H179        2.3549  -11.2060  -46.3833 H         1 UNK         0.3000 
    180 H180        2.2481  -13.9982  -44.2435 H         1 UNK         0.0600 
    181 H181        2.3834  -11.0638  -43.3943 H         1 UNK         0.0600 
    182 H182        3.4138  -12.3490  -42.7755 H         1 UNK         0.0600 
    183 H183        1.6867  -12.3929  -42.4652 H         1 UNK         0.0600 
    184 H184        0.3265  -12.0312  -44.4717 H         1 UNK         0.3000 
    185 H185       -1.5409  -12.2925  -45.5917 H         1 UNK         0.0600 
    186 H186       -0.9704  -12.8977  -48.5248 H         1 UNK         0.0600 
    187 H187       -2.4663  -12.2075  -47.9081 H         1 UNK         0.0600 
    188 H188       -0.9550  -11.3219  -47.7515 H         1 UNK         0.0600 
    189 H189       -1.6913  -14.8338  -47.1388 H         1 UNK         0.3000 
    190 H190       -1.7124  -22.3326  -43.4855 H         1 UNK         0.3000 
    191 H191       -3.9471  -23.7448  -42.4337 H         1 UNK         0.0600 
    192 H192       -0.9432  -24.2915  -42.1764 H         1 UNK         0.0600 
    193 H193       -1.9026  -23.2525  -41.1222 H         1 UNK         0.0600 
    194 H194       -2.1954  -24.9837  -41.1513 H         1 UNK         0.0600 
    195 H195       -2.0077  -24.4229  -45.2315 H         1 UNK         0.3000 
    196 H196       -2.9506  -27.2438  -45.4332 H         1 UNK         0.0600 
    197 H197       -0.4860  -26.8659  -45.6464 H         1 UNK         0.0600 
    198 H198       -0.7645  -25.7504  -46.9790 H         1 UNK         0.0600 
    199 H199       -1.1811  -27.4520  -47.1474 H         1 UNK         0.0600 
    200 H200       -4.5852  -24.7265  -45.7941 H         1 UNK         0.3000 
    201 H201       -6.2115  -23.9096  -47.0436 H         1 UNK         0.0600 
    202 H202       -7.3907  -25.3502  -48.6630 H         1 UNK         0.0600 
    203 H203       -6.9672  -26.2867  -47.2391 H         1 UNK         0.0600 
    204 H204       -6.0379  -26.4691  -48.7258 H         1 UNK         0.0600 
    205 H205       -3.8039  -22.8806  -47.4877 H         1 UNK         0.3000 
    206 H206       -2.5644  -21.5289  -48.7630 H         1 UNK         0.0600 
    207 H207       -4.6976  -20.4612  -49.4546 H         1 UNK         0.0600 
    208 H208       -4.8293  -21.5717  -50.8164 H         1 UNK         0.0600 
    209 H209       -3.4952  -20.4329  -50.7312 H         1 UNK         0.0600 
    210 H210       -1.8925  -24.0878  -48.6728 H         1 UNK         0.3000 
    211 H211       -0.8230  -25.8438  -49.5187 H         1 UNK         0.0600 
    212 H212        0.8666  -24.0610  -50.0969 H         1 UNK         0.0600 
    213 H213        0.9326  -25.4368  -51.1891 H         1 UNK         0.0600 
    214 H214        0.1672  -23.9464  -51.7126 H         1 UNK         0.0600 
    215 H215       -3.3462  -26.1391  -49.9992 H         1 UNK         0.3000 
    216 H216       -5.0525  -26.8780  -51.2132 H         1 UNK         0.0600 
    217 H217       -4.6173  -28.7128  -52.8157 H         1 UNK         0.0600 
    218 H218       -2.9221  -28.2600  -52.9332 H         1 UNK         0.0600 
    219 H219       -3.5705  -28.8800  -51.4155 H         1 UNK         0.0600 
    220 H220       -4.5674  -24.3442  -51.7240 H         1 UNK         0.3000 
    221 H221       -4.9353  -22.5805  -52.9433 H         1 UNK         0.0600 
    222 H222       -6.2446  -24.3880  -55.0360 H         1 UNK         0.0600 
    223 H223       -7.0391  -23.7709  -53.5870 H         1 UNK         0.0600 
    224 H224       -6.4983  -22.6614  -54.8343 H         1 UNK         0.0600 
    225 H225       -2.4656  -24.4836  -53.7449 H         1 UNK         0.3000 
    226 H226       -1.7567  -23.4175  -56.3605 H         1 UNK         0.0600 
    227 H227       -1.0269  -25.6909  -55.5193 H         1 UNK         0.0600 
    228 H228        0.3036  -24.6772  -56.0604 H         1 UNK         0.0600 
    229 H229        0.0113  -24.8835  -54.3421 H         1 UNK         0.0600 
    230 H230       -1.3951  -22.3325  -53.0506 H         1 UNK         0.3000 
    231 H231        0.4321  -20.1135  -53.8809 H         1 UNK         0.0600 
    232 H232        1.4209  -20.2471  -51.6205 H         1 UNK         0.0600 
    233 H233        1.6295  -21.7887  -52.4387 H         1 UNK         0.0600 
    234 H234        0.3834  -21.6048  -51.2055 H         1 UNK         0.0600 
    235 H235       -2.2037  -19.8397  -54.3147 H         1 UNK         0.3000 
    236 H236       -3.6701  -18.7045  -52.0896 H         1 UNK         0.0600 
    237 H237       -4.7828  -19.9068  -53.9484 H         1 UNK         0.0600 
    238 H238       -5.3721  -18.2588  -53.8294 H         1 UNK         0.0600 
    239 H239       -4.2254  -18.6887  -55.0950 H         1 UNK         0.0600 
    240 H240       -1.3316  -17.4235  -52.0070 H         1 UNK         0.3000 
    241 H241       -0.3106  -15.4750  -51.8142 H         1 UNK         0.0600 
    242 H242       -0.3235  -14.8942  -55.6009 H         1 UNK         0.3800 
    243 H243       -0.7029  -16.3534  -54.7240 H         1 UNK         0.3800 
    244 H244       -1.6591  -13.4477  -51.2848 H         1 UNK         0.0800 
    245 H245       -3.0941  -14.2245  -51.8868 H         1 UNK         0.0800 
    246 H246       -4.2583  -16.4247  -50.4643 H         1 UNK         0.0800 
    247 H247       -4.6981  -14.7505  -50.2300 H         1 UNK         0.0800 
@<TRIPOS>BOND
     1    1    2 1    
     2    1  127 1    
     3    1  128 1    
     4    1  129 1    
     5    2    3 2    
     6    2    4 am   BACKBONE|DICT|INTERRES
     7    4    5 1    
     8    4  130 1    
     9    5    6 1    
    10    5   65 1    
    11    5  131 1    
    12    6    7 1    
    13    6  132 1    
    14    6  133 1    
    15    7    8 1    
    16    8    9 1    
    17    8  134 1    
    18    8  135 1    
    19    9   10 ar   
    20    9   14 ar   
    21   10   11 ar   
    22   10  136 1    
    23   11   12 ar   
    24   11  126 1    
    25   12   13 ar   
    26   12  137 1    
    27   13   14 ar   
    28   13   15 1    
    29   14  138 1    
    30   15   16 1    
    31   15  139 1    
    32   15  140 1    
    33   16   17 1    
    34   17   18 1    
    35   17  141 1    
    36   17  142 1    
    37   18   19 1    
    38   18   67 1    
    39   18  143 1    
    40   19   20 am   BACKBONE|DICT|INTERRES
    41   19  144 1    
    42   20   21 2    
    43   20   22 1    
    44   22   23 1    
    45   22   24 1    
    46   22  145 1    
    47   23  146 1    
    48   23  147 1    
    49   23  148 1    
    50   24   25 am   BACKBONE|DICT|INTERRES
    51   24  149 1    
    52   25   26 2    
    53   25   27 1    
    54   27   28 1    
    55   27   29 1    
    56   27  150 1    
    57   28  151 1    
    58   28  152 1    
    59   28  153 1    
    60   29   30 am   BACKBONE|DICT|INTERRES
    61   29  154 1    
    62   30   31 2    
    63   30   32 1    
    64   32   33 1    
    65   32   34 1    
    66   32  155 1    
    67   33  156 1    
    68   33  157 1    
    69   33  158 1    
    70   34   35 am   BACKBONE|DICT|INTERRES
    71   34  159 1    
    72   35   36 2    
    73   35   37 1    
    74   37   38 1    
    75   37   39 1    
    76   37  160 1    
    77   38  161 1    
    78   38  162 1    
    79   38  163 1    
    80   39   40 am   BACKBONE|DICT|INTERRES
    81   39  164 1    
    82   40   41 2    
    83   40   42 1    
    84   42   43 1    
    85   42   44 1    
    86   42  165 1    
    87   43  166 1    
    88   43  167 1    
    89   43  168 1    
    90   44   45 am   BACKBONE|DICT|INTERRES
    91   44  169 1    
    92   45   46 2    
    93   45   47 1    
    94   47   48 1    
    95   47   49 1    
    96   47  170 1    
    97   48  171 1    
    98   48  172 1    
    99   48  173 1    
   100   49   50 am   BACKBONE|DICT|INTERRES
   101   49  174 1    
   102   50   51 2    
   103   50   52 1    
   104   52   53 1    
   105   52   54 1    
   106   52  175 1    
   107   53  176 1    
   108   53  177 1    
   109   53  178 1    
   110   54   55 am   BACKBONE|DICT|INTERRES
   111   54  179 1    
   112   55   56 2    
   113   55   57 1    
   114   57   58 1    
   115   57   59 1    
   116   57  180 1    
   117   58  181 1    
   118   58  182 1    
   119   58  183 1    
   120   59   60 am   BACKBONE|DICT|INTERRES
   121   59  184 1    
   122   60   61 2    
   123   60   62 1    
   124   62   63 1    
   125   62   64 1    
   126   62  185 1    
   127   63  186 1    
   128   63  187 1    
   129   63  188 1    
   130   64   65 am   BACKBONE|DICT|INTERRES
   131   64  189 1    
   132   65   66 2    
   133   67   68 2    
   134   67   69 am   BACKBONE|DICT|INTERRES
   135   69   70 1    
   136   69  190 1    
   137   70   71 1    
   138   70   72 1    
   139   70  191 1    
   140   71  192 1    
   141   71  193 1    
   142   71  194 1    
   143   72   73 2    
   144   72   74 am   BACKBONE|DICT|INTERRES
   145   74   75 1    
   146   74  195 1    
   147   75   76 1    
   148   75   77 1    
   149   75  196 1    
   150   76  197 1    
   151   76  198 1    
   152   76  199 1    
   153   77   78 2    
   154   77   79 am   BACKBONE|DICT|INTERRES
   155   79   80 1    
   156   79  200 1    
   157   80   81 1    
   158   80   82 1    
   159   80  201 1    
   160   81  202 1    
   161   81  203 1    
   162   81  204 1    
   163   82   83 2    
   164   82   84 am   BACKBONE|DICT|INTERRES
   165   84   85 1    
   166   84  205 1    
   167   85   86 1    
   168   85   87 1    
   169   85  206 1    
   170   86  207 1    
   171   86  208 1    
   172   86  209 1    
   173   87   88 2    
   174   87   89 am   BACKBONE|DICT|INTERRES
   175   89   90 1    
   176   89  210 1    
   177   90   91 1    
   178   90   92 1    
   179   90  211 1    
   180   91  212 1    
   181   91  213 1    
   182   91  214 1    
   183   92   93 2    
   184   92   94 am   BACKBONE|DICT|INTERRES
   185   94   95 1    
   186   94  215 1    
   187   95   96 1    
   188   95   97 1    
   189   95  216 1    
   190   96  217 1    
   191   96  218 1    
   192   96  219 1    
   193   97   98 2    
   194   97   99 am   BACKBONE|DICT|INTERRES
   195   99  100 1    
   196   99  220 1    
   197  100  101 1    
   198  100  102 1    
   199  100  221 1    
   200  101  222 1    
   201  101  223 1    
   202  101  224 1    
   203  102  103 2    
   204  102  104 am   BACKBONE|DICT|INTERRES
   205  104  105 1    
   206  104  225 1    
   207  105  106 1    
   208  105  107 1    
   209  105  226 1    
   210  106  227 1    
   211  106  228 1    
   212  106  229 1    
   213  107  108 2    
   214  107  109 am   BACKBONE|DICT|INTERRES
   215  109  110 1    
   216  109  230 1    
   217  110  111 1    
   218  110  112 1    
   219  110  231 1    
   220  111  232 1    
   221  111  233 1    
   222  111  234 1    
   223  112  113 2    
   224  112  114 am   BACKBONE|DICT|INTERRES
   225  114  115 1    
   226  114  235 1    
   227  115  116 1    
   228  115  117 1    
   229  115  236 1    
   230  116  237 1    
   231  116  238 1    
   232  116  239 1    
   233  117  118 2    
   234  117  119 am   BACKBONE|DICT|INTERRES
   235  119  120 1    
   236  119  240 1    
   237  120  121 1    
   238  120  124 1    
   239  120  241 1    
   240  121  122 am   BACKBONE|DICT|INTERRES
   241  121  123 2    
   242  122  242 1    
   243  122  243 1    
   244  124  125 1    
   245  124  244 1    
   246  124  245 1    
   247  125  126 1    
   248  126  246 1    
   249  126  247 1    
@<TRIPOS>SUBSTRUCTURE
     1 UNK         1 GROUP             0       ****    0 ROOT    
