@<TRIPOS>MOLECULE
3R540
247   249    1
SMALL
USER_CHARGES


@<TRIPOS>ATOM
      1 CA          4.2356  -15.9072  -48.1394 C.3       0 UNK        -0.1800 
      2 C           2.7531  -15.6179  -47.9566 C.2       0 UNK         0.5000 
      3 O           2.1310  -16.1774  -47.0573 O.2       0 UNK        -0.5000 
      4 N           2.1886  -14.7461  -48.8033 N.am      1 UNK        -0.5000 
      5 CA          0.7725  -14.3533  -48.7848 C.3       1 UNK         0.1400 
      6 C6          0.3906  -13.5780  -50.0720 C.3       23 UNK        -0.0398 
      7 S7         -1.3892  -13.6780  -50.4673 S.3       23 UNK        -0.2404 
      8 C8         -1.3986  -14.8343  -51.8729 C.3       23 UNK        -0.0205 
      9 C9         -1.2912  -16.2849  -51.4250 C.ar      23 UNK        -0.0193 
     10 C10        -2.4426  -17.0589  -51.2686 C.ar      23 UNK        -0.1150 
     11 C11        -2.3565  -18.4008  -50.8863 C.ar      23 UNK        -0.0193 
     12 C12        -1.0968  -18.9560  -50.6286 C.ar      23 UNK        -0.1150 
     13 C13         0.0683  -18.1848  -50.7525 C.ar      23 UNK        -0.0193 
     14 C14        -0.0434  -16.8582  -51.1752 C.ar      23 UNK        -0.1150 
     15 C15         1.4735  -18.7165  -50.4619 C.3       23 UNK        -0.0205 
     16 S16         1.5839  -20.3482  -49.6555 S.3       23 UNK        -0.2404 
     17 C17         1.0364  -19.9902  -47.9480 C.3       23 UNK        -0.0398 
     18 CA          0.4722  -21.2680  -47.2787 C.3       11 UNK         0.1400 
     19 N           0.6298  -21.2885  -45.8225 N.am      11 UNK        -0.5000 
     20 C           0.4825  -22.3974  -45.0810 C.2       10 UNK         0.5000 
     21 O           0.2214  -23.5037  -45.5523 O.2       10 UNK        -0.5000 
     22 CA          0.6006  -22.2501  -43.5563 C.3       10 UNK         0.1400 
     23 CB          2.0722  -22.1534  -43.1279 C.3       10 UNK        -0.1800 
     24 N          -0.1535  -21.1079  -43.0431 N.am      10 UNK        -0.5000 
     25 C          -1.4856  -20.9806  -43.1292 C.2       9 UNK         0.5000 
     26 O          -2.2236  -21.8330  -43.6244 O.2       9 UNK        -0.5000 
     27 CA         -2.0940  -19.6655  -42.6107 C.3       9 UNK         0.1400 
     28 CB         -2.2153  -19.6878  -41.0799 C.3       9 UNK        -0.1800 
     29 N          -1.3366  -18.4853  -43.0280 N.am      9 UNK        -0.5000 
     30 C          -1.1594  -18.1059  -44.3027 C.2       8 UNK         0.5000 
     31 O          -1.6393  -18.6977  -45.2692 O.2       8 UNK        -0.5000 
     32 CA         -0.2426  -16.8947  -44.5397 C.3       8 UNK         0.1400 
     33 CB         -0.9518  -15.5832  -44.1715 C.3       8 UNK        -0.1800 
     34 N           1.0079  -16.9981  -43.7917 N.am      8 UNK        -0.5000 
     35 C           1.9144  -17.9736  -43.9448 C.2       7 UNK         0.5000 
     36 O           1.8148  -18.8908  -44.7602 O.2       7 UNK        -0.5000 
     37 CA          3.1048  -17.9527  -42.9724 C.3       7 UNK         0.1400 
     38 CB          4.1596  -16.9272  -43.4172 C.3       7 UNK        -0.1800 
     39 N           2.6842  -17.6759  -41.5967 N.am      7 UNK        -0.5000 
     40 C           1.9340  -18.5039  -40.8539 C.2       6 UNK         0.5000 
     41 O           1.5357  -19.6001  -41.2425 O.2       6 UNK        -0.5000 
     42 CA          1.5293  -18.0109  -39.4538 C.3       6 UNK         0.1400 
     43 CB          2.6596  -18.2580  -38.4437 C.3       6 UNK        -0.1800 
     44 N           1.1684  -16.5943  -39.4422 N.am      6 UNK        -0.5000 
     45 C           0.0943  -16.0779  -40.0562 C.2       5 UNK         0.5000 
     46 O          -0.7341  -16.7479  -40.6729 O.2       5 UNK        -0.5000 
     47 CA         -0.0334  -14.5430  -40.0221 C.3       5 UNK         0.1400 
     48 CB         -0.6872  -14.0793  -38.7120 C.3       5 UNK        -0.1800 
     49 N           1.2578  -13.8670  -40.1942 N.am      5 UNK        -0.5000 
     50 C           2.0062  -13.9693  -41.2989 C.2       4 UNK         0.5000 
     51 O           1.6712  -14.6280  -42.2887 O.2       4 UNK        -0.5000 
     52 CA          3.3681  -13.2633  -41.2939 C.3       4 UNK         0.1400 
     53 CB          4.4142  -14.0969  -40.5302 C.3       4 UNK        -0.1800 
     54 N           3.7510  -13.1113  -42.6889 N.am      4 UNK        -0.5000 
     55 C           4.7300  -12.3644  -43.2044 C.2       3 UNK         0.5000 
     56 O           5.5350  -11.7161  -42.5352 O.2       3 UNK        -0.5000 
     57 CA          4.7884  -12.3188  -44.7447 C.3       3 UNK         0.1400 
     58 CB          5.6785  -13.4489  -45.2848 C.3       3 UNK        -0.1800 
     59 N           3.4596  -12.4195  -45.3613 N.am      3 UNK        -0.5000 
     60 C           2.5125  -11.4717  -45.2809 C.2       2 UNK         0.5000 
     61 O           2.6879  -10.3865  -44.7250 O.2       2 UNK        -0.5000 
     62 CA          1.1540  -11.7898  -45.9319 C.3       2 UNK         0.1400 
     63 CB          0.3769  -10.5256  -46.3508 C.3       2 UNK        -0.1800 
     64 N           1.3208  -12.6756  -47.0833 N.am      2 UNK        -0.5000 
     65 C           0.4018  -13.5452  -47.5221 C.2       1 UNK         0.5000 
     66 O          -0.6889  -13.7220  -46.9792 O.2       1 UNK        -0.5000 
     67 C          -0.9796  -21.5604  -47.7055 C.2       11 UNK         0.5000 
     68 O          -1.1787  -22.3311  -48.6424 O.2       11 UNK        -0.5000 
     69 N          -1.9668  -21.0028  -46.9870 N.am      12 UNK        -0.5000 
     70 CA         -3.3894  -21.2854  -47.1902 C.3       12 UNK         0.1400 
     71 CB         -4.2461  -20.3935  -46.2808 C.3       12 UNK        -0.1800 
     72 C          -3.7373  -22.7709  -46.9990 C.2       12 UNK         0.5000 
     73 O          -4.4485  -23.3326  -47.8318 O.2       12 UNK        -0.5000 
     74 N          -3.1928  -23.3873  -45.9412 N.am      13 UNK        -0.5000 
     75 CA         -3.3206  -24.8165  -45.6647 C.3       13 UNK         0.1400 
     76 CB         -2.7785  -25.1215  -44.2598 C.3       13 UNK        -0.1800 
     77 C          -2.6274  -25.6887  -46.7277 C.2       13 UNK         0.5000 
     78 O          -3.2446  -26.6263  -47.2336 O.2       13 UNK        -0.5000 
     79 N          -1.3736  -25.3536  -47.0654 N.am      14 UNK        -0.5000 
     80 CA         -0.5497  -26.0722  -48.0409 C.3       14 UNK         0.1400 
     81 CB          0.8853  -25.5255  -48.0068 C.3       14 UNK        -0.1800 
     82 C          -1.1111  -26.0196  -49.4727 C.2       14 UNK         0.5000 
     83 O          -1.1014  -27.0372  -50.1662 O.2       14 UNK        -0.5000 
     84 N          -1.6096  -24.8457  -49.8809 N.am      15 UNK        -0.5000 
     85 CA         -2.2256  -24.6152  -51.1871 C.3       15 UNK         0.1400 
     86 CB         -2.0956  -23.1256  -51.5450 C.3       15 UNK        -0.1800 
     87 C          -3.7038  -25.0431  -51.2487 C.2       15 UNK         0.5000 
     88 O          -4.3148  -24.9077  -52.3104 O.2       15 UNK        -0.5000 
     89 N          -4.2763  -25.4782  -50.1147 N.am      16 UNK        -0.5000 
     90 CA         -5.6849  -25.8456  -49.9099 C.3       16 UNK         0.1400 
     91 CB         -5.9987  -27.1681  -50.6384 C.3       16 UNK        -0.1800 
     92 C          -6.6726  -24.7153  -50.2831 C.2       16 UNK         0.5000 
     93 O          -7.8059  -24.9896  -50.6816 O.2       16 UNK        -0.5000 
     94 N          -6.1953  -23.4661  -50.1761 N.am      17 UNK        -0.5000 
     95 CA         -6.8175  -22.2160  -50.6132 C.3       17 UNK         0.1400 
     96 CB         -7.9647  -21.8347  -49.6562 C.3       17 UNK        -0.1800 
     97 C          -7.2431  -22.2167  -52.1017 C.2       17 UNK         0.5000 
     98 O          -8.2721  -21.6243  -52.4315 O.2       17 UNK        -0.5000 
     99 N          -6.4719  -22.8918  -52.9705 N.am      18 UNK        -0.5000 
    100 CA        -6.8176  -23.0664  -54.3842 C.3       18 UNK         0.1400 
    101 CB        -7.7236  -24.3014  -54.5375 C.3       18 UNK        -0.1800 
    102 C         -5.6059  -23.1730  -55.3266 C.2       18 UNK         0.5000 
    103 O         -5.7085  -22.7386  -56.4744 O.2       18 UNK        -0.5000 
    104 N         -4.5009  -23.7833  -54.8750 N.am      19 UNK        -0.5000 
    105 CA        -3.3545  -24.1096  -55.7324 C.3       19 UNK         0.1400 
    106 CB        -2.5871  -25.2886  -55.1157 C.3       19 UNK        -0.1800 
    107 C         -2.3977  -22.9292  -55.9900 C.2       19 UNK         0.5000 
    108 O         -1.6230  -22.9873  -56.9465 O.2       19 UNK        -0.5000 
    109 N         -2.4459  -21.9026  -55.1339 N.am      20 UNK        -0.5000 
    110 CA        -1.6199  -20.6979  -55.2132 C.3       20 UNK         0.1400 
    111 CB        -0.9620  -20.4616  -53.8401 C.3       20 UNK        -0.1800 
    112 C         -2.4685  -19.5078  -55.7036 C.2       20 UNK         0.5000 
    113 O         -3.4566  -19.7080  -56.4138 O.2       20 UNK        -0.5000 
    114 N         -2.0815  -18.2816  -55.3288 N.am      21 UNK        -0.5000 
    115 CA        -2.7783  -17.0316  -55.6486 C.3       21 UNK         0.1400 
    116 CB        -1.7660  -15.8748  -55.5788 C.3       21 UNK        -0.1800 
    117 C         -4.0072  -16.8124  -54.7380 C.2       21 UNK         0.5000 
    118 O         -4.1107  -15.7930  -54.0543 O.2       21 UNK        -0.5000 
    119 N         -4.9074  -17.7953  -54.7298 N.am      22 UNK        -0.5000 
    120 CA        -6.0742  -17.9032  -53.8522 C.3       22 UNK         0.1400 
    121 C         -7.1586  -18.8214  -54.4735 C.2       22 UNK         0.5000 
    122 N         -8.3955  -18.7270  -54.0051 N.am      22 UNK        -0.7600 
    123 O         -6.8994  -19.6135  -55.3761 O.2       22 UNK        -0.5000 
    124 C124       -5.7008  -18.3147  -52.3971 C.3       23 UNK        -0.0398 
    125 S125       -4.4619  -19.6598  -52.2628 S.3       23 UNK        -0.2404 
    126 C126       -3.6156  -19.2434  -50.7013 C.3       23 UNK        -0.0205 
    127 H127        4.7650  -15.7679  -47.1971 H         1 UNK         0.0600 
    128 H128        4.6887  -15.2529  -48.8844 H         1 UNK         0.0600 
    129 H129        4.3765  -16.9397  -48.4594 H         1 UNK         0.0600 
    130 H130        2.7575  -14.3208  -49.5216 H         1 UNK         0.3000 
    131 H131        0.1933  -15.2791  -48.7549 H         1 UNK         0.0600 
    132 H132        0.6722  -12.5258  -49.9989 H         1 UNK         0.0800 
    133 H133        0.9531  -13.9594  -50.9242 H         1 UNK         0.0800 
    134 H134       -0.5945  -14.5893  -52.5679 H         1 UNK         0.0800 
    135 H135       -2.3258  -14.6869  -52.4276 H         1 UNK         0.0800 
    136 H136       -3.4034  -16.6053  -51.4518 H         1 UNK         0.1150 
    137 H137       -1.0347  -19.9914  -50.3280 H         1 UNK         0.1150 
    138 H138        0.8508  -16.2643  -51.2969 H         1 UNK         0.1150 
    139 H139        2.0132  -18.7751  -51.4079 H         1 UNK         0.0800 
    140 H140        2.0117  -17.9951  -49.8452 H         1 UNK         0.0800 
    141 H141        0.3128  -19.1726  -47.9328 H         1 UNK         0.0800 
    142 H142        1.9089  -19.6295  -47.4015 H         1 UNK         0.0800 
    143 H143        1.0718  -22.1078  -47.6373 H         1 UNK         0.0600 
    144 H144        0.8769  -20.4112  -45.3699 H         1 UNK         0.3000 
    145 H145        0.1795  -23.1513  -43.1057 H         1 UNK         0.0600 
    146 H146        2.1668  -22.1611  -42.0421 H         1 UNK         0.0600 
    147 H147        2.6466  -22.9987  -43.5091 H         1 UNK         0.0600 
    148 H148        2.5421  -21.2426  -43.4988 H         1 UNK         0.0600 
    149 H149        0.3853  -20.3833  -42.5771 H         1 UNK         0.3000 
    150 H150       -3.0988  -19.5784  -43.0288 H         1 UNK         0.0600 
    151 H151       -2.7855  -20.5553  -40.7451 H         1 UNK         0.0600 
    152 H152       -2.7294  -18.7993  -40.7130 H         1 UNK         0.0600 
    153 H153       -1.2377  -19.7302  -40.5988 H         1 UNK         0.0600 
    154 H154       -0.9268  -17.9246  -42.2872 H         1 UNK         0.3000 
    155 H155        0.0030  -16.8639  -45.6028 H         1 UNK         0.0600 
    156 H156       -1.8673  -15.4596  -44.7512 H         1 UNK         0.0600 
    157 H157       -0.3165  -14.7226  -44.3812 H         1 UNK         0.0600 
    158 H158       -1.2206  -15.5483  -43.1157 H         1 UNK         0.0600 
    159 H159        1.1926  -16.2607  -43.1175 H         1 UNK         0.3000 
    160 H160        3.5675  -18.9417  -42.9902 H         1 UNK         0.0600 
    161 H161        3.7639  -15.9124  -43.4179 H         1 UNK         0.0600 
    162 H162        4.5047  -17.1409  -44.4297 H         1 UNK         0.0600 
    163 H163        5.0326  -16.9483  -42.7649 H         1 UNK         0.0600 
    164 H164        2.9302  -16.7756  -41.2168 H         1 UNK         0.3000 
    165 H165        0.6565  -18.5861  -39.1373 H         1 UNK         0.0600 
    166 H166        2.3530  -17.9833  -37.4343 H         1 UNK         0.0600 
    167 H167        2.9386  -19.3124  -38.4216 H         1 UNK         0.0600 
    168 H168        3.5552  -17.6863  -38.6902 H         1 UNK         0.0600 
    169 H169        1.7945  -15.9670  -38.9599 H         1 UNK         0.3000 
    170 H170       -0.6814  -14.2473  -40.8501 H         1 UNK         0.0600 
    171 H171       -1.6568  -14.5585  -38.5695 H         1 UNK         0.0600 
    172 H172       -0.0712  -14.3201  -37.8448 H         1 UNK         0.0600 
    173 H173       -0.8562  -13.0023  -38.7157 H         1 UNK         0.0600 
    174 H174        1.5887  -13.3114  -39.4183 H         1 UNK         0.3000 
    175 H175        3.2607  -12.2768  -40.8389 H         1 UNK         0.0600 
    176 H176        4.5586  -15.0775  -40.9843 H         1 UNK         0.0600 
    177 H177        5.3821  -13.5965  -40.5080 H         1 UNK         0.0600 
    178 H178        4.1122  -14.2542  -39.4942 H         1 UNK         0.0600 
    179 H179        3.1201  -13.5938  -43.3173 H         1 UNK         0.3000 
    180 H180        5.2312  -11.3634  -45.0346 H         1 UNK         0.0600 
    181 H181        5.2783  -14.4323  -45.0356 H         1 UNK         0.0600 
    182 H182        6.6831  -13.3882  -44.8642 H         1 UNK         0.0600 
    183 H183        5.7772  -13.3902  -46.3689 H         1 UNK         0.0600 
    184 H184        3.2308  -13.2948  -45.8083 H         1 UNK         0.3000 
    185 H185        0.5742  -12.3096  -45.1662 H         1 UNK         0.0600 
    186 H186        0.1982   -9.8704  -45.4975 H         1 UNK         0.0600 
    187 H187        0.9229   -9.9519  -47.1004 H         1 UNK         0.0600 
    188 H188       -0.5977  -10.7792  -46.7680 H         1 UNK         0.0600 
    189 H189        2.1895  -12.5857  -47.5919 H         1 UNK         0.3000 
    190 H190       -1.7365  -20.3435  -46.2479 H         1 UNK         0.3000 
    191 H191       -3.6321  -21.0337  -48.2209 H         1 UNK         0.0600 
    192 H192       -4.0259  -20.5612  -45.2267 H         1 UNK         0.0600 
    193 H193       -5.3086  -20.5892  -46.4305 H         1 UNK         0.0600 
    194 H194       -4.0773  -19.3380  -46.4942 H         1 UNK         0.0600 
    195 H195       -2.6500  -22.8400  -45.2795 H         1 UNK         0.3000 
    196 H196       -4.3841  -25.0639  -45.6754 H         1 UNK         0.0600 
    197 H197       -2.8750  -26.1822  -44.0251 H         1 UNK         0.0600 
    198 H198       -3.3281  -24.5678  -43.4983 H         1 UNK         0.0600 
    199 H199       -1.7248  -24.8578  -44.1660 H         1 UNK         0.0600 
    200 H200       -0.9248  -24.5792  -46.5812 H         1 UNK         0.3000 
    201 H201       -0.5188  -27.1206  -47.7373 H         1 UNK         0.0600 
    202 H202        1.3268  -25.6374  -47.0164 H         1 UNK         0.0600 
    203 H203        0.9175  -24.4680  -48.2708 H         1 UNK         0.0600 
    204 H204        1.5251  -26.0598  -48.7102 H         1 UNK         0.0600 
    205 H205       -1.5374  -24.0335  -49.2702 H         1 UNK         0.3000 
    206 H206       -1.6826  -25.1951  -51.9346 H         1 UNK         0.0600 
    207 H207       -1.0576  -22.7952  -51.5014 H         1 UNK         0.0600 
    208 H208       -2.4555  -22.9315  -52.5542 H         1 UNK         0.0600 
    209 H209       -2.6754  -22.4978  -50.8678 H         1 UNK         0.0600 
    210 H210       -3.6980  -25.5186  -49.2855 H         1 UNK         0.3000 
    211 H211       -5.8038  -26.0145  -48.8387 H         1 UNK         0.0600 
    212 H212       -5.9554  -27.0515  -51.7218 H         1 UNK         0.0600 
    213 H213       -6.9969  -27.5281  -50.3869 H         1 UNK         0.0600 
    214 H214       -5.2930  -27.9494  -50.3562 H         1 UNK         0.0600 
    215 H215       -5.2889  -23.3724  -49.7313 H         1 UNK         0.3000 
    216 H216       -6.0481  -21.4502  -50.5180 H         1 UNK         0.0600 
    217 H217       -8.3537  -20.8418  -49.8848 H         1 UNK         0.0600 
    218 H218       -7.6234  -21.8170  -48.6210 H         1 UNK         0.0600 
    219 H219       -8.7954  -22.5378  -49.7240 H         1 UNK         0.0600 
    220 H220       -5.6644  -23.3984  -52.6268 H         1 UNK         0.3000 
    221 H221       -7.3789  -22.1936  -54.7234 H         1 UNK         0.0600 
    222 H222       -7.2321  -25.2036  -54.1709 H         1 UNK         0.0600 
    223 H223       -8.6544  -24.1803  -53.9831 H         1 UNK         0.0600 
    224 H224       -7.9881  -24.4693  -55.5823 H         1 UNK         0.0600 
    225 H225       -4.4837  -24.1771  -53.9366 H         1 UNK         0.3000 
    226 H226       -3.7316  -24.4381  -56.7034 H         1 UNK         0.0600 
    227 H227       -3.2470  -26.1329  -54.9147 H         1 UNK         0.0600 
    228 H228       -1.8048  -25.6397  -55.7897 H         1 UNK         0.0600 
    229 H229       -2.1065  -25.0049  -54.1811 H         1 UNK         0.0600 
    230 H230       -3.1692  -21.9051  -54.4302 H         1 UNK         0.3000 
    231 H231       -0.8200  -20.8308  -55.9439 H         1 UNK         0.0600 
    232 H232       -0.3840  -21.3324  -53.5306 H         1 UNK         0.0600 
    233 H233       -1.7062  -20.2717  -53.0688 H         1 UNK         0.0600 
    234 H234       -0.2720  -19.6176  -53.8556 H         1 UNK         0.0600 
    235 H235       -1.2889  -18.1980  -54.7096 H         1 UNK         0.3000 
    236 H236       -3.1473  -17.0835  -56.6750 H         1 UNK         0.0600 
    237 H237       -2.2410  -14.9197  -55.8062 H         1 UNK         0.0600 
    238 H238       -1.3174  -15.7952  -54.5893 H         1 UNK         0.0600 
    239 H239       -0.9603  -16.0144  -56.2996 H         1 UNK         0.0600 
    240 H240       -4.7603  -18.5971  -55.3367 H         1 UNK         0.3000 
    241 H241       -6.5290  -16.9114  -53.8120 H         1 UNK         0.0600 
    242 H242       -9.1036  -19.3369  -54.3823 H         1 UNK         0.3800 
    243 H243       -8.6414  -18.0837  -53.2694 H         1 UNK         0.3800 
    244 H244       -5.3272  -17.4350  -51.8787 H         1 UNK         0.0800 
    245 H245       -6.5867  -18.6114  -51.8334 H         1 UNK         0.0800 
    246 H246       -3.3493  -20.1868  -50.2285 H         1 UNK         0.0800 
    247 H247       -4.3022  -18.7430  -50.0172 H         1 UNK         0.0800 
@<TRIPOS>BOND
     1    1    2 1    
     2    1  127 1    
     3    1  128 1    
     4    1  129 1    
     5    2    3 2    
     6    2    4 am   BACKBONE|DICT|INTERRES
     7    4    5 1    
     8    4  130 1    
     9    5    6 1    
    10    5   65 1    
    11    5  131 1    
    12    6    7 1    
    13    6  132 1    
    14    6  133 1    
    15    7    8 1    
    16    8    9 1    
    17    8  134 1    
    18    8  135 1    
    19    9   10 ar   
    20    9   14 ar   
    21   10   11 ar   
    22   10  136 1    
    23   11   12 ar   
    24   11  126 1    
    25   12   13 ar   
    26   12  137 1    
    27   13   14 ar   
    28   13   15 1    
    29   14  138 1    
    30   15   16 1    
    31   15  139 1    
    32   15  140 1    
    33   16   17 1    
    34   17   18 1    
    35   17  141 1    
    36   17  142 1    
    37   18   19 1    
    38   18   67 1    
    39   18  143 1    
    40   19   20 am   BACKBONE|DICT|INTERRES
    41   19  144 1    
    42   20   21 2    
    43   20   22 1    
    44   22   23 1    
    45   22   24 1    
    46   22  145 1    
    47   23  146 1    
    48   23  147 1    
    49   23  148 1    
    50   24   25 am   BACKBONE|DICT|INTERRES
    51   24  149 1    
    52   25   26 2    
    53   25   27 1    
    54   27   28 1    
    55   27   29 1    
    56   27  150 1    
    57   28  151 1    
    58   28  152 1    
    59   28  153 1    
    60   29   30 am   BACKBONE|DICT|INTERRES
    61   29  154 1    
    62   30   31 2    
    63   30   32 1    
    64   32   33 1    
    65   32   34 1    
    66   32  155 1    
    67   33  156 1    
    68   33  157 1    
    69   33  158 1    
    70   34   35 am   BACKBONE|DICT|INTERRES
    71   34  159 1    
    72   35   36 2    
    73   35   37 1    
    74   37   38 1    
    75   37   39 1    
    76   37  160 1    
    77   38  161 1    
    78   38  162 1    
    79   38  163 1    
    80   39   40 am   BACKBONE|DICT|INTERRES
    81   39  164 1    
    82   40   41 2    
    83   40   42 1    
    84   42   43 1    
    85   42   44 1    
    86   42  165 1    
    87   43  166 1    
    88   43  167 1    
    89   43  168 1    
    90   44   45 am   BACKBONE|DICT|INTERRES
    91   44  169 1    
    92   45   46 2    
    93   45   47 1    
    94   47   48 1    
    95   47   49 1    
    96   47  170 1    
    97   48  171 1    
    98   48  172 1    
    99   48  173 1    
   100   49   50 am   BACKBONE|DICT|INTERRES
   101   49  174 1    
   102   50   51 2    
   103   50   52 1    
   104   52   53 1    
   105   52   54 1    
   106   52  175 1    
   107   53  176 1    
   108   53  177 1    
   109   53  178 1    
   110   54   55 am   BACKBONE|DICT|INTERRES
   111   54  179 1    
   112   55   56 2    
   113   55   57 1    
   114   57   58 1    
   115   57   59 1    
   116   57  180 1    
   117   58  181 1    
   118   58  182 1    
   119   58  183 1    
   120   59   60 am   BACKBONE|DICT|INTERRES
   121   59  184 1    
   122   60   61 2    
   123   60   62 1    
   124   62   63 1    
   125   62   64 1    
   126   62  185 1    
   127   63  186 1    
   128   63  187 1    
   129   63  188 1    
   130   64   65 am   BACKBONE|DICT|INTERRES
   131   64  189 1    
   132   65   66 2    
   133   67   68 2    
   134   67   69 am   BACKBONE|DICT|INTERRES
   135   69   70 1    
   136   69  190 1    
   137   70   71 1    
   138   70   72 1    
   139   70  191 1    
   140   71  192 1    
   141   71  193 1    
   142   71  194 1    
   143   72   73 2    
   144   72   74 am   BACKBONE|DICT|INTERRES
   145   74   75 1    
   146   74  195 1    
   147   75   76 1    
   148   75   77 1    
   149   75  196 1    
   150   76  197 1    
   151   76  198 1    
   152   76  199 1    
   153   77   78 2    
   154   77   79 am   BACKBONE|DICT|INTERRES
   155   79   80 1    
   156   79  200 1    
   157   80   81 1    
   158   80   82 1    
   159   80  201 1    
   160   81  202 1    
   161   81  203 1    
   162   81  204 1    
   163   82   83 2    
   164   82   84 am   BACKBONE|DICT|INTERRES
   165   84   85 1    
   166   84  205 1    
   167   85   86 1    
   168   85   87 1    
   169   85  206 1    
   170   86  207 1    
   171   86  208 1    
   172   86  209 1    
   173   87   88 2    
   174   87   89 am   BACKBONE|DICT|INTERRES
   175   89   90 1    
   176   89  210 1    
   177   90   91 1    
   178   90   92 1    
   179   90  211 1    
   180   91  212 1    
   181   91  213 1    
   182   91  214 1    
   183   92   93 2    
   184   92   94 am   BACKBONE|DICT|INTERRES
   185   94   95 1    
   186   94  215 1    
   187   95   96 1    
   188   95   97 1    
   189   95  216 1    
   190   96  217 1    
   191   96  218 1    
   192   96  219 1    
   193   97   98 2    
   194   97   99 am   BACKBONE|DICT|INTERRES
   195   99  100 1    
   196   99  220 1    
   197  100  101 1    
   198  100  102 1    
   199  100  221 1    
   200  101  222 1    
   201  101  223 1    
   202  101  224 1    
   203  102  103 2    
   204  102  104 am   BACKBONE|DICT|INTERRES
   205  104  105 1    
   206  104  225 1    
   207  105  106 1    
   208  105  107 1    
   209  105  226 1    
   210  106  227 1    
   211  106  228 1    
   212  106  229 1    
   213  107  108 2    
   214  107  109 am   BACKBONE|DICT|INTERRES
   215  109  110 1    
   216  109  230 1    
   217  110  111 1    
   218  110  112 1    
   219  110  231 1    
   220  111  232 1    
   221  111  233 1    
   222  111  234 1    
   223  112  113 2    
   224  112  114 am   BACKBONE|DICT|INTERRES
   225  114  115 1    
   226  114  235 1    
   227  115  116 1    
   228  115  117 1    
   229  115  236 1    
   230  116  237 1    
   231  116  238 1    
   232  116  239 1    
   233  117  118 2    
   234  117  119 am   BACKBONE|DICT|INTERRES
   235  119  120 1    
   236  119  240 1    
   237  120  121 1    
   238  120  124 1    
   239  120  241 1    
   240  121  122 am   BACKBONE|DICT|INTERRES
   241  121  123 2    
   242  122  242 1    
   243  122  243 1    
   244  124  125 1    
   245  124  244 1    
   246  124  245 1    
   247  125  126 1    
   248  126  246 1    
   249  126  247 1    
@<TRIPOS>SUBSTRUCTURE
     1 UNK         1 GROUP             0       ****    0 ROOT    
