@<TRIPOS>MOLECULE
3R540
247   249    1
SMALL
USER_CHARGES


@<TRIPOS>ATOM
      1 CA          5.7669  -12.3686  -51.9297 C.3       0 UNK        -0.1800 
      2 C           5.4520  -12.4153  -50.4412 C.2       0 UNK         0.5000 
      3 O           5.7213  -11.4492  -49.7273 O.2       0 UNK        -0.5000 
      4 N           4.8860  -13.5353  -49.9736 N.am      1 UNK        -0.5000 
      5 CA          4.5062  -13.7640  -48.5724 C.3       1 UNK         0.1400 
      6 C6          4.2506  -15.2640  -48.2760 C.3       23 UNK        -0.0398 
      7 S7          5.7272  -16.3087  -48.5311 S.3       23 UNK        -0.2404 
      8 C8          5.4354  -17.0367  -50.1760 C.3       23 UNK        -0.0205 
      9 C9          4.3842  -18.1376  -50.1575 C.ar      23 UNK        -0.0193 
     10 C10         3.0604  -17.8547  -50.5071 C.ar      23 UNK        -0.1150 
     11 C11         2.0997  -18.8687  -50.5381 C.ar      23 UNK        -0.0193 
     12 C12         2.4744  -20.1783  -50.2248 C.ar      23 UNK        -0.1150 
     13 C13         3.7958  -20.4777  -49.8764 C.ar      23 UNK        -0.0193 
     14 C14         4.7449  -19.4514  -49.8398 C.ar      23 UNK        -0.1150 
     15 C15         4.2050  -21.9172  -49.5978 C.3       23 UNK        -0.0205 
     16 S16         4.4724  -22.2419  -47.8238 S.3       23 UNK        -0.2404 
     17 C17         4.2894  -24.0675  -47.7980 C.3       23 UNK        -0.0398 
     18 CA          2.9734  -24.5878  -47.1587 C.3       11 UNK         0.1400 
     19 N           2.9214  -24.3282  -45.7154 N.am      11 UNK        -0.5000 
     20 C           2.0208  -24.8684  -44.8817 C.2       10 UNK         0.5000 
     21 O           1.1445  -25.6568  -45.2376 O.2       10 UNK        -0.5000 
     22 CA          2.0822  -24.4187  -43.4112 C.3       10 UNK         0.1400 
     23 CB          3.1398  -25.2256  -42.6433 C.3       10 UNK        -0.1800 
     24 N           2.3414  -22.9859  -43.2379 N.am      10 UNK        -0.5000 
     25 C           1.5386  -22.0083  -43.6788 C.2       9 UNK         0.5000 
     26 O           0.5475  -22.2032  -44.3823 O.2       9 UNK        -0.5000 
     27 CA          1.9191  -20.5695  -43.2897 C.3       9 UNK         0.1400 
     28 CB          2.6160  -19.8609  -44.4625 C.3       9 UNK        -0.1800 
     29 N           0.7592  -19.7783  -42.8719 N.am      9 UNK        -0.5000 
     30 C          -0.0109  -20.0354  -41.8052 C.2       8 UNK         0.5000 
     31 O           0.1686  -20.9944  -41.0527 O.2       8 UNK        -0.5000 
     32 CA         -1.1506  -19.0501  -41.4898 C.3       8 UNK         0.1400 
     33 CB         -0.6211  -17.8879  -40.6337 C.3       8 UNK        -0.1800 
     34 N          -1.7920  -18.4930  -42.6840 N.am      8 UNK        -0.5000 
     35 C          -3.0985  -18.6047  -42.9697 C.2       7 UNK         0.5000 
     36 O          -3.8783  -19.3003  -42.3174 O.2       7 UNK        -0.5000 
     37 CA         -3.6612  -17.7808  -44.1498 C.3       7 UNK         0.1400 
     38 CB         -4.4812  -16.5900  -43.6290 C.3       7 UNK        -0.1800 
     39 N          -2.6341  -17.2688  -45.0522 N.am      7 UNK        -0.5000 
     40 C          -1.9900  -18.0044  -45.9644 C.2       6 UNK         0.5000 
     41 O          -2.2750  -19.1746  -46.2127 O.2       6 UNK        -0.5000 
     42 CA         -0.8167  -17.3278  -46.7052 C.3       6 UNK         0.1400 
     43 CB         -1.2586  -16.8703  -48.1017 C.3       6 UNK        -0.1800 
     44 N          -0.2170  -16.1986  -45.9848 N.am      6 UNK        -0.5000 
     45 C           0.3778  -16.2906  -44.7856 C.2       5 UNK         0.5000 
     46 O           0.4423  -17.3346  -44.1406 O.2       5 UNK        -0.5000 
     47 CA          0.9626  -15.0067  -44.1836 C.3       5 UNK         0.1400 
     48 CB          2.3634  -14.7499  -44.7453 C.3       5 UNK        -0.1800 
     49 N           0.1021  -13.8576  -44.4516 N.am      5 UNK        -0.5000 
     50 C          -0.9812  -13.5536  -43.7237 C.2       4 UNK         0.5000 
     51 O          -1.3238  -14.1698  -42.7142 O.2       4 UNK        -0.5000 
     52 CA         -1.8443  -12.3810  -44.2244 C.3       4 UNK         0.1400 
     53 CB         -1.2996  -11.0442  -43.6990 C.3       4 UNK        -0.1800 
     54 N          -1.9375  -12.3234  -45.6837 N.am      4 UNK        -0.5000 
     55 C          -2.5153  -13.2602  -46.4485 C.2       3 UNK         0.5000 
     56 O          -3.0512  -14.2754  -46.0035 O.2       3 UNK        -0.5000 
     57 CA         -2.4588  -13.0379  -47.9711 C.3       3 UNK         0.1400 
     58 CB         -3.6925  -12.2532  -48.4416 C.3       3 UNK        -0.1800 
     59 N          -1.2479  -12.3571  -48.4417 N.am      3 UNK        -0.5000 
     60 C           0.0092  -12.7953  -48.2839 C.2       2 UNK         0.5000 
     61 O           0.3038  -13.7999  -47.6301 O.2       2 UNK        -0.5000 
     62 CA          1.0917  -11.9606  -48.9987 C.3       2 UNK         0.1400 
     63 CB          1.2465  -10.5630  -48.3627 C.3       2 UNK        -0.1800 
     64 N           2.3807  -12.6545  -49.1154 N.am      2 UNK        -0.5000 
     65 C           3.2832  -12.9149  -48.1556 C.2       1 UNK         0.5000 
     66 O           3.2016  -12.5103  -46.9960 O.2       1 UNK        -0.5000 
     67 C           1.7207  -24.0496  -47.8840 C.2       11 UNK         0.5000 
     68 O           1.2066  -24.6907  -48.7999 O.2       11 UNK        -0.5000 
     69 N           1.2534  -22.8802  -47.4344 N.am      12 UNK        -0.5000 
     70 CA          0.1052  -22.1668  -47.9684 C.3       12 UNK         0.1400 
     71 CB          0.2117  -20.7036  -47.5294 C.3       12 UNK        -0.1800 
     72 C          -1.2117  -22.8127  -47.5139 C.2       12 UNK         0.5000 
     73 O          -2.1216  -22.9632  -48.3270 O.2       12 UNK        -0.5000 
     74 N          -1.2695  -23.2479  -46.2485 N.am      13 UNK        -0.5000 
     75 CA         -2.3722  -24.0184  -45.6771 C.3       13 UNK         0.1400 
     76 CB         -2.1446  -24.2037  -44.1697 C.3       13 UNK        -0.1800 
     77 C          -2.5612  -25.3753  -46.3792 C.2       13 UNK         0.5000 
     78 O          -3.6951  -25.7396  -46.6897 O.2       13 UNK        -0.5000 
     79 N          -1.4500  -26.0660  -46.6772 N.am      14 UNK        -0.5000 
     80 CA         -1.4261  -27.3094  -47.4536 C.3       14 UNK         0.1400 
     81 CB         -0.0149  -27.9139  -47.4078 C.3       14 UNK        -0.1800 
     82 C          -1.8916  -27.1239  -48.9123 C.2       14 UNK         0.5000 
     83 O          -2.5329  -28.0188  -49.4635 O.2       14 UNK        -0.5000 
     84 N          -1.5920  -25.9563  -49.4971 N.am      15 UNK        -0.5000 
     85 CA         -2.0423  -25.5399  -50.8276 C.3       15 UNK         0.1400 
     86 CB         -1.0738  -24.4712  -51.3622 C.3       15 UNK        -0.1800 
     87 C          -3.4940  -25.0123  -50.8495 C.2       15 UNK         0.5000 
     88 O          -4.0151  -24.7516  -51.9344 O.2       15 UNK        -0.5000 
     89 N          -4.1082  -24.8434  -49.6674 N.am      16 UNK        -0.5000 
     90 CA         -5.4263  -24.2516  -49.4145 C.3       16 UNK         0.1400 
     91 CB         -6.5520  -25.1145  -50.0206 C.3       16 UNK        -0.1800 
     92 C          -5.5098  -22.7712  -49.8415 C.2       16 UNK         0.5000 
     93 O          -6.5675  -22.3076  -50.2731 O.2       16 UNK        -0.5000 
     94 N          -4.3967  -22.0374  -49.6969 N.am      17 UNK        -0.5000 
     95 CA         -4.2233  -20.6498  -50.1336 C.3       17 UNK         0.1400 
     96 CB         -2.7620  -20.2354  -49.9417 C.3       17 UNK        -0.1800 
     97 C          -5.1522  -19.6355  -49.4441 C.2       17 UNK         0.5000 
     98 O          -5.3780  -18.5636  -50.0018 O.2       17 UNK        -0.5000 
     99 N          -5.7102  -19.9978  -48.2820 N.am      18 UNK        -0.5000 
    100 CA        -6.7528  -19.2393  -47.5897 C.3       18 UNK         0.1400 
    101 CB        -6.9962  -19.8724  -46.2113 C.3       18 UNK        -0.1800 
    102 C         -8.0725  -19.1529  -48.3882 C.2       18 UNK         0.5000 
    103 O         -8.8122  -18.1829  -48.2199 O.2       18 UNK        -0.5000 
    104 N         -8.3340  -20.1521  -49.2436 N.am      19 UNK        -0.5000 
    105 CA        -9.4819  -20.2061  -50.1481 C.3       19 UNK         0.1400 
    106 CB       -10.1593  -21.5795  -50.0155 C.3       19 UNK        -0.1800 
    107 C         -9.0529  -19.9593  -51.6046 C.2       19 UNK         0.5000 
    108 O         -9.7434  -19.2403  -52.3270 O.2       19 UNK        -0.5000 
    109 N         -7.9230  -20.5545  -52.0126 N.am      20 UNK        -0.5000 
    110 CA        -7.4006  -20.5200  -53.3814 C.3       20 UNK         0.1400 
    111 CB        -6.4936  -21.7449  -53.5889 C.3       20 UNK        -0.1800 
    112 C         -6.6484  -19.2230  -53.7430 C.2       20 UNK         0.5000 
    113 O         -6.2472  -19.0698  -54.8976 O.2       20 UNK        -0.5000 
    114 N         -6.4220  -18.3366  -52.7611 N.am      21 UNK        -0.5000 
    115 CA        -5.7101  -17.0530  -52.8632 C.3       21 UNK         0.1400 
    116 CB        -6.5066  -16.0604  -53.7354 C.3       21 UNK        -0.1800 
    117 C         -4.2392  -17.1987  -53.3155 C.2       21 UNK         0.5000 
    118 O         -3.6890  -16.2857  -53.9331 O.2       21 UNK        -0.5000 
    119 N         -3.6400  -18.3592  -53.0131 N.am      22 UNK        -0.5000 
    120 CA        -2.3168  -18.8080  -53.4803 C.3       22 UNK         0.1400 
    121 C         -2.2581  -19.1343  -55.0095 C.2       22 UNK         0.5000 
    122 N         -3.3801  -19.2717  -55.7089 N.am      22 UNK        -0.7600 
    123 O         -1.1824  -19.2967  -55.5778 O.2       22 UNK        -0.5000 
    124 C124       -1.1696  -17.8736  -52.9930 C.3       23 UNK        -0.0398 
    125 S125        0.4193  -18.7371  -52.7211 S.3       23 UNK        -0.2404 
    126 C126        0.6658  -18.5450  -50.9290 C.3       23 UNK        -0.0205 
    127 H127        5.4852  -13.2934  -52.4338 H         1 UNK         0.0600 
    128 H128        6.8345  -12.2105  -52.0823 H         1 UNK         0.0600 
    129 H129        5.2286  -11.5465  -52.4013 H         1 UNK         0.0600 
    130 H130        4.7063  -14.2973  -50.6095 H         1 UNK         0.3000 
    131 H131        5.3415  -13.4408  -47.9469 H         1 UNK         0.0600 
    132 H132        3.4121  -15.6399  -48.8612 H         1 UNK         0.0800 
    133 H133        3.9653  -15.3956  -47.2324 H         1 UNK         0.0800 
    134 H134        5.1592  -16.2571  -50.8860 H         1 UNK         0.0800 
    135 H135        6.3775  -17.4484  -50.5411 H         1 UNK         0.0800 
    136 H136        2.7770  -16.8467  -50.7741 H         1 UNK         0.1150 
    137 H137        1.7387  -20.9676  -50.2715 H         1 UNK         0.1150 
    138 H138        5.7694  -19.6796  -49.5808 H         1 UNK         0.1150 
    139 H139        3.4401  -22.5937  -49.9824 H         1 UNK         0.0800 
    140 H140        5.1194  -22.1499  -50.1453 H         1 UNK         0.0800 
    141 H141        5.1415  -24.4792  -47.2557 H         1 UNK         0.0800 
    142 H142        4.3858  -24.4588  -48.8121 H         1 UNK         0.0800 
    143 H143        2.9630  -25.6729  -47.2842 H         1 UNK         0.0600 
    144 H144        3.5986  -23.6764  -45.3471 H         1 UNK         0.3000 
    145 H145        1.1080  -24.6304  -42.9658 H         1 UNK         0.0600 
    146 H146        3.1190  -24.9909  -41.5789 H         1 UNK         0.0600 
    147 H147        2.9605  -26.2972  -42.7413 H         1 UNK         0.0600 
    148 H148        4.1467  -25.0261  -43.0122 H         1 UNK         0.0600 
    149 H149        3.1444  -22.7424  -42.6762 H         1 UNK         0.3000 
    150 H150        2.6139  -20.6068  -42.4484 H         1 UNK         0.0600 
    151 H151        3.4747  -20.4325  -44.8172 H         1 UNK         0.0600 
    152 H152        2.9802  -18.8770  -44.1660 H         1 UNK         0.0600 
    153 H153        1.9413  -19.7218  -45.3070 H         1 UNK         0.0600 
    154 H154        0.5725  -18.9417  -43.4201 H         1 UNK         0.3000 
    155 H155       -1.8775  -19.5983  -40.8872 H         1 UNK         0.0600 
    156 H156        0.1070  -17.2858  -41.1793 H         1 UNK         0.0600 
    157 H157       -0.1345  -18.2554  -39.7293 H         1 UNK         0.0600 
    158 H158       -1.4315  -17.2286  -40.3220 H         1 UNK         0.0600 
    159 H159       -1.1991  -17.9402  -43.2939 H         1 UNK         0.3000 
    160 H160       -4.3297  -18.4321  -44.7158 H         1 UNK         0.0600 
    161 H161       -3.8610  -15.8940  -43.0621 H         1 UNK         0.0600 
    162 H162       -5.2870  -16.9234  -42.9739 H         1 UNK         0.0600 
    163 H163       -4.9381  -16.0373  -44.4503 H         1 UNK         0.0600 
    164 H164       -2.3879  -16.2918  -44.9602 H         1 UNK         0.3000 
    165 H165       -0.0275  -18.0701  -46.8239 H         1 UNK         0.0600 
    166 H166       -0.4568  -16.3498  -48.6255 H         1 UNK         0.0600 
    167 H167       -1.5509  -17.7231  -48.7137 H         1 UNK         0.0600 
    168 H168       -2.1183  -16.2044  -48.0454 H         1 UNK         0.0600 
    169 H169       -0.1918  -15.3087  -46.4740 H         1 UNK         0.3000 
    170 H170        1.0535  -15.1468  -43.1041 H         1 UNK         0.0600 
    171 H171        3.0393  -15.5721  -44.5072 H         1 UNK         0.0600 
    172 H172        2.3302  -14.6534  -45.8286 H         1 UNK         0.0600 
    173 H173        2.7970  -13.8369  -44.3370 H         1 UNK         0.0600 
    174 H174        0.2909  -13.3356  -45.2968 H         1 UNK         0.3000 
    175 H175       -2.8528  -12.5195  -43.8286 H         1 UNK         0.0600 
    176 H176       -0.3014  -10.8353  -44.0858 H         1 UNK         0.0600 
    177 H177       -1.9496  -10.2154  -43.9802 H         1 UNK         0.0600 
    178 H178       -1.2353  -11.0501  -42.6100 H         1 UNK         0.0600 
    179 H179       -1.5193  -11.5252  -46.1381 H         1 UNK         0.3000 
    180 H180       -2.4856  -14.0172  -48.4489 H         1 UNK         0.0600 
    181 H181       -3.7072  -11.2422  -48.0325 H         1 UNK         0.0600 
    182 H182       -4.6131  -12.7477  -48.1282 H         1 UNK         0.0600 
    183 H183       -3.7217  -12.1770  -49.5287 H         1 UNK         0.0600 
    184 H184       -1.3998  -11.5207  -48.9868 H         1 UNK         0.3000 
    185 H185        0.7501  -11.8191  -50.0252 H         1 UNK         0.0600 
    186 H186        0.3375   -9.9733  -48.4845 H         1 UNK         0.0600 
    187 H187        1.4508  -10.6191  -47.2932 H         1 UNK         0.0600 
    188 H188        2.0570  -10.0041  -48.8306 H         1 UNK         0.0600 
    189 H189        2.5699  -13.0398  -50.0291 H         1 UNK         0.3000 
    190 H190        1.7200  -22.4527  -46.6483 H         1 UNK         0.3000 
    191 H191        0.1473  -22.2062  -49.0582 H         1 UNK         0.0600 
    192 H192        1.2094  -20.3024  -47.7061 H         1 UNK         0.0600 
    193 H193       -0.4827  -20.0786  -48.0840 H         1 UNK         0.0600 
    194 H194       -0.0079  -20.5857  -46.4682 H         1 UNK         0.0600 
    195 H195       -0.5032  -23.0156  -45.6195 H         1 UNK         0.3000 
    196 H196       -3.2875  -23.4393  -45.8158 H         1 UNK         0.0600 
    197 H197       -2.9704  -24.7512  -43.7139 H         1 UNK         0.0600 
    198 H198       -2.0710  -23.2415  -43.6619 H         1 UNK         0.0600 
    199 H199       -1.2286  -24.7588  -43.9662 H         1 UNK         0.0600 
    200 H200       -0.5549  -25.7229  -46.3426 H         1 UNK         0.3000 
    201 H201       -2.1119  -28.0127  -46.9767 H         1 UNK         0.0600 
    202 H202        0.2881  -28.1294  -46.3831 H         1 UNK         0.0600 
    203 H203        0.7257  -27.2408  -47.8405 H         1 UNK         0.0600 
    204 H204        0.0278  -28.8514  -47.9635 H         1 UNK         0.0600 
    205 H205       -1.0236  -25.2916  -48.9878 H         1 UNK         0.3000 
    206 H206       -1.9990  -26.4008  -51.4976 H         1 UNK         0.0600 
    207 H207       -0.0485  -24.8411  -51.3811 H         1 UNK         0.0600 
    208 H208       -1.3324  -24.1818  -52.3815 H         1 UNK         0.0600 
    209 H209       -1.0927  -23.5682  -50.7524 H         1 UNK         0.0600 
    210 H210       -3.5811  -25.0771  -48.8356 H         1 UNK         0.3000 
    211 H211       -5.5554  -24.2583  -48.3315 H         1 UNK         0.0600 
    212 H212       -6.5389  -25.0931  -51.1106 H         1 UNK         0.0600 
    213 H213       -7.5319  -24.7578  -49.7010 H         1 UNK         0.0600 
    214 H214       -6.4663  -26.1537  -49.7030 H         1 UNK         0.0600 
    215 H215       -3.5770  -22.4795  -49.2823 H         1 UNK         0.3000 
    216 H216       -4.4467  -20.6191  -51.2003 H         1 UNK         0.0600 
    217 H217       -2.5786  -19.2402  -50.3476 H         1 UNK         0.0600 
    218 H218       -2.0786  -20.9253  -50.4374 H         1 UNK         0.0600 
    219 H219       -2.5153  -20.2092  -48.8817 H         1 UNK         0.0600 
    220 H220       -5.4521  -20.8894  -47.8864 H         1 UNK         0.3000 
    221 H221       -6.3864  -18.2212  -47.4413 H         1 UNK         0.0600 
    222 H222       -7.3679  -20.8942  -46.2984 H         1 UNK         0.0600 
    223 H223       -6.0811  -19.8981  -45.6198 H         1 UNK         0.0600 
    224 H224       -7.7331  -19.3018  -45.6447 H         1 UNK         0.0600 
    225 H225       -7.6585  -20.9024  -49.3370 H         1 UNK         0.3000 
    226 H226      -10.2160  -19.4422  -49.8837 H         1 UNK         0.0600 
    227 H227      -10.5194  -21.7422  -48.9995 H         1 UNK         0.0600 
    228 H228      -11.0193  -21.6574  -50.6818 H         1 UNK         0.0600 
    229 H229       -9.4766  -22.3940  -50.2619 H         1 UNK         0.0600 
    230 H230       -7.4327  -21.1686  -51.3656 H         1 UNK         0.3000 
    231 H231       -8.2405  -20.6046  -54.0741 H         1 UNK         0.0600 
    232 H232       -7.0279  -22.6715  -53.3776 H         1 UNK         0.0600 
    233 H233       -5.6154  -21.7152  -52.9444 H         1 UNK         0.0600 
    234 H234       -6.1406  -21.8041  -54.6192 H         1 UNK         0.0600 
    235 H235       -6.7357  -18.5744  -51.8290 H         1 UNK         0.3000 
    236 H236       -5.6737  -16.6413  -51.8539 H         1 UNK         0.0600 
    237 H237       -6.0679  -15.0628  -53.6946 H         1 UNK         0.0600 
    238 H238       -6.5264  -16.3657  -54.7820 H         1 UNK         0.0600 
    239 H239       -7.5374  -15.9737  -53.3917 H         1 UNK         0.0600 
    240 H240       -4.1881  -19.0388  -52.5108 H         1 UNK         0.3000 
    241 H241       -2.1779  -19.7733  -52.9926 H         1 UNK         0.0600 
    242 H242       -4.2945  -19.1388  -55.2904 H         1 UNK         0.3800 
    243 H243       -3.3172  -19.4914  -56.6901 H         1 UNK         0.3800 
    244 H244       -1.4579  -17.3922  -52.0578 H         1 UNK         0.0800 
    245 H245       -1.0096  -17.0581  -53.7001 H         1 UNK         0.0800 
    246 H246       -0.0274  -19.1939  -50.3938 H         1 UNK         0.0800 
    247 H247        0.4301  -17.5220  -50.6334 H         1 UNK         0.0800 
@<TRIPOS>BOND
     1    1    2 1    
     2    1  127 1    
     3    1  128 1    
     4    1  129 1    
     5    2    3 2    
     6    2    4 am   BACKBONE|DICT|INTERRES
     7    4    5 1    
     8    4  130 1    
     9    5    6 1    
    10    5   65 1    
    11    5  131 1    
    12    6    7 1    
    13    6  132 1    
    14    6  133 1    
    15    7    8 1    
    16    8    9 1    
    17    8  134 1    
    18    8  135 1    
    19    9   10 ar   
    20    9   14 ar   
    21   10   11 ar   
    22   10  136 1    
    23   11   12 ar   
    24   11  126 1    
    25   12   13 ar   
    26   12  137 1    
    27   13   14 ar   
    28   13   15 1    
    29   14  138 1    
    30   15   16 1    
    31   15  139 1    
    32   15  140 1    
    33   16   17 1    
    34   17   18 1    
    35   17  141 1    
    36   17  142 1    
    37   18   19 1    
    38   18   67 1    
    39   18  143 1    
    40   19   20 am   BACKBONE|DICT|INTERRES
    41   19  144 1    
    42   20   21 2    
    43   20   22 1    
    44   22   23 1    
    45   22   24 1    
    46   22  145 1    
    47   23  146 1    
    48   23  147 1    
    49   23  148 1    
    50   24   25 am   BACKBONE|DICT|INTERRES
    51   24  149 1    
    52   25   26 2    
    53   25   27 1    
    54   27   28 1    
    55   27   29 1    
    56   27  150 1    
    57   28  151 1    
    58   28  152 1    
    59   28  153 1    
    60   29   30 am   BACKBONE|DICT|INTERRES
    61   29  154 1    
    62   30   31 2    
    63   30   32 1    
    64   32   33 1    
    65   32   34 1    
    66   32  155 1    
    67   33  156 1    
    68   33  157 1    
    69   33  158 1    
    70   34   35 am   BACKBONE|DICT|INTERRES
    71   34  159 1    
    72   35   36 2    
    73   35   37 1    
    74   37   38 1    
    75   37   39 1    
    76   37  160 1    
    77   38  161 1    
    78   38  162 1    
    79   38  163 1    
    80   39   40 am   BACKBONE|DICT|INTERRES
    81   39  164 1    
    82   40   41 2    
    83   40   42 1    
    84   42   43 1    
    85   42   44 1    
    86   42  165 1    
    87   43  166 1    
    88   43  167 1    
    89   43  168 1    
    90   44   45 am   BACKBONE|DICT|INTERRES
    91   44  169 1    
    92   45   46 2    
    93   45   47 1    
    94   47   48 1    
    95   47   49 1    
    96   47  170 1    
    97   48  171 1    
    98   48  172 1    
    99   48  173 1    
   100   49   50 am   BACKBONE|DICT|INTERRES
   101   49  174 1    
   102   50   51 2    
   103   50   52 1    
   104   52   53 1    
   105   52   54 1    
   106   52  175 1    
   107   53  176 1    
   108   53  177 1    
   109   53  178 1    
   110   54   55 am   BACKBONE|DICT|INTERRES
   111   54  179 1    
   112   55   56 2    
   113   55   57 1    
   114   57   58 1    
   115   57   59 1    
   116   57  180 1    
   117   58  181 1    
   118   58  182 1    
   119   58  183 1    
   120   59   60 am   BACKBONE|DICT|INTERRES
   121   59  184 1    
   122   60   61 2    
   123   60   62 1    
   124   62   63 1    
   125   62   64 1    
   126   62  185 1    
   127   63  186 1    
   128   63  187 1    
   129   63  188 1    
   130   64   65 am   BACKBONE|DICT|INTERRES
   131   64  189 1    
   132   65   66 2    
   133   67   68 2    
   134   67   69 am   BACKBONE|DICT|INTERRES
   135   69   70 1    
   136   69  190 1    
   137   70   71 1    
   138   70   72 1    
   139   70  191 1    
   140   71  192 1    
   141   71  193 1    
   142   71  194 1    
   143   72   73 2    
   144   72   74 am   BACKBONE|DICT|INTERRES
   145   74   75 1    
   146   74  195 1    
   147   75   76 1    
   148   75   77 1    
   149   75  196 1    
   150   76  197 1    
   151   76  198 1    
   152   76  199 1    
   153   77   78 2    
   154   77   79 am   BACKBONE|DICT|INTERRES
   155   79   80 1    
   156   79  200 1    
   157   80   81 1    
   158   80   82 1    
   159   80  201 1    
   160   81  202 1    
   161   81  203 1    
   162   81  204 1    
   163   82   83 2    
   164   82   84 am   BACKBONE|DICT|INTERRES
   165   84   85 1    
   166   84  205 1    
   167   85   86 1    
   168   85   87 1    
   169   85  206 1    
   170   86  207 1    
   171   86  208 1    
   172   86  209 1    
   173   87   88 2    
   174   87   89 am   BACKBONE|DICT|INTERRES
   175   89   90 1    
   176   89  210 1    
   177   90   91 1    
   178   90   92 1    
   179   90  211 1    
   180   91  212 1    
   181   91  213 1    
   182   91  214 1    
   183   92   93 2    
   184   92   94 am   BACKBONE|DICT|INTERRES
   185   94   95 1    
   186   94  215 1    
   187   95   96 1    
   188   95   97 1    
   189   95  216 1    
   190   96  217 1    
   191   96  218 1    
   192   96  219 1    
   193   97   98 2    
   194   97   99 am   BACKBONE|DICT|INTERRES
   195   99  100 1    
   196   99  220 1    
   197  100  101 1    
   198  100  102 1    
   199  100  221 1    
   200  101  222 1    
   201  101  223 1    
   202  101  224 1    
   203  102  103 2    
   204  102  104 am   BACKBONE|DICT|INTERRES
   205  104  105 1    
   206  104  225 1    
   207  105  106 1    
   208  105  107 1    
   209  105  226 1    
   210  106  227 1    
   211  106  228 1    
   212  106  229 1    
   213  107  108 2    
   214  107  109 am   BACKBONE|DICT|INTERRES
   215  109  110 1    
   216  109  230 1    
   217  110  111 1    
   218  110  112 1    
   219  110  231 1    
   220  111  232 1    
   221  111  233 1    
   222  111  234 1    
   223  112  113 2    
   224  112  114 am   BACKBONE|DICT|INTERRES
   225  114  115 1    
   226  114  235 1    
   227  115  116 1    
   228  115  117 1    
   229  115  236 1    
   230  116  237 1    
   231  116  238 1    
   232  116  239 1    
   233  117  118 2    
   234  117  119 am   BACKBONE|DICT|INTERRES
   235  119  120 1    
   236  119  240 1    
   237  120  121 1    
   238  120  124 1    
   239  120  241 1    
   240  121  122 am   BACKBONE|DICT|INTERRES
   241  121  123 2    
   242  122  242 1    
   243  122  243 1    
   244  124  125 1    
   245  124  244 1    
   246  124  245 1    
   247  125  126 1    
   248  126  246 1    
   249  126  247 1    
@<TRIPOS>SUBSTRUCTURE
     1 UNK         1 GROUP             0       ****    0 ROOT    
