@<TRIPOS>MOLECULE
3R540
247   249    1
SMALL
USER_CHARGES


@<TRIPOS>ATOM
      1 CA          5.7196  -14.4894  -52.4494 C.3       0 UNK        -0.1800 
      2 C           5.8212  -15.9867  -52.1975 C.2       0 UNK         0.5000 
      3 O           6.9145  -16.4975  -51.9531 O.2       0 UNK        -0.5000 
      4 N           4.6848  -16.6916  -52.2328 N.am      1 UNK        -0.5000 
      5 CA          4.5302  -18.1364  -52.0091 C.3       1 UNK         0.1400 
      6 C6          3.2465  -18.6762  -52.7054 C.3       23 UNK        -0.0398 
      7 S7          1.7225  -17.7264  -52.3331 S.3       23 UNK        -0.2404 
      8 C8          0.7297  -18.9318  -51.3970 C.3       23 UNK        -0.0205 
      9 C9         -0.0547  -18.2488  -50.2906 C.ar      23 UNK        -0.0193 
     10 C10        -1.3989  -17.9032  -50.4678 C.ar      23 UNK        -0.1150 
     11 C11        -2.1081  -17.2788  -49.4356 C.ar      23 UNK        -0.0193 
     12 C12        -1.4610  -16.9953  -48.2296 C.ar      23 UNK        -0.1150 
     13 C13        -0.1197  -17.3366  -48.0447 C.ar      23 UNK        -0.0193 
     14 C14         0.5764  -17.9670  -49.0762 C.ar      23 UNK        -0.1150 
     15 C15         0.5853  -16.9881  -46.7470 C.3       23 UNK        -0.0205 
     16 S16         0.2249  -18.1638  -45.4159 S.3       23 UNK        -0.2404 
     17 C17         1.3903  -19.5292  -45.7245 C.3       23 UNK        -0.0398 
     18 CA          0.7289  -20.9272  -45.7852 C.3       11 UNK         0.1400 
     19 N          -0.2504  -21.1674  -44.7186 N.am      11 UNK        -0.5000 
     20 C          -0.7261  -22.3787  -44.4005 C.2       10 UNK         0.5000 
     21 O          -0.3637  -23.4197  -44.9481 O.2       10 UNK        -0.5000 
     22 CA         -1.8185  -22.4364  -43.3245 C.3       10 UNK         0.1400 
     23 CB         -1.2189  -22.2753  -41.9190 C.3       10 UNK        -0.1800 
     24 N          -2.8539  -21.4287  -43.5451 N.am      10 UNK        -0.5000 
     25 C          -3.7909  -21.5086  -44.4999 C.2       9 UNK         0.5000 
     26 O          -3.8410  -22.4157  -45.3303 O.2       9 UNK        -0.5000 
     27 CA         -4.8509  -20.3917  -44.5409 C.3       9 UNK         0.1400 
     28 CB         -6.0581  -20.7587  -43.6658 C.3       9 UNK        -0.1800 
     29 N          -4.3334  -19.0866  -44.1296 N.am      9 UNK        -0.5000 
     30 C          -3.4843  -18.3696  -44.8753 C.2       8 UNK         0.5000 
     31 O          -3.0675  -18.7450  -45.9685 O.2       8 UNK        -0.5000 
     32 CA         -3.0140  -17.0168  -44.3080 C.3       8 UNK         0.1400 
     33 CB         -4.0661  -15.9355  -44.5988 C.3       8 UNK        -0.1800 
     34 N          -2.6707  -16.9950  -42.8791 N.am      8 UNK        -0.5000 
     35 C          -1.9282  -17.8888  -42.2040 C.2       7 UNK         0.5000 
     36 O          -1.5437  -18.9630  -42.6681 O.2       7 UNK        -0.5000 
     37 CA         -1.5409  -17.4920  -40.7686 C.3       7 UNK         0.1400 
     38 CB         -0.5533  -18.4773  -40.1169 C.3       7 UNK        -0.1800 
     39 N          -0.9414  -16.1610  -40.7920 N.am      7 UNK        -0.5000 
     40 C          -1.2893  -15.1293  -40.0114 C.2       6 UNK         0.5000 
     41 O          -2.1329  -15.2042  -39.1172 O.2       6 UNK        -0.5000 
     42 CA         -0.5972  -13.7741  -40.2823 C.3       6 UNK         0.1400 
     43 CB          0.5645  -13.5595  -39.3002 C.3       6 UNK        -0.1800 
     44 N          -0.0898  -13.6410  -41.6502 N.am      6 UNK        -0.5000 
     45 C          -0.8483  -13.6440  -42.7545 C.2       5 UNK         0.5000 
     46 O          -2.0784  -13.6054  -42.7259 O.2       5 UNK        -0.5000 
     47 CA         -0.1322  -13.7520  -44.1177 C.3       5 UNK         0.1400 
     48 CB         -0.2405  -12.4308  -44.8934 C.3       5 UNK        -0.1800 
     49 N           1.2790  -14.1584  -44.0824 N.am      5 UNK        -0.5000 
     50 C           1.7862  -15.2834  -43.5598 C.2       4 UNK         0.5000 
     51 O           1.1229  -16.0801  -42.8940 O.2       4 UNK        -0.5000 
     52 CA          3.2811  -15.5522  -43.8448 C.3       4 UNK         0.1400 
     53 CB          3.7824  -16.8462  -43.1798 C.3       4 UNK        -0.1800 
     54 N           3.5520  -15.6353  -45.2819 N.am      4 UNK        -0.5000 
     55 C           3.6390  -14.6151  -46.1418 C.2       3 UNK         0.5000 
     56 O           3.5640  -13.4386  -45.7812 O.2       3 UNK        -0.5000 
     57 CA          3.7881  -14.9605  -47.6459 C.3       3 UNK         0.1400 
     58 CB          4.0256  -13.7110  -48.5139 C.3       3 UNK        -0.1800 
     59 N           4.8182  -15.9495  -47.9847 N.am      3 UNK        -0.5000 
     60 C           4.8630  -17.2502  -47.6618 C.2       2 UNK         0.5000 
     61 O           4.0792  -17.8009  -46.8887 O.2       2 UNK        -0.5000 
     62 CA          5.9425  -18.0690  -48.3962 C.3       2 UNK         0.1400 
     63 CB          6.0792  -19.5142  -47.8709 C.3       2 UNK        -0.1800 
     64 N           5.7032  -18.0398  -49.8447 N.am      2 UNK        -0.5000 
     65 C           4.6367  -18.5140  -50.5090 C.2       1 UNK         0.5000 
     66 O           3.7633  -19.2022  -49.9838 O.2       1 UNK        -0.5000 
     67 C           0.1587  -21.2492  -47.1791 C.2       11 UNK         0.5000 
     68 O           0.8661  -21.8475  -47.9896 O.2       11 UNK        -0.5000 
     69 N          -1.1205  -20.9226  -47.4133 N.am      12 UNK        -0.5000 
     70 CA         -1.8243  -21.2600  -48.6487 C.3       12 UNK         0.1400 
     71 CB         -3.1860  -20.5636  -48.6738 C.3       12 UNK        -0.1800 
     72 C          -1.9999  -22.7764  -48.8376 C.2       12 UNK         0.5000 
     73 O          -1.8590  -23.2658  -49.9592 O.2       12 UNK        -0.5000 
     74 N          -2.2901  -23.4962  -47.7445 N.am      13 UNK        -0.5000 
     75 CA         -2.3768  -24.9554  -47.7213 C.3       13 UNK         0.1400 
     76 CB         -3.0166  -25.4222  -46.4058 C.3       13 UNK        -0.1800 
     77 C          -1.0071  -25.6220  -47.9366 C.2       13 UNK         0.5000 
     78 O          -0.9141  -26.5584  -48.7296 O.2       13 UNK        -0.5000 
     79 N           0.0353  -25.1061  -47.2684 N.am      14 UNK        -0.5000 
     80 CA          1.4208  -25.5705  -47.3906 C.3       14 UNK         0.1400 
     81 CB          2.2957  -24.8622  -46.3458 C.3       14 UNK        -0.1800 
     82 C           2.0019  -25.3789  -48.8044 C.2       14 UNK         0.5000 
     83 O           2.7182  -26.2539  -49.2918 O.2       14 UNK        -0.5000 
     84 N           1.6500  -24.2596  -49.4506 N.am      15 UNK        -0.5000 
     85 CA          1.9887  -23.9518  -50.8415 C.3       15 UNK         0.1400 
     86 CB          1.8073  -22.4429  -51.0650 C.3       15 UNK        -0.1800 
     87 C           1.1559  -24.7436  -51.8718 C.2       15 UNK         0.5000 
     88 O           1.4815  -24.7005  -53.0586 O.2       15 UNK        -0.5000 
     89 N           0.0900  -25.4195  -51.4138 N.am      16 UNK        -0.5000 
     90 CA         -0.9188  -26.1447  -52.1955 C.3       16 UNK         0.1400 
     91 CB         -0.2936  -27.3438  -52.9381 C.3       16 UNK        -0.1800 
     92 C          -1.7488  -25.2254  -53.1187 C.2       16 UNK         0.5000 
     93 O          -2.2763  -25.6811  -54.1349 O.2       16 UNK        -0.5000 
     94 N          -1.8598  -23.9471  -52.7380 N.am      17 UNK        -0.5000 
     95 CA         -2.6556  -22.9292  -53.4185 C.3       17 UNK         0.1400 
     96 CB         -2.0152  -21.5543  -53.1630 C.3       17 UNK        -0.1800 
     97 C          -4.1161  -22.9384  -52.9341 C.2       17 UNK         0.5000 
     98 O          -5.0121  -22.6475  -53.7270 O.2       17 UNK        -0.5000 
     99 N          -4.3064  -23.2761  -51.6472 N.am      18 UNK        -0.5000 
    100 CA        -5.5336  -23.2003  -50.8447 C.3       18 UNK         0.1400 
    101 CB        -6.6932  -23.9889  -51.4834 C.3       18 UNK        -0.1800 
    102 C         -5.9413  -21.7465  -50.5361 C.2       18 UNK         0.5000 
    103 O         -5.6111  -20.8273  -51.2869 O.2       18 UNK        -0.5000 
    104 N         -6.6486  -21.5517  -49.4135 N.am      19 UNK        -0.5000 
    105 CA        -7.0090  -20.2373  -48.8587 C.3       19 UNK         0.1400 
    106 CB        -7.7694  -20.4410  -47.5399 C.3       19 UNK        -0.1800 
    107 C         -7.8131  -19.3325  -49.8151 C.2       19 UNK         0.5000 
    108 O         -7.7083  -18.1081  -49.7286 O.2       19 UNK        -0.5000 
    109 N         -8.5491  -19.9564  -50.7461 N.am      20 UNK        -0.5000 
    110 CA        -9.2815  -19.3178  -51.8398 C.3       20 UNK         0.1400 
    111 CB       -10.0402  -20.3988  -52.6242 C.3       20 UNK        -0.1800 
    112 C         -8.4012  -18.4822  -52.7926 C.2       20 UNK         0.5000 
    113 O         -8.9161  -17.5479  -53.4084 O.2       20 UNK        -0.5000 
    114 N         -7.0938  -18.7816  -52.8691 N.am      21 UNK        -0.5000 
    115 CA        -6.1051  -18.0198  -53.6409 C.3       21 UNK         0.1400 
    116 CB        -4.7588  -18.7594  -53.6132 C.3       21 UNK        -0.1800 
    117 C         -5.9273  -16.5656  -53.1564 C.2       21 UNK         0.5000 
    118 O         -5.5281  -15.7116  -53.9491 O.2       21 UNK        -0.5000 
    119 N         -6.2518  -16.3112  -51.8830 N.am      22 UNK        -0.5000 
    120 CA        -6.3025  -14.9786  -51.2652 C.3       22 UNK         0.1400 
    121 C         -7.7479  -14.3990  -51.1904 C.2       22 UNK         0.5000 
    122 N         -8.7562  -15.0097  -51.8035 N.am      22 UNK        -0.7600 
    123 O         -7.9631  -13.3540  -50.5821 O.2       22 UNK        -0.5000 
    124 C124       -5.6010  -14.9803  -49.8824 C.3       23 UNK        -0.0398 
    125 S125       -3.7925  -15.1802  -50.0291 S.3       23 UNK        -0.2404 
    126 C126       -3.5800  -16.9322  -49.5977 C.3       23 UNK        -0.0205 
    127 H127        6.3218  -14.2129  -53.3148 H         1 UNK         0.0600 
    128 H128        4.6914  -14.1788  -52.6367 H         1 UNK         0.0600 
    129 H129        6.0888  -13.9377  -51.5848 H         1 UNK         0.0600 
    130 H130        3.8143  -16.2082  -52.4070 H         1 UNK         0.3000 
    131 H131        5.3743  -18.6343  -52.4908 H         1 UNK         0.0600 
    132 H132        3.1008  -19.7362  -52.4920 H         1 UNK         0.0800 
    133 H133        3.3902  -18.6262  -53.7854 H         1 UNK         0.0800 
    134 H134        1.3736  -19.6860  -50.9472 H         1 UNK         0.0800 
    135 H135        0.0621  -19.4613  -52.0779 H         1 UNK         0.0800 
    136 H136       -1.8930  -18.1240  -51.4035 H         1 UNK         0.1150 
    137 H137       -2.0059  -16.5140  -47.4301 H         1 UNK         0.1150 
    138 H138        1.6155  -18.2303  -48.9384 H         1 UNK         0.1150 
    139 H139        1.6598  -16.9501  -46.8968 H         1 UNK         0.0800 
    140 H140        0.2834  -15.9902  -46.4286 H         1 UNK         0.0800 
    141 H141        2.1161  -19.5143  -44.9110 H         1 UNK         0.0800 
    142 H142        1.9675  -19.3367  -46.6302 H         1 UNK         0.0800 
    143 H143        1.5357  -21.6458  -45.6264 H         1 UNK         0.0600 
    144 H144       -0.6089  -20.3493  -44.2379 H         1 UNK         0.3000 
    145 H145       -2.2860  -23.4222  -43.3760 H         1 UNK         0.0600 
    146 H146       -1.9907  -22.3305  -41.1513 H         1 UNK         0.0600 
    147 H147       -0.4975  -23.0669  -41.7132 H         1 UNK         0.0600 
    148 H148       -0.6988  -21.3242  -41.8044 H         1 UNK         0.0600 
    149 H149       -2.7901  -20.5852  -42.9873 H         1 UNK         0.3000 
    150 H150       -5.1963  -20.3099  -45.5737 H         1 UNK         0.0600 
    151 H151       -6.4788  -21.7197  -43.9653 H         1 UNK         0.0600 
    152 H152       -6.8511  -20.0162  -43.7569 H         1 UNK         0.0600 
    153 H153       -5.7847  -20.8332  -42.6126 H         1 UNK         0.0600 
    154 H154       -4.6273  -18.7263  -43.2339 H         1 UNK         0.3000 
    155 H155       -2.1117  -16.7354  -44.8489 H         1 UNK         0.0600 
    156 H156       -4.9778  -16.0957  -44.0222 H         1 UNK         0.0600 
    157 H157       -4.3410  -15.9304  -45.6548 H         1 UNK         0.0600 
    158 H158       -3.6900  -14.9408  -44.3630 H         1 UNK         0.0600 
    159 H159       -2.9150  -16.1435  -42.3933 H         1 UNK         0.3000 
    160 H160       -2.4626  -17.4904  -40.1836 H         1 UNK         0.0600 
    161 H161       -0.3009  -18.1681  -39.1026 H         1 UNK         0.0600 
    162 H162        0.3744  -18.5486  -40.6865 H         1 UNK         0.0600 
    163 H163       -0.9820  -19.4780  -40.0541 H         1 UNK         0.0600 
    164 H164       -0.2410  -16.0177  -41.5169 H         1 UNK         0.3000 
    165 H165       -1.3370  -12.9878  -40.1190 H         1 UNK         0.0600 
    166 H166        1.0160  -12.5759  -39.4308 H         1 UNK         0.0600 
    167 H167        0.2197  -13.6229  -38.2672 H         1 UNK         0.0600 
    168 H168        1.3456  -14.3094  -39.4322 H         1 UNK         0.0600 
    169 H169        0.9114  -13.6840  -41.7676 H         1 UNK         0.3000 
    170 H170       -0.6674  -14.5182  -44.6815 H         1 UNK         0.0600 
    171 H171       -1.2795  -12.1106  -44.9837 H         1 UNK         0.0600 
    172 H172        0.3090  -11.6298  -44.3974 H         1 UNK         0.0600 
    173 H173        0.1542  -12.5332  -45.9046 H         1 UNK         0.0600 
    174 H174        1.9217  -13.5769  -44.6106 H         1 UNK         0.3000 
    175 H175        3.8487  -14.7187  -43.4265 H         1 UNK         0.0600 
    176 H176        3.2548  -17.7219  -43.5598 H         1 UNK         0.0600 
    177 H177        4.8476  -16.9942  -43.3580 H         1 UNK         0.0600 
    178 H178        3.6347  -16.8153  -42.0996 H         1 UNK         0.0600 
    179 H179        3.6314  -16.5723  -45.6737 H         1 UNK         0.3000 
    180 H180        2.8315  -15.3762  -47.9626 H         1 UNK         0.0600 
    181 H181        4.9733  -13.2286  -48.2717 H         1 UNK         0.0600 
    182 H182        3.2342  -12.9739  -48.3709 H         1 UNK         0.0600 
    183 H183        4.0374  -13.9625  -49.5748 H         1 UNK         0.0600 
    184 H184        5.5339  -15.6116  -48.6106 H         1 UNK         0.3000 
    185 H185        6.8956  -17.5667  -48.2243 H         1 UNK         0.0600 
    186 H186        6.3601  -19.5158  -46.8172 H         1 UNK         0.0600 
    187 H187        5.1487  -20.0759  -47.9566 H         1 UNK         0.0600 
    188 H188        6.8505  -20.0592  -48.4146 H         1 UNK         0.0600 
    189 H189        6.3620  -17.4924  -50.3919 H         1 UNK         0.3000 
    190 H190       -1.6336  -20.3890  -46.7216 H         1 UNK         0.3000 
    191 H191       -1.2295  -20.8795  -49.4815 H         1 UNK         0.0600 
    192 H192       -3.5818  -20.5645  -49.6862 H         1 UNK         0.0600 
    193 H193       -3.9100  -21.0439  -48.0142 H         1 UNK         0.0600 
    194 H194       -3.1077  -19.5236  -48.3730 H         1 UNK         0.0600 
    195 H195       -2.4449  -23.0185  -46.8642 H         1 UNK         0.3000 
    196 H196       -3.0293  -25.2673  -48.5398 H         1 UNK         0.0600 
    197 H197       -3.0874  -26.5100  -46.3696 H         1 UNK         0.0600 
    198 H198       -4.0271  -25.0276  -46.2993 H         1 UNK         0.0600 
    199 H199       -2.4400  -25.1009  -45.5381 H         1 UNK         0.0600 
    200 H200       -0.1347  -24.3634  -46.5949 H         1 UNK         0.3000 
    201 H201        1.4304  -26.6402  -47.1719 H         1 UNK         0.0600 
    202 H202        1.9319  -25.0472  -45.3350 H         1 UNK         0.0600 
    203 H203        2.3149  -23.7839  -46.5035 H         1 UNK         0.0600 
    204 H204        3.3253  -25.2192  -46.3915 H         1 UNK         0.0600 
    205 H205        1.1248  -23.5497  -48.9474 H         1 UNK         0.3000 
    206 H206        3.0390  -24.1993  -51.0079 H         1 UNK         0.0600 
    207 H207        2.4403  -21.8664  -50.3895 H         1 UNK         0.0600 
    208 H208        2.0757  -22.1578  -52.0829 H         1 UNK         0.0600 
    209 H209        0.7735  -22.1368  -50.8988 H         1 UNK         0.0600 
    210 H210       -0.0802  -25.4022  -50.4160 H         1 UNK         0.3000 
    211 H211       -1.6249  -26.5460  -51.4675 H         1 UNK         0.0600 
    212 H212        0.3653  -27.0242  -53.7456 H         1 UNK         0.0600 
    213 H213       -1.0654  -27.9756  -53.3790 H         1 UNK         0.0600 
    214 H214        0.2858  -27.9687  -52.2583 H         1 UNK         0.0600 
    215 H215       -1.4557  -23.6809  -51.8460 H         1 UNK         0.3000 
    216 H216       -2.6480  -23.1182  -54.4941 H         1 UNK         0.0600 
    217 H217       -2.5488  -20.7703  -53.7006 H         1 UNK         0.0600 
    218 H218       -0.9791  -21.5327  -53.5014 H         1 UNK         0.0600 
    219 H219       -2.0275  -21.2919  -52.1041 H         1 UNK         0.0600 
    220 H220       -3.4655  -23.4605  -51.1107 H         1 UNK         0.3000 
    221 H221       -5.2865  -23.6768  -49.8946 H         1 UNK         0.0600 
    222 H222       -7.0713  -23.5052  -52.3844 H         1 UNK         0.0600 
    223 H223       -6.3844  -25.0001  -51.7486 H         1 UNK         0.0600 
    224 H224       -7.5311  -24.0768  -50.7912 H         1 UNK         0.0600 
    225 H225       -6.9025  -22.3523  -48.8529 H         1 UNK         0.3000 
    226 H226       -6.0776  -19.7133  -48.6349 H         1 UNK         0.0600 
    227 H227       -8.7137  -20.9634  -47.6980 H         1 UNK         0.0600 
    228 H228       -7.1816  -21.0202  -46.8280 H         1 UNK         0.0600 
    229 H229       -7.9977  -19.4840  -47.0687 H         1 UNK         0.0600 
    230 H230       -8.5512  -20.9653  -50.7376 H         1 UNK         0.3000 
    231 H231      -10.0113  -18.6392  -51.3938 H         1 UNK         0.0600 
    232 H232      -10.7368  -20.9380  -51.9820 H         1 UNK         0.0600 
    233 H233       -9.3582  -21.1260  -53.0673 H         1 UNK         0.0600 
    234 H234      -10.6226  -19.9583  -53.4347 H         1 UNK         0.0600 
    235 H235       -6.7283  -19.5537  -52.3182 H         1 UNK         0.3000 
    236 H236       -6.4519  -17.9809  -54.6754 H         1 UNK         0.0600 
    237 H237       -4.8612  -19.7758  -53.9936 H         1 UNK         0.0600 
    238 H238       -4.0192  -18.2517  -54.2334 H         1 UNK         0.0600 
    239 H239       -4.3530  -18.8196  -52.6027 H         1 UNK         0.0600 
    240 H240       -6.6095  -17.0673  -51.3117 H         1 UNK         0.3000 
    241 H241       -5.7621  -14.2711  -51.8965 H         1 UNK         0.0600 
    242 H242       -9.6781  -14.6069  -51.7466 H         1 UNK         0.3800 
    243 H243       -8.6152  -15.8520  -52.3487 H         1 UNK         0.3800 
    244 H244       -5.7632  -14.0344  -49.3632 H         1 UNK         0.0800 
    245 H245       -6.0205  -15.7531  -49.2361 H         1 UNK         0.0800 
    246 H246       -4.1059  -17.1485  -48.6661 H         1 UNK         0.0800 
    247 H247       -4.0391  -17.5573  -50.3650 H         1 UNK         0.0800 
@<TRIPOS>BOND
     1    1    2 1    
     2    1  127 1    
     3    1  128 1    
     4    1  129 1    
     5    2    3 2    
     6    2    4 am   BACKBONE|DICT|INTERRES
     7    4    5 1    
     8    4  130 1    
     9    5    6 1    
    10    5   65 1    
    11    5  131 1    
    12    6    7 1    
    13    6  132 1    
    14    6  133 1    
    15    7    8 1    
    16    8    9 1    
    17    8  134 1    
    18    8  135 1    
    19    9   10 ar   
    20    9   14 ar   
    21   10   11 ar   
    22   10  136 1    
    23   11   12 ar   
    24   11  126 1    
    25   12   13 ar   
    26   12  137 1    
    27   13   14 ar   
    28   13   15 1    
    29   14  138 1    
    30   15   16 1    
    31   15  139 1    
    32   15  140 1    
    33   16   17 1    
    34   17   18 1    
    35   17  141 1    
    36   17  142 1    
    37   18   19 1    
    38   18   67 1    
    39   18  143 1    
    40   19   20 am   BACKBONE|DICT|INTERRES
    41   19  144 1    
    42   20   21 2    
    43   20   22 1    
    44   22   23 1    
    45   22   24 1    
    46   22  145 1    
    47   23  146 1    
    48   23  147 1    
    49   23  148 1    
    50   24   25 am   BACKBONE|DICT|INTERRES
    51   24  149 1    
    52   25   26 2    
    53   25   27 1    
    54   27   28 1    
    55   27   29 1    
    56   27  150 1    
    57   28  151 1    
    58   28  152 1    
    59   28  153 1    
    60   29   30 am   BACKBONE|DICT|INTERRES
    61   29  154 1    
    62   30   31 2    
    63   30   32 1    
    64   32   33 1    
    65   32   34 1    
    66   32  155 1    
    67   33  156 1    
    68   33  157 1    
    69   33  158 1    
    70   34   35 am   BACKBONE|DICT|INTERRES
    71   34  159 1    
    72   35   36 2    
    73   35   37 1    
    74   37   38 1    
    75   37   39 1    
    76   37  160 1    
    77   38  161 1    
    78   38  162 1    
    79   38  163 1    
    80   39   40 am   BACKBONE|DICT|INTERRES
    81   39  164 1    
    82   40   41 2    
    83   40   42 1    
    84   42   43 1    
    85   42   44 1    
    86   42  165 1    
    87   43  166 1    
    88   43  167 1    
    89   43  168 1    
    90   44   45 am   BACKBONE|DICT|INTERRES
    91   44  169 1    
    92   45   46 2    
    93   45   47 1    
    94   47   48 1    
    95   47   49 1    
    96   47  170 1    
    97   48  171 1    
    98   48  172 1    
    99   48  173 1    
   100   49   50 am   BACKBONE|DICT|INTERRES
   101   49  174 1    
   102   50   51 2    
   103   50   52 1    
   104   52   53 1    
   105   52   54 1    
   106   52  175 1    
   107   53  176 1    
   108   53  177 1    
   109   53  178 1    
   110   54   55 am   BACKBONE|DICT|INTERRES
   111   54  179 1    
   112   55   56 2    
   113   55   57 1    
   114   57   58 1    
   115   57   59 1    
   116   57  180 1    
   117   58  181 1    
   118   58  182 1    
   119   58  183 1    
   120   59   60 am   BACKBONE|DICT|INTERRES
   121   59  184 1    
   122   60   61 2    
   123   60   62 1    
   124   62   63 1    
   125   62   64 1    
   126   62  185 1    
   127   63  186 1    
   128   63  187 1    
   129   63  188 1    
   130   64   65 am   BACKBONE|DICT|INTERRES
   131   64  189 1    
   132   65   66 2    
   133   67   68 2    
   134   67   69 am   BACKBONE|DICT|INTERRES
   135   69   70 1    
   136   69  190 1    
   137   70   71 1    
   138   70   72 1    
   139   70  191 1    
   140   71  192 1    
   141   71  193 1    
   142   71  194 1    
   143   72   73 2    
   144   72   74 am   BACKBONE|DICT|INTERRES
   145   74   75 1    
   146   74  195 1    
   147   75   76 1    
   148   75   77 1    
   149   75  196 1    
   150   76  197 1    
   151   76  198 1    
   152   76  199 1    
   153   77   78 2    
   154   77   79 am   BACKBONE|DICT|INTERRES
   155   79   80 1    
   156   79  200 1    
   157   80   81 1    
   158   80   82 1    
   159   80  201 1    
   160   81  202 1    
   161   81  203 1    
   162   81  204 1    
   163   82   83 2    
   164   82   84 am   BACKBONE|DICT|INTERRES
   165   84   85 1    
   166   84  205 1    
   167   85   86 1    
   168   85   87 1    
   169   85  206 1    
   170   86  207 1    
   171   86  208 1    
   172   86  209 1    
   173   87   88 2    
   174   87   89 am   BACKBONE|DICT|INTERRES
   175   89   90 1    
   176   89  210 1    
   177   90   91 1    
   178   90   92 1    
   179   90  211 1    
   180   91  212 1    
   181   91  213 1    
   182   91  214 1    
   183   92   93 2    
   184   92   94 am   BACKBONE|DICT|INTERRES
   185   94   95 1    
   186   94  215 1    
   187   95   96 1    
   188   95   97 1    
   189   95  216 1    
   190   96  217 1    
   191   96  218 1    
   192   96  219 1    
   193   97   98 2    
   194   97   99 am   BACKBONE|DICT|INTERRES
   195   99  100 1    
   196   99  220 1    
   197  100  101 1    
   198  100  102 1    
   199  100  221 1    
   200  101  222 1    
   201  101  223 1    
   202  101  224 1    
   203  102  103 2    
   204  102  104 am   BACKBONE|DICT|INTERRES
   205  104  105 1    
   206  104  225 1    
   207  105  106 1    
   208  105  107 1    
   209  105  226 1    
   210  106  227 1    
   211  106  228 1    
   212  106  229 1    
   213  107  108 2    
   214  107  109 am   BACKBONE|DICT|INTERRES
   215  109  110 1    
   216  109  230 1    
   217  110  111 1    
   218  110  112 1    
   219  110  231 1    
   220  111  232 1    
   221  111  233 1    
   222  111  234 1    
   223  112  113 2    
   224  112  114 am   BACKBONE|DICT|INTERRES
   225  114  115 1    
   226  114  235 1    
   227  115  116 1    
   228  115  117 1    
   229  115  236 1    
   230  116  237 1    
   231  116  238 1    
   232  116  239 1    
   233  117  118 2    
   234  117  119 am   BACKBONE|DICT|INTERRES
   235  119  120 1    
   236  119  240 1    
   237  120  121 1    
   238  120  124 1    
   239  120  241 1    
   240  121  122 am   BACKBONE|DICT|INTERRES
   241  121  123 2    
   242  122  242 1    
   243  122  243 1    
   244  124  125 1    
   245  124  244 1    
   246  124  245 1    
   247  125  126 1    
   248  126  246 1    
   249  126  247 1    
@<TRIPOS>SUBSTRUCTURE
     1 UNK         1 GROUP             0       ****    0 ROOT    
