@<TRIPOS>MOLECULE
3R540
247   249    1
SMALL
USER_CHARGES


@<TRIPOS>ATOM
      1 CA         -4.6838  -12.7778  -48.9353 C.3       0 UNK        -0.1800 
      2 C          -3.2786  -12.2974  -48.6064 C.2       0 UNK         0.5000 
      3 O          -3.1204  -11.2876  -47.9215 O.2       0 UNK        -0.5000 
      4 N          -2.2563  -13.0183  -49.0833 N.am      1 UNK        -0.5000 
      5 CA         -0.8337  -12.6948  -48.9273 C.3       1 UNK         0.1400 
      6 C6          0.0183  -13.1367  -50.1491 C.3       23 UNK        -0.0398 
      7 S7          0.1461  -14.8953  -50.6748 S.3       23 UNK        -0.2404 
      8 C8         -0.5085  -15.9904  -49.3649 C.3       23 UNK        -0.0205 
      9 C9         -2.0275  -16.1108  -49.3417 C.ar      23 UNK        -0.0193 
     10 C10        -2.7689  -16.2073  -50.5249 C.ar      23 UNK        -0.1150 
     11 C11        -4.1621  -16.3030  -50.4859 C.ar      23 UNK        -0.0193 
     12 C12        -4.8148  -16.3306  -49.2508 C.ar      23 UNK        -0.1150 
     13 C13        -4.0878  -16.2366  -48.0615 C.ar      23 UNK        -0.0193 
     14 C14        -2.6950  -16.1323  -48.1142 C.ar      23 UNK        -0.1150 
     15 C15        -4.8184  -16.1910  -46.7284 C.3       23 UNK        -0.0205 
     16 S16        -5.2263  -17.8483  -46.1030 S.3       23 UNK        -0.2404 
     17 C17        -3.6060  -18.4609  -45.5261 C.3       23 UNK        -0.0398 
     18 CA         -3.3070  -19.8924  -46.0330 C.3       11 UNK         0.1400 
     19 N          -1.8733  -20.2038  -46.0050 N.am      11 UNK        -0.5000 
     20 C          -1.3254  -21.3387  -46.4636 C.2       10 UNK         0.5000 
     21 O          -1.9666  -22.2285  -47.0200 O.2       10 UNK        -0.5000 
     22 CA          0.1771  -21.5498  -46.2068 C.3       10 UNK         0.1400 
     23 CB          1.0227  -20.7921  -47.2403 C.3       10 UNK        -0.1800 
     24 N           0.5659  -21.1701  -44.8469 N.am      10 UNK        -0.5000 
     25 C           0.0992  -21.7654  -43.7382 C.2       9 UNK         0.5000 
     26 O          -0.6362  -22.7508  -43.7547 O.2       9 UNK        -0.5000 
     27 CA          0.4588  -21.1231  -42.3864 C.3       9 UNK         0.1400 
     28 CB          1.8337  -21.6009  -41.8975 C.3       9 UNK        -0.1800 
     29 N           0.4218  -19.6608  -42.4324 N.am      9 UNK        -0.5000 
     30 C          -0.6818  -18.9365  -42.6691 C.2       8 UNK         0.5000 
     31 O          -1.8022  -19.4279  -42.8069 O.2       8 UNK        -0.5000 
     32 CA         -0.4938  -17.4184  -42.8486 C.3       8 UNK         0.1400 
     33 CB         -0.4027  -16.7032  -41.4934 C.3       8 UNK        -0.1800 
     34 N           0.6869  -17.1039  -43.6538 N.am      8 UNK        -0.5000 
     35 C           0.8198  -17.4116  -44.9512 C.2       7 UNK         0.5000 
     36 O          -0.0926  -17.8811  -45.6307 O.2       7 UNK        -0.5000 
     37 CA          2.2127  -17.2146  -45.5785 C.3       7 UNK         0.1400 
     38 CB          2.3876  -15.8040  -46.1504 C.3       7 UNK        -0.1800 
     39 N           3.2870  -17.4789  -44.6246 N.am      7 UNK        -0.5000 
     40 C           3.6716  -18.7039  -44.2461 C.2       6 UNK         0.5000 
     41 O           3.1713  -19.7394  -44.6838 O.2       6 UNK        -0.5000 
     42 CA          4.7749  -18.7784  -43.1740 C.3       6 UNK         0.1400 
     43 CB          6.1646  -18.6982  -43.8227 C.3       6 UNK        -0.1800 
     44 N           4.6505  -17.7258  -42.1628 N.am      6 UNK        -0.5000 
     45 C           3.6476  -17.6491  -41.2772 C.2       5 UNK         0.5000 
     46 O           2.7396  -18.4754  -41.2050 O.2       5 UNK        -0.5000 
     47 CA          3.6256  -16.4200  -40.3499 C.3       5 UNK         0.1400 
     48 CB          4.4725  -16.6779  -39.0950 C.3       5 UNK        -0.1800 
     49 N           4.0733  -15.1802  -40.9925 N.am      5 UNK        -0.5000 
     50 C           3.5010  -14.6211  -42.0663 C.2       4 UNK         0.5000 
     51 O           2.5637  -15.1288  -42.6890 O.2       4 UNK        -0.5000 
     52 CA          4.1019  -13.2939  -42.5457 C.3       4 UNK         0.1400 
     53 CB          5.3759  -13.5410  -43.3703 C.3       4 UNK        -0.1800 
     54 N           3.1201  -12.6123  -43.3804 N.am      4 UNK        -0.5000 
     55 C           2.8341  -11.3062  -43.3597 C.2       3 UNK         0.5000 
     56 O           3.4141  -10.4929  -42.6388 O.2       3 UNK        -0.5000 
     57 CA          1.7221  -10.8155  -44.3095 C.3       3 UNK         0.1400 
     58 CB          2.3190   -9.9664  -45.4431 C.3       3 UNK        -0.1800 
     59 N           0.9588  -11.9113  -44.9094 N.am      3 UNK        -0.5000 
     60 C          -0.0844  -12.5366  -44.3544 C.2       2 UNK         0.5000 
     61 O          -0.5510  -12.2256  -43.2577 O.2       2 UNK        -0.5000 
     62 CA         -0.6988  -13.7000  -45.1696 C.3       2 UNK         0.1400 
     63 CB         -1.9231  -14.3286  -44.4819 C.3       2 UNK        -0.1800 
     64 N          -1.0619  -13.3365  -46.5449 N.am      2 UNK        -0.5000 
     65 C          -0.2230  -13.0743  -47.5583 C.2       1 UNK         0.5000 
     66 O           1.0018  -13.1096  -47.4353 O.2       1 UNK        -0.5000 
     67 C          -4.1373  -20.9453  -45.2660 C.2       11 UNK         0.5000 
     68 O          -5.0999  -21.4812  -45.8179 O.2       11 UNK        -0.5000 
     69 N          -3.7085  -21.2661  -44.0354 N.am      12 UNK        -0.5000 
     70 CA         -4.3065  -22.2917  -43.1747 C.3       12 UNK         0.1400 
     71 CB         -3.6326  -22.2523  -41.7952 C.3       12 UNK        -0.1800 
     72 C          -4.2437  -23.7114  -43.7744 C.2       12 UNK         0.5000 
     73 O          -5.1560  -24.5069  -43.5506 O.2       12 UNK        -0.5000 
     74 N          -3.2013  -23.9827  -44.5694 N.am      13 UNK        -0.5000 
     75 CA         -3.0073  -25.2010  -45.3565 C.3       13 UNK         0.1400 
     76 CB         -1.4972  -25.4360  -45.5386 C.3       13 UNK        -0.1800 
     77 C          -3.7492  -25.1782  -46.7128 C.2       13 UNK         0.5000 
     78 O          -3.3769  -25.9341  -47.6106 O.2       13 UNK        -0.5000 
     79 N          -4.7727  -24.3219  -46.8531 N.am      14 UNK        -0.5000 
     80 CA         -5.6376  -24.1491  -48.0240 C.3       14 UNK         0.1400 
     81 CB         -6.4688  -25.4224  -48.2889 C.3       14 UNK        -0.1800 
     82 C          -4.8489  -23.6732  -49.2573 C.2       14 UNK         0.5000 
     83 O          -4.8732  -24.3238  -50.3037 O.2       14 UNK        -0.5000 
     84 N          -4.1299  -22.5553  -49.0845 N.am      15 UNK        -0.5000 
     85 CA         -3.2437  -21.9202  -50.0681 C.3       15 UNK         0.1400 
     86 CB         -4.0647  -21.3804  -51.2572 C.3       15 UNK        -0.1800 
     87 C          -2.0850  -22.8550  -50.4819 C.2       15 UNK         0.5000 
     88 O          -1.7622  -22.9729  -51.6660 O.2       15 UNK        -0.5000 
     89 N          -1.5129  -23.5280  -49.4715 N.am      16 UNK        -0.5000 
     90 CA         -0.4934  -24.5771  -49.5416 C.3       16 UNK         0.1400 
     91 CB          0.8678  -23.9791  -49.9508 C.3       16 UNK        -0.1800 
     92 C          -0.9404  -25.7561  -50.4290 C.2       16 UNK         0.5000 
     93 O          -0.2395  -26.1223  -51.3715 O.2       16 UNK        -0.5000 
     94 N          -2.1320  -26.2950  -50.1316 N.am      17 UNK        -0.5000 
     95 CA         -2.8523  -27.3252  -50.8885 C.3       17 UNK         0.1400 
     96 CB         -2.1361  -28.6866  -50.7728 C.3       17 UNK        -0.1800 
     97 C          -3.1224  -26.8986  -52.3482 C.2       17 UNK         0.5000 
     98 O          -2.9156  -27.6814  -53.2774 O.2       17 UNK        -0.5000 
     99 N          -3.5593  -25.6415  -52.5079 N.am      18 UNK        -0.5000 
    100 CA        -3.8307  -24.9341  -53.7619 C.3       18 UNK         0.1400 
    101 CB        -5.0456  -25.5542  -54.4829 C.3       18 UNK        -0.1800 
    102 C         -2.6012  -24.7734  -54.6846 C.2       18 UNK         0.5000 
    103 O         -2.7672  -24.6400  -55.8990 O.2       18 UNK        -0.5000 
    104 N         -1.3887  -24.7668  -54.1094 N.am      19 UNK        -0.5000 
    105 CA        -0.1482  -24.4564  -54.8238 C.3       19 UNK         0.1400 
    106 CB         1.0670  -24.9187  -54.0091 C.3       19 UNK        -0.1800 
    107 C         -0.0445  -22.9577  -55.1554 C.2       19 UNK         0.5000 
    108 O          0.4409  -22.6097  -56.2330 O.2       19 UNK        -0.5000 
    109 N         -0.5400  -22.1019  -54.2504 N.am      20 UNK        -0.5000 
    110 CA        -0.8244  -20.6997  -54.5360 C.3       20 UNK         0.1400 
    111 CB        -0.7367  -19.8747  -53.2425 C.3       20 UNK        -0.1800 
    112 C         -2.2178  -20.6185  -55.1817 C.2       20 UNK         0.5000 
    113 O         -3.1734  -21.1790  -54.6410 O.2       20 UNK        -0.5000 
    114 N         -2.2998  -19.9655  -56.3470 N.am      21 UNK        -0.5000 
    115 CA        -3.5102  -19.9158  -57.1699 C.3       21 UNK         0.1400 
    116 CB        -3.1352  -19.4563  -58.5876 C.3       21 UNK        -0.1800 
    117 C         -4.6162  -19.0173  -56.5883 C.2       21 UNK         0.5000 
    118 O         -5.7953  -19.3162  -56.7817 O.2       21 UNK        -0.5000 
    119 N         -4.2159  -17.9332  -55.9077 N.am      22 UNK        -0.5000 
    120 CA        -5.0971  -16.9148  -55.3031 C.3       22 UNK         0.1400 
    121 C         -5.9666  -16.1089  -56.3215 C.2       22 UNK         0.5000 
    122 N         -5.6213  -16.0740  -57.6031 N.am      22 UNK        -0.7600 
    123 O         -6.9478  -15.4719  -55.9473 O.2       22 UNK        -0.5000 
    124 C124       -5.9196  -17.4684  -54.1027 C.3       23 UNK        -0.0398 
    125 S125       -4.8624  -17.8801  -52.6723 S.3       23 UNK        -0.2404 
    126 C126       -4.9649  -16.3003  -51.7761 C.3       23 UNK        -0.0205 
    127 H127       -5.3200  -11.9326  -49.1978 H         1 UNK         0.0600 
    128 H128       -5.1215  -13.2812  -48.0736 H         1 UNK         0.0600 
    129 H129       -4.6830  -13.4693  -49.7774 H         1 UNK         0.0600 
    130 H130       -2.4479  -13.8676  -49.5986 H         1 UNK         0.3000 
    131 H131       -0.7690  -11.6044  -48.9307 H         1 UNK         0.0600 
    132 H132        1.0396  -12.7713  -50.0291 H         1 UNK         0.0800 
    133 H133       -0.3536  -12.5976  -51.0214 H         1 UNK         0.0800 
    134 H134       -0.1092  -16.9900  -49.5405 H         1 UNK         0.0800 
    135 H135       -0.1181  -15.6897  -48.3953 H         1 UNK         0.0800 
    136 H136       -2.2665  -16.1918  -51.4820 H         1 UNK         0.1150 
    137 H137       -5.8933  -16.3943  -49.2129 H         1 UNK         0.1150 
    138 H138       -2.1257  -16.0520  -47.1997 H         1 UNK         0.1150 
    139 H139       -4.2377  -15.6480  -45.9836 H         1 UNK         0.0800 
    140 H140       -5.7463  -15.6294  -46.8465 H         1 UNK         0.0800 
    141 H141       -3.5798  -18.4040  -44.4373 H         1 UNK         0.0800 
    142 H142       -2.8275  -17.7825  -45.8697 H         1 UNK         0.0800 
    143 H143       -3.6024  -19.9447  -47.0833 H         1 UNK         0.0600 
    144 H144       -1.2616  -19.4984  -45.6068 H         1 UNK         0.3000 
    145 H145        0.3857  -22.6151  -46.3236 H         1 UNK         0.0600 
    146 H146        2.0862  -20.9849  -47.0984 H         1 UNK         0.0600 
    147 H147        0.7663  -21.1013  -48.2540 H         1 UNK         0.0600 
    148 H148        0.8665  -19.7164  -47.1858 H         1 UNK         0.0600 
    149 H149        1.2321  -20.4118  -44.7521 H         1 UNK         0.3000 
    150 H150       -0.2868  -21.4485  -41.6583 H         1 UNK         0.0600 
    151 H151        1.8660  -22.6889  -41.8288 H         1 UNK         0.0600 
    152 H152        2.0583  -21.2059  -40.9066 H         1 UNK         0.0600 
    153 H153        2.6331  -21.2913  -42.5698 H         1 UNK         0.0600 
    154 H154        1.2977  -19.1784  -42.2525 H         1 UNK         0.3000 
    155 H155       -1.3718  -17.0391  -43.3743 H         1 UNK         0.0600 
    156 H156       -1.3122  -16.8570  -40.9116 H         1 UNK         0.0600 
    157 H157       -0.2738  -15.6281  -41.6212 H         1 UNK         0.0600 
    158 H158        0.4324  -17.0706  -40.8978 H         1 UNK         0.0600 
    159 H159        1.4604  -16.6477  -43.1797 H         1 UNK         0.3000 
    160 H160        2.3033  -17.9197  -46.4071 H         1 UNK         0.0600 
    161 H161        2.3393  -15.0378  -45.3776 H         1 UNK         0.0600 
    162 H162        1.6123  -15.5911  -46.8835 H         1 UNK         0.0600 
    163 H163        3.3461  -15.7016  -46.6593 H         1 UNK         0.0600 
    164 H164        3.7037  -16.6774  -44.1745 H         1 UNK         0.3000 
    165 H165        4.6872  -19.7448  -42.6731 H         1 UNK         0.0600 
    166 H166        6.9535  -18.8263  -43.0813 H         1 UNK         0.0600 
    167 H167        6.2919  -19.4828  -44.5699 H         1 UNK         0.0600 
    168 H168        6.3236  -17.7411  -44.3210 H         1 UNK         0.0600 
    169 H169        5.3582  -17.0061  -42.1565 H         1 UNK         0.3000 
    170 H170        2.5915  -16.2687  -40.0343 H         1 UNK         0.0600 
    171 H171        4.1475  -17.5853  -38.5841 H         1 UNK         0.0600 
    172 H172        5.5287  -16.7987  -39.3389 H         1 UNK         0.0600 
    173 H173        4.3834  -15.8572  -38.3830 H         1 UNK         0.0600 
    174 H174        4.8484  -14.7057  -40.5519 H         1 UNK         0.3000 
    175 H175        4.3416  -12.6896  -41.6683 H         1 UNK         0.0600 
    176 H176        5.1750  -14.1599  -44.2460 H         1 UNK         0.0600 
    177 H177        5.8055  -12.6014  -43.7183 H         1 UNK         0.0600 
    178 H178        6.1393  -14.0455  -42.7771 H         1 UNK         0.0600 
    179 H179        2.5415  -13.2254  -43.9368 H         1 UNK         0.3000 
    180 H180        1.0472  -10.1841  -43.7278 H         1 UNK         0.0600 
    181 H181        3.0053  -10.5470  -46.0610 H         1 UNK         0.0600 
    182 H182        2.8731   -9.1146  -45.0464 H         1 UNK         0.0600 
    183 H183        1.5375   -9.5703  -46.0918 H         1 UNK         0.0600 
    184 H184        1.2547  -12.2275  -45.8303 H         1 UNK         0.3000 
    185 H185        0.0664  -14.4733  -45.2172 H         1 UNK         0.0600 
    186 H186       -1.7141  -14.5671  -43.4387 H         1 UNK         0.0600 
    187 H187       -2.7846  -13.6603  -44.4999 H         1 UNK         0.0600 
    188 H188       -2.2033  -15.2622  -44.9662 H         1 UNK         0.0600 
    189 H189       -2.0477  -13.2135  -46.7245 H         1 UNK         0.3000 
    190 H190       -2.9186  -20.7554  -43.6489 H         1 UNK         0.3000 
    191 H191       -5.3603  -22.0369  -43.0458 H         1 UNK         0.0600 
    192 H192       -2.5732  -22.5005  -41.8579 H         1 UNK         0.0600 
    193 H193       -3.7185  -21.2647  -41.3415 H         1 UNK         0.0600 
    194 H194       -4.0968  -22.9660  -41.1136 H         1 UNK         0.0600 
    195 H195       -2.4728  -23.2827  -44.6531 H         1 UNK         0.3000 
    196 H196       -3.4082  -26.0470  -44.7951 H         1 UNK         0.0600 
    197 H197       -0.9876  -25.4806  -44.5760 H         1 UNK         0.0600 
    198 H198       -1.0358  -24.6402  -46.1224 H         1 UNK         0.0600 
    199 H199       -1.2997  -26.3784  -46.0507 H         1 UNK         0.0600 
    200 H200       -4.9560  -23.6833  -46.0895 H         1 UNK         0.3000 
    201 H201       -6.3355  -23.3481  -47.7759 H         1 UNK         0.0600 
    202 H202       -7.1871  -25.2562  -49.0925 H         1 UNK         0.0600 
    203 H203       -7.0336  -25.7150  -47.4039 H         1 UNK         0.0600 
    204 H204       -5.8440  -26.2665  -48.5822 H         1 UNK         0.0600 
    205 H205       -4.1117  -22.1524  -48.1569 H         1 UNK         0.3000 
    206 H206       -2.7861  -21.0655  -49.5679 H         1 UNK         0.0600 
    207 H207       -4.8846  -20.7492  -50.9147 H         1 UNK         0.0600 
    208 H208       -3.4531  -20.7710  -51.9188 H         1 UNK         0.0600 
    209 H209       -4.4903  -22.1822  -51.8596 H         1 UNK         0.0600 
    210 H210       -1.8424  -23.3017  -48.5361 H         1 UNK         0.3000 
    211 H211       -0.3868  -24.9792  -48.5334 H         1 UNK         0.0600 
    212 H212        1.2086  -23.2480  -49.2190 H         1 UNK         0.0600 
    213 H213        1.6349  -24.7517  -50.0136 H         1 UNK         0.0600 
    214 H214        0.8195  -23.4824  -50.9193 H         1 UNK         0.0600 
    215 H215       -2.6225  -25.9535  -49.3071 H         1 UNK         0.3000 
    216 H216       -3.8292  -27.4235  -50.4128 H         1 UNK         0.0600 
    217 H217       -2.7278  -29.4787  -51.2330 H         1 UNK         0.0600 
    218 H218       -1.1633  -28.6769  -51.2652 H         1 UNK         0.0600 
    219 H219       -1.9817  -28.9618  -49.7295 H         1 UNK         0.0600 
    220 H220       -3.7481  -25.1014  -51.6668 H         1 UNK         0.3000 
    221 H221       -4.1081  -23.9201  -53.4723 H         1 UNK         0.0600 
    222 H222       -4.8240  -26.5510  -54.8650 H         1 UNK         0.0600 
    223 H223       -5.9023  -25.6328  -53.8135 H         1 UNK         0.0600 
    224 H224       -5.3543  -24.9402  -55.3297 H         1 UNK         0.0600 
    225 H225       -1.3258  -24.8692  -53.1038 H         1 UNK         0.3000 
    226 H226       -0.1468  -25.0084  -55.7660 H         1 UNK         0.0600 
    227 H227        1.0258  -25.9904  -53.8141 H         1 UNK         0.0600 
    228 H228        1.9950  -24.7216  -54.5471 H         1 UNK         0.0600 
    229 H229        1.1281  -24.4035  -53.0512 H         1 UNK         0.0600 
    230 H230       -0.9713  -22.4788  -53.4101 H         1 UNK         0.3000 
    231 H231       -0.0818  -20.3046  -55.2325 H         1 UNK         0.0600 
    232 H232       -1.0518  -18.8441  -53.4103 H         1 UNK         0.0600 
    233 H233        0.2866  -19.8467  -52.8681 H         1 UNK         0.0600 
    234 H234       -1.3615  -20.2865  -52.4528 H         1 UNK         0.0600 
    235 H235       -1.4695  -19.5433  -56.7371 H         1 UNK         0.3000 
    236 H236       -3.9146  -20.9281  -57.2411 H         1 UNK         0.0600 
    237 H237       -2.4206  -20.1396  -59.0471 H         1 UNK         0.0600 
    238 H238       -4.0137  -19.4257  -59.2337 H         1 UNK         0.0600 
    239 H239       -2.6934  -18.4591  -58.5860 H         1 UNK         0.0600 
    240 H240       -3.2245  -17.7779  -55.8008 H         1 UNK         0.3000 
    241 H241       -4.4218  -16.1581  -54.9027 H         1 UNK         0.0600 
    242 H242       -6.1800  -15.5420  -58.2522 H         1 UNK         0.3800 
    243 H243       -4.8114  -16.5740  -57.9318 H         1 UNK         0.3800 
    244 H244       -6.6715  -16.7517  -53.7697 H         1 UNK         0.0800 
    245 H245       -6.4781  -18.3587  -54.3925 H         1 UNK         0.0800 
    246 H246       -6.0116  -16.0745  -51.5657 H         1 UNK         0.0800 
    247 H247       -4.6022  -15.4967  -52.4186 H         1 UNK         0.0800 
@<TRIPOS>BOND
     1    1    2 1    
     2    1  127 1    
     3    1  128 1    
     4    1  129 1    
     5    2    3 2    
     6    2    4 am   BACKBONE|DICT|INTERRES
     7    4    5 1    
     8    4  130 1    
     9    5    6 1    
    10    5   65 1    
    11    5  131 1    
    12    6    7 1    
    13    6  132 1    
    14    6  133 1    
    15    7    8 1    
    16    8    9 1    
    17    8  134 1    
    18    8  135 1    
    19    9   10 ar   
    20    9   14 ar   
    21   10   11 ar   
    22   10  136 1    
    23   11   12 ar   
    24   11  126 1    
    25   12   13 ar   
    26   12  137 1    
    27   13   14 ar   
    28   13   15 1    
    29   14  138 1    
    30   15   16 1    
    31   15  139 1    
    32   15  140 1    
    33   16   17 1    
    34   17   18 1    
    35   17  141 1    
    36   17  142 1    
    37   18   19 1    
    38   18   67 1    
    39   18  143 1    
    40   19   20 am   BACKBONE|DICT|INTERRES
    41   19  144 1    
    42   20   21 2    
    43   20   22 1    
    44   22   23 1    
    45   22   24 1    
    46   22  145 1    
    47   23  146 1    
    48   23  147 1    
    49   23  148 1    
    50   24   25 am   BACKBONE|DICT|INTERRES
    51   24  149 1    
    52   25   26 2    
    53   25   27 1    
    54   27   28 1    
    55   27   29 1    
    56   27  150 1    
    57   28  151 1    
    58   28  152 1    
    59   28  153 1    
    60   29   30 am   BACKBONE|DICT|INTERRES
    61   29  154 1    
    62   30   31 2    
    63   30   32 1    
    64   32   33 1    
    65   32   34 1    
    66   32  155 1    
    67   33  156 1    
    68   33  157 1    
    69   33  158 1    
    70   34   35 am   BACKBONE|DICT|INTERRES
    71   34  159 1    
    72   35   36 2    
    73   35   37 1    
    74   37   38 1    
    75   37   39 1    
    76   37  160 1    
    77   38  161 1    
    78   38  162 1    
    79   38  163 1    
    80   39   40 am   BACKBONE|DICT|INTERRES
    81   39  164 1    
    82   40   41 2    
    83   40   42 1    
    84   42   43 1    
    85   42   44 1    
    86   42  165 1    
    87   43  166 1    
    88   43  167 1    
    89   43  168 1    
    90   44   45 am   BACKBONE|DICT|INTERRES
    91   44  169 1    
    92   45   46 2    
    93   45   47 1    
    94   47   48 1    
    95   47   49 1    
    96   47  170 1    
    97   48  171 1    
    98   48  172 1    
    99   48  173 1    
   100   49   50 am   BACKBONE|DICT|INTERRES
   101   49  174 1    
   102   50   51 2    
   103   50   52 1    
   104   52   53 1    
   105   52   54 1    
   106   52  175 1    
   107   53  176 1    
   108   53  177 1    
   109   53  178 1    
   110   54   55 am   BACKBONE|DICT|INTERRES
   111   54  179 1    
   112   55   56 2    
   113   55   57 1    
   114   57   58 1    
   115   57   59 1    
   116   57  180 1    
   117   58  181 1    
   118   58  182 1    
   119   58  183 1    
   120   59   60 am   BACKBONE|DICT|INTERRES
   121   59  184 1    
   122   60   61 2    
   123   60   62 1    
   124   62   63 1    
   125   62   64 1    
   126   62  185 1    
   127   63  186 1    
   128   63  187 1    
   129   63  188 1    
   130   64   65 am   BACKBONE|DICT|INTERRES
   131   64  189 1    
   132   65   66 2    
   133   67   68 2    
   134   67   69 am   BACKBONE|DICT|INTERRES
   135   69   70 1    
   136   69  190 1    
   137   70   71 1    
   138   70   72 1    
   139   70  191 1    
   140   71  192 1    
   141   71  193 1    
   142   71  194 1    
   143   72   73 2    
   144   72   74 am   BACKBONE|DICT|INTERRES
   145   74   75 1    
   146   74  195 1    
   147   75   76 1    
   148   75   77 1    
   149   75  196 1    
   150   76  197 1    
   151   76  198 1    
   152   76  199 1    
   153   77   78 2    
   154   77   79 am   BACKBONE|DICT|INTERRES
   155   79   80 1    
   156   79  200 1    
   157   80   81 1    
   158   80   82 1    
   159   80  201 1    
   160   81  202 1    
   161   81  203 1    
   162   81  204 1    
   163   82   83 2    
   164   82   84 am   BACKBONE|DICT|INTERRES
   165   84   85 1    
   166   84  205 1    
   167   85   86 1    
   168   85   87 1    
   169   85  206 1    
   170   86  207 1    
   171   86  208 1    
   172   86  209 1    
   173   87   88 2    
   174   87   89 am   BACKBONE|DICT|INTERRES
   175   89   90 1    
   176   89  210 1    
   177   90   91 1    
   178   90   92 1    
   179   90  211 1    
   180   91  212 1    
   181   91  213 1    
   182   91  214 1    
   183   92   93 2    
   184   92   94 am   BACKBONE|DICT|INTERRES
   185   94   95 1    
   186   94  215 1    
   187   95   96 1    
   188   95   97 1    
   189   95  216 1    
   190   96  217 1    
   191   96  218 1    
   192   96  219 1    
   193   97   98 2    
   194   97   99 am   BACKBONE|DICT|INTERRES
   195   99  100 1    
   196   99  220 1    
   197  100  101 1    
   198  100  102 1    
   199  100  221 1    
   200  101  222 1    
   201  101  223 1    
   202  101  224 1    
   203  102  103 2    
   204  102  104 am   BACKBONE|DICT|INTERRES
   205  104  105 1    
   206  104  225 1    
   207  105  106 1    
   208  105  107 1    
   209  105  226 1    
   210  106  227 1    
   211  106  228 1    
   212  106  229 1    
   213  107  108 2    
   214  107  109 am   BACKBONE|DICT|INTERRES
   215  109  110 1    
   216  109  230 1    
   217  110  111 1    
   218  110  112 1    
   219  110  231 1    
   220  111  232 1    
   221  111  233 1    
   222  111  234 1    
   223  112  113 2    
   224  112  114 am   BACKBONE|DICT|INTERRES
   225  114  115 1    
   226  114  235 1    
   227  115  116 1    
   228  115  117 1    
   229  115  236 1    
   230  116  237 1    
   231  116  238 1    
   232  116  239 1    
   233  117  118 2    
   234  117  119 am   BACKBONE|DICT|INTERRES
   235  119  120 1    
   236  119  240 1    
   237  120  121 1    
   238  120  124 1    
   239  120  241 1    
   240  121  122 am   BACKBONE|DICT|INTERRES
   241  121  123 2    
   242  122  242 1    
   243  122  243 1    
   244  124  125 1    
   245  124  244 1    
   246  124  245 1    
   247  125  126 1    
   248  126  246 1    
   249  126  247 1    
@<TRIPOS>SUBSTRUCTURE
     1 UNK         1 GROUP             0       ****    0 ROOT    
