@<TRIPOS>MOLECULE
3R540
247   249    1
SMALL
USER_CHARGES


@<TRIPOS>ATOM
      1 CA         -6.0962  -17.2048  -45.3752 C.3       0 UNK        -0.1800 
      2 C          -5.2785  -16.1668  -46.1310 C.2       0 UNK         0.5000 
      3 O          -5.6784  -15.0043  -46.2007 O.2       0 UNK        -0.5000 
      4 N          -4.1460  -16.5858  -46.7068 N.am      1 UNK        -0.5000 
      5 CA         -3.2034  -15.7361  -47.4373 C.3       1 UNK         0.1400 
      6 C6         -2.1869  -16.5854  -48.2388 C.3       23 UNK        -0.0398 
      7 S7         -1.6259  -15.7335  -49.7513 S.3       23 UNK        -0.2404 
      8 C8          0.1836  -15.7860  -49.5785 C.3       23 UNK        -0.0205 
      9 C9          0.7531  -17.1628  -49.8890 C.ar      23 UNK        -0.0193 
     10 C10         0.8025  -17.6113  -51.2112 C.ar      23 UNK        -0.1150 
     11 C11         1.3187  -18.8735  -51.5148 C.ar      23 UNK        -0.0193 
     12 C12         1.8242  -19.6747  -50.4850 C.ar      23 UNK        -0.1150 
     13 C13         1.7774  -19.2445  -49.1511 C.ar      23 UNK        -0.0193 
     14 C14         1.2396  -17.9837  -48.8665 C.ar      23 UNK        -0.1150 
     15 C15         2.3044  -20.0976  -47.9943 C.3       23 UNK        -0.0205 
     16 S16         2.2067  -21.9059  -48.2582 S.3       23 UNK        -0.2404 
     17 C17         2.0675  -22.5259  -46.5410 C.3       23 UNK        -0.0398 
     18 CA          0.6545  -23.0714  -46.2030 C.3       11 UNK         0.1400 
     19 N           0.5792  -23.6416  -44.8602 N.am      11 UNK        -0.5000 
     20 C          -0.3228  -24.5610  -44.4861 C.2       10 UNK         0.5000 
     21 O          -1.0799  -25.1369  -45.2678 O.2       10 UNK        -0.5000 
     22 CA         -0.4202  -24.8697  -42.9794 C.3       10 UNK         0.1400 
     23 CB          0.5110  -26.0331  -42.6067 C.3       10 UNK        -0.1800 
     24 N          -0.1101  -23.7175  -42.1310 N.am      10 UNK        -0.5000 
     25 C          -0.8130  -22.5759  -42.0934 C.2       9 UNK         0.5000 
     26 O          -1.8305  -22.3720  -42.7540 O.2       9 UNK        -0.5000 
     27 CA         -0.2435  -21.4491  -41.2128 C.3       9 UNK         0.1400 
     28 CB         -0.7759  -21.5644  -39.7771 C.3       9 UNK        -0.1800 
     29 N           1.2223  -21.4139  -41.1890 N.am      9 UNK        -0.5000 
     30 C           1.9971  -21.2241  -42.2647 C.2       8 UNK         0.5000 
     31 O           1.5622  -21.1065  -43.4139 O.2       8 UNK        -0.5000 
     32 CA          3.5165  -21.2168  -42.0287 C.3       8 UNK         0.1400 
     33 CB          4.1123  -22.5868  -42.3876 C.3       8 UNK        -0.1800 
     34 N           4.1693  -20.1861  -42.8339 N.am      8 UNK        -0.5000 
     35 C           3.9955  -18.8711  -42.6561 C.2       7 UNK         0.5000 
     36 O           3.3284  -18.3858  -41.7394 O.2       7 UNK        -0.5000 
     37 CA          4.6463  -17.9565  -43.7078 C.3       7 UNK         0.1400 
     38 CB          3.7421  -17.8534  -44.9484 C.3       7 UNK        -0.1800 
     39 N           4.8874  -16.6143  -43.1807 N.am      7 UNK        -0.5000 
     40 C           5.8450  -16.2940  -42.3005 C.2       6 UNK         0.5000 
     41 O           6.6812  -17.0972  -41.8836 O.2       6 UNK        -0.5000 
     42 CA          5.8861  -14.8392  -41.8016 C.3       6 UNK         0.1400 
     43 CB          6.6178  -13.9433  -42.8140 C.3       6 UNK        -0.1800 
     44 N           4.5445  -14.3008  -41.5703 N.am      6 UNK        -0.5000 
     45 C           4.1151  -13.7593  -40.4217 C.2       5 UNK         0.5000 
     46 O           4.8129  -13.6573  -39.4115 O.2       5 UNK        -0.5000 
     47 CA          2.6665  -13.2231  -40.3835 C.3       5 UNK         0.1400 
     48 CB          2.6536  -11.7028  -40.6051 C.3       5 UNK        -0.1800 
     49 N           1.7858  -13.8477  -41.3708 N.am      5 UNK        -0.5000 
     50 C           1.3685  -15.1196  -41.3264 C.2       4 UNK         0.5000 
     51 O           1.5698  -15.8602  -40.3640 O.2       4 UNK        -0.5000 
     52 CA          0.5979  -15.6637  -42.5514 C.3       4 UNK         0.1400 
     53 CB         -0.8974  -15.7629  -42.2076 C.3       4 UNK        -0.1800 
     54 N           0.7402  -14.9081  -43.8075 N.am      4 UNK        -0.5000 
     55 C           1.8827  -14.5345  -44.4074 C.2       3 UNK         0.5000 
     56 O           2.9960  -14.7429  -43.9286 O.2       3 UNK        -0.5000 
     57 CA          1.8022  -13.8055  -45.7632 C.3       3 UNK         0.1400 
     58 CB          2.5075  -14.6327  -46.8489 C.3       3 UNK        -0.1800 
     59 N           0.4400  -13.4881  -46.1978 N.am      3 UNK        -0.5000 
     60 C          -0.3305  -12.5304  -45.6648 C.2       2 UNK         0.5000 
     61 O           0.0378  -11.7993  -44.7449 O.2       2 UNK        -0.5000 
     62 CA         -1.7527  -12.3632  -46.2382 C.3       2 UNK         0.1400 
     63 CB         -1.8209  -11.1184  -47.1365 C.3       2 UNK        -0.1800 
     64 N          -2.2681  -13.5127  -46.9921 N.am      2 UNK        -0.5000 
     65 C          -2.5000  -14.7350  -46.4944 C.2       1 UNK         0.5000 
     66 O          -2.1665  -15.0847  -45.3597 O.2       1 UNK        -0.5000 
     67 C          -0.4395  -22.0003  -46.3495 C.2       11 UNK         0.5000 
     68 O          -1.2922  -22.1271  -47.2256 O.2       11 UNK        -0.5000 
     69 N          -0.3959  -20.9753  -45.4854 N.am      12 UNK        -0.5000 
     70 CA         -1.1895  -19.7518  -45.5982 C.3       12 UNK         0.1400 
     71 CB         -0.7982  -18.7747  -44.4838 C.3       12 UNK        -0.1800 
     72 C          -2.7134  -19.9662  -45.6362 C.2       12 UNK         0.5000 
     73 O          -3.3904  -19.2650  -46.3876 O.2       12 UNK        -0.5000 
     74 N          -3.2240  -20.9335  -44.8608 N.am      13 UNK        -0.5000 
     75 CA         -4.6428  -21.2951  -44.8318 C.3       13 UNK         0.1400 
     76 CB         -4.9148  -22.2262  -43.6412 C.3       13 UNK        -0.1800 
     77 C          -5.1268  -21.9408  -46.1434 C.2       13 UNK         0.5000 
     78 O          -6.2317  -21.6397  -46.5954 O.2       13 UNK        -0.5000 
     79 N          -4.2897  -22.8017  -46.7388 N.am      14 UNK        -0.5000 
     80 CA         -4.5519  -23.4471  -48.0267 C.3       14 UNK         0.1400 
     81 CB         -3.6371  -24.6712  -48.1819 C.3       14 UNK        -0.1800 
     82 C          -4.3561  -22.4696  -49.1969 C.2       14 UNK         0.5000 
     83 O          -5.1518  -22.4641  -50.1378 O.2       14 UNK        -0.5000 
     84 N          -3.3251  -21.6225  -49.0857 N.am      15 UNK        -0.5000 
     85 CA         -2.9141  -20.6009  -50.0474 C.3       15 UNK         0.1400 
     86 CB         -1.5342  -20.0740  -49.6543 C.3       15 UNK        -0.1800 
     87 C          -3.9095  -19.4457  -50.2608 C.2       15 UNK         0.5000 
     88 O          -3.6574  -18.5863  -51.1040 O.2       15 UNK        -0.5000 
     89 N          -5.0530  -19.4718  -49.5631 N.am      16 UNK        -0.5000 
     90 CA         -6.2460  -18.6882  -49.8884 C.3       16 UNK         0.1400 
     91 CB         -7.3264  -18.9733  -48.8353 C.3       16 UNK        -0.1800 
     92 C          -6.7801  -18.9696  -51.3135 C.2       16 UNK         0.5000 
     93 O          -7.4418  -18.1051  -51.8892 O.2       16 UNK        -0.5000 
     94 N          -6.4469  -20.1455  -51.8676 N.am      17 UNK        -0.5000 
     95 CA         -6.5959  -20.4690  -53.2833 C.3       17 UNK         0.1400 
     96 CB         -7.9698  -21.1079  -53.5446 C.3       17 UNK        -0.1800 
     97 C          -5.4605  -21.3850  -53.7665 C.2       17 UNK         0.5000 
     98 O          -4.8845  -21.1246  -54.8261 O.2       17 UNK        -0.5000 
     99 N          -5.1722  -22.4471  -52.9935 N.am      18 UNK        -0.5000 
    100 CA        -4.3087  -23.5869  -53.3380 C.3       18 UNK         0.1400 
    101 CB        -2.8203  -23.1914  -53.3029 C.3       18 UNK        -0.1800 
    102 C         -4.7389  -24.2266  -54.6736 C.2       18 UNK         0.5000 
    103 O         -3.9388  -24.3296  -55.6062 O.2       18 UNK        -0.5000 
    104 N         -6.0422  -24.5343  -54.7626 N.am      19 UNK        -0.5000 
    105 CA        -6.8240  -24.8344  -55.9682 C.3       19 UNK         0.1400 
    106 CB        -6.3128  -26.0900  -56.7044 C.3       19 UNK        -0.1800 
    107 C         -6.9225  -23.6017  -56.8877 C.2       19 UNK         0.5000 
    108 O         -7.9954  -23.0074  -56.9966 O.2       19 UNK        -0.5000 
    109 N         -5.7893  -23.2158  -57.4804 N.am      20 UNK        -0.5000 
    110 CA        -5.5948  -21.9844  -58.2416 C.3       20 UNK         0.1400 
    111 CB        -6.1473  -22.1632  -59.6699 C.3       20 UNK        -0.1800 
    112 C         -4.1173  -21.5374  -58.2522 C.2       20 UNK         0.5000 
    113 O         -3.7820  -20.6140  -58.9957 O.2       20 UNK        -0.5000 
    114 N         -3.2439  -22.1960  -57.4722 N.am      21 UNK        -0.5000 
    115 CA        -1.7982  -21.9648  -57.4925 C.3       21 UNK         0.1400 
    116 CB        -1.0793  -23.1874  -56.9021 C.3       21 UNK        -0.1800 
    117 C         -1.3622  -20.6810  -56.7638 C.2       21 UNK         0.5000 
    118 O         -0.3482  -20.0975  -57.1507 O.2       21 UNK        -0.5000 
    119 N         -2.1146  -20.2702  -55.7352 N.am      22 UNK        -0.5000 
    120 CA        -1.8225  -19.0828  -54.9111 C.3       22 UNK         0.1400 
    121 C         -2.9533  -18.0176  -54.9555 C.2       22 UNK         0.5000 
    122 N         -4.1740  -18.3504  -55.3579 N.am      22 UNK        -0.7600 
    123 O         -2.7090  -16.8540  -54.6499 O.2       22 UNK        -0.5000 
    124 C124       -1.4799  -19.4567  -53.4461 C.3       23 UNK        -0.0398 
    125 S125       -0.0239  -20.5511  -53.2878 S.3       23 UNK        -0.2404 
    126 C126        1.3284  -19.3731  -52.9533 C.3       23 UNK        -0.0205 
    127 H127       -7.1492  -17.1256  -45.6452 H         1 UNK         0.0600 
    128 H128       -6.0039  -17.0463  -44.3009 H         1 UNK         0.0600 
    129 H129       -5.7676  -18.2184  -45.6026 H         1 UNK         0.0600 
    130 H130       -3.8704  -17.5607  -46.5962 H         1 UNK         0.3000 
    131 H131       -3.8081  -15.1649  -48.1455 H         1 UNK         0.0600 
    132 H132       -2.6608  -17.5071  -48.5715 H         1 UNK         0.0800 
    133 H133       -1.3428  -16.8974  -47.6215 H         1 UNK         0.0800 
    134 H134        0.4545  -15.4663  -48.5750 H         1 UNK         0.0800 
    135 H135        0.6234  -15.0569  -50.2605 H         1 UNK         0.0800 
    136 H136        0.4182  -16.9816  -52.0014 H         1 UNK         0.1150 
    137 H137        2.2344  -20.6436  -50.7301 H         1 UNK         0.1150 
    138 H138        1.2008  -17.6409  -47.8427 H         1 UNK         0.1150 
    139 H139        3.3433  -19.8267  -47.8037 H         1 UNK         0.0800 
    140 H140        1.7480  -19.8450  -47.0909 H         1 UNK         0.0800 
    141 H141        2.3728  -21.7489  -45.8393 H         1 UNK         0.0800 
    142 H142        2.7979  -23.3275  -46.4247 H         1 UNK         0.0800 
    143 H143        0.4357  -23.8613  -46.9255 H         1 UNK         0.0600 
    144 H144        1.1141  -23.1710  -44.1432 H         1 UNK         0.3000 
    145 H145       -1.4489  -25.1713  -42.7706 H         1 UNK         0.0600 
    146 H146        0.3915  -26.3149  -41.5604 H         1 UNK         0.0600 
    147 H147        0.2910  -26.9170  -43.2069 H         1 UNK         0.0600 
    148 H148        1.5591  -25.7782  -42.7692 H         1 UNK         0.0600 
    149 H149        0.7136  -23.7890  -41.5524 H         1 UNK         0.3000 
    150 H150       -0.5903  -20.5011  -41.6270 H         1 UNK         0.0600 
    151 H151       -1.8667  -21.5728  -39.7651 H         1 UNK         0.0600 
    152 H152       -0.4526  -20.7203  -39.1676 H         1 UNK         0.0600 
    153 H153       -0.4349  -22.4800  -39.2923 H         1 UNK         0.0600 
    154 H154        1.6576  -21.5092  -40.2827 H         1 UNK         0.3000 
    155 H155        3.7168  -21.0100  -40.9753 H         1 UNK         0.0600 
    156 H156        3.6621  -23.3791  -41.7881 H         1 UNK         0.0600 
    157 H157        3.9487  -22.8362  -43.4370 H         1 UNK         0.0600 
    158 H158        5.1861  -22.6110  -42.2007 H         1 UNK         0.0600 
    159 H159        4.7018  -20.5088  -43.6280 H         1 UNK         0.3000 
    160 H160        5.6040  -18.3880  -44.0064 H         1 UNK         0.0600 
    161 H161        2.7548  -17.4653  -44.6957 H         1 UNK         0.0600 
    162 H162        3.5974  -18.8311  -45.4088 H         1 UNK         0.0600 
    163 H163        4.1775  -17.1992  -45.7038 H         1 UNK         0.0600 
    164 H164        4.2191  -15.9022  -43.4657 H         1 UNK         0.3000 
    165 H165        6.4614  -14.8392  -40.8736 H         1 UNK         0.0600 
    166 H166        6.7235  -12.9271  -42.4339 H         1 UNK         0.0600 
    167 H167        7.6206  -14.3206  -43.0183 H         1 UNK         0.0600 
    168 H168        6.0843  -13.8914  -43.7641 H         1 UNK         0.0600 
    169 H169        3.8942  -14.3679  -42.3485 H         1 UNK         0.3000 
    170 H170        2.2654  -13.4272  -39.3886 H         1 UNK         0.0600 
    171 H171        3.0309  -11.4375  -41.5936 H         1 UNK         0.0600 
    172 H172        1.6457  -11.2983  -40.5100 H         1 UNK         0.0600 
    173 H173        3.2772  -11.1948  -39.8683 H         1 UNK         0.0600 
    174 H174        1.5657  -13.3044  -42.1927 H         1 UNK         0.3000 
    175 H175        0.9765  -16.6702  -42.7402 H         1 UNK         0.0600 
    176 H176       -1.4667  -16.2272  -43.0103 H         1 UNK         0.0600 
    177 H177       -1.3297  -14.7786  -42.0234 H         1 UNK         0.0600 
    178 H178       -1.0568  -16.3654  -41.3123 H         1 UNK         0.0600 
    179 H179       -0.1263  -14.7038  -44.2893 H         1 UNK         0.3000 
    180 H180        2.3475  -12.8659  -45.6528 H         1 UNK         0.0600 
    181 H181        2.0840  -15.6332  -46.9292 H         1 UNK         0.0600 
    182 H182        3.5672  -14.7513  -46.6188 H         1 UNK         0.0600 
    183 H183        2.4444  -14.1508  -47.8246 H         1 UNK         0.0600 
    184 H184        0.0521  -14.0458  -46.9423 H         1 UNK         0.3000 
    185 H185       -2.4196  -12.2060  -45.3880 H         1 UNK         0.0600 
    186 H186       -1.4782  -10.2301  -46.6040 H         1 UNK         0.0600 
    187 H187       -1.1973  -11.2297  -48.0245 H         1 UNK         0.0600 
    188 H188       -2.8420  -10.9227  -47.4643 H         1 UNK         0.0600 
    189 H189       -2.5450  -13.3221  -47.9447 H         1 UNK         0.3000 
    190 H190        0.3120  -20.9842  -44.7541 H         1 UNK         0.3000 
    191 H191       -0.9050  -19.2858  -46.5418 H         1 UNK         0.0600 
    192 H192        0.2753  -18.5839  -44.4788 H         1 UNK         0.0600 
    193 H193       -1.2978  -17.8171  -44.6306 H         1 UNK         0.0600 
    194 H194       -1.0793  -19.1499  -43.5002 H         1 UNK         0.0600 
    195 H195       -2.6070  -21.4589  -44.2462 H         1 UNK         0.3000 
    196 H196       -5.2200  -20.3813  -44.6795 H         1 UNK         0.0600 
    197 H197       -5.9720  -22.4878  -43.5822 H         1 UNK         0.0600 
    198 H198       -4.6445  -21.7493  -42.6988 H         1 UNK         0.0600 
    199 H199       -4.3492  -23.1556  -43.7198 H         1 UNK         0.0600 
    200 H200       -3.3745  -22.9481  -46.3350 H         1 UNK         0.3000 
    201 H201       -5.5882  -23.7911  -48.0448 H         1 UNK         0.0600 
    202 H202       -3.8088  -25.3943  -47.3844 H         1 UNK         0.0600 
    203 H203       -3.8228  -25.1796  -49.1288 H         1 UNK         0.0600 
    204 H204       -2.5821  -24.3948  -48.1584 H         1 UNK         0.0600 
    205 H205       -2.7030  -21.7393  -48.2875 H         1 UNK         0.3000 
    206 H206       -2.8163  -21.0927  -51.0136 H         1 UNK         0.0600 
    207 H207       -0.7881  -20.8685  -49.6657 H         1 UNK         0.0600 
    208 H208       -1.2027  -19.3072  -50.3512 H         1 UNK         0.0600 
    209 H209       -1.5425  -19.6310  -48.6617 H         1 UNK         0.0600 
    210 H210       -5.1676  -20.2019  -48.8745 H         1 UNK         0.3000 
    211 H211       -5.9769  -17.6314  -49.8350 H         1 UNK         0.0600 
    212 H212       -7.6218  -20.0235  -48.8378 H         1 UNK         0.0600 
    213 H213       -8.2210  -18.3778  -49.0210 H         1 UNK         0.0600 
    214 H214       -6.9744  -18.7289  -47.8333 H         1 UNK         0.0600 
    215 H215       -5.9039  -20.7942  -51.3102 H         1 UNK         0.3000 
    216 H216       -6.5274  -19.5496  -53.8688 H         1 UNK         0.0600 
    217 H217       -8.0819  -21.3770  -54.5958 H         1 UNK         0.0600 
    218 H218       -8.7773  -20.4182  -53.2988 H         1 UNK         0.0600 
    219 H219       -8.1132  -22.0136  -52.9545 H         1 UNK         0.0600 
    220 H220       -5.6409  -22.5410  -52.0992 H         1 UNK         0.3000 
    221 H221       -4.4635  -24.3459  -52.5697 H         1 UNK         0.0600 
    222 H222       -2.6002  -22.3691  -53.9808 H         1 UNK         0.0600 
    223 H223       -2.5162  -22.8949  -52.3012 H         1 UNK         0.0600 
    224 H224       -2.1849  -24.0306  -53.5874 H         1 UNK         0.0600 
    225 H225       -6.6003  -24.3785  -53.9351 H         1 UNK         0.3000 
    226 H226       -7.8361  -25.0530  -55.6237 H         1 UNK         0.0600 
    227 H227       -6.3070  -26.9554  -56.0418 H         1 UNK         0.0600 
    228 H228       -6.9608  -26.3317  -57.5476 H         1 UNK         0.0600 
    229 H229       -5.3041  -25.9676  -57.0983 H         1 UNK         0.0600 
    230 H230       -4.9591  -23.7620  -57.2851 H         1 UNK         0.3000 
    231 H231       -6.1495  -21.1828  -57.7495 H         1 UNK         0.0600 
    232 H232       -5.6207  -22.9551  -60.2035 H         1 UNK         0.0600 
    233 H233       -6.0437  -21.2471  -60.2525 H         1 UNK         0.0600 
    234 H234       -7.2077  -22.4150  -59.6588 H         1 UNK         0.0600 
    235 H235       -3.5668  -22.9016  -56.8182 H         1 UNK         0.3000 
    236 H236       -1.4836  -21.8705  -58.5342 H         1 UNK         0.0600 
    237 H237       -1.3305  -23.3351  -55.8523 H         1 UNK         0.0600 
    238 H238       -1.3410  -24.0985  -57.4403 H         1 UNK         0.0600 
    239 H239        0.0034  -23.0711  -56.9648 H         1 UNK         0.0600 
    240 H240       -2.9533  -20.7877  -55.4989 H         1 UNK         0.3000 
    241 H241       -0.9478  -18.5691  -55.3135 H         1 UNK         0.0600 
    242 H242       -4.8850  -17.6384  -55.4028 H         1 UNK         0.3800 
    243 H243       -4.4147  -19.3164  -55.5389 H         1 UNK         0.3800 
    244 H244       -1.3224  -18.5625  -52.8417 H         1 UNK         0.0800 
    245 H245       -2.3302  -19.9723  -53.0013 H         1 UNK         0.0800 
    246 H246        2.2794  -19.8690  -53.1523 H         1 UNK         0.0800 
    247 H247        1.2687  -18.5401  -53.6554 H         1 UNK         0.0800 
@<TRIPOS>BOND
     1    1    2 1    
     2    1  127 1    
     3    1  128 1    
     4    1  129 1    
     5    2    3 2    
     6    2    4 am   BACKBONE|DICT|INTERRES
     7    4    5 1    
     8    4  130 1    
     9    5    6 1    
    10    5   65 1    
    11    5  131 1    
    12    6    7 1    
    13    6  132 1    
    14    6  133 1    
    15    7    8 1    
    16    8    9 1    
    17    8  134 1    
    18    8  135 1    
    19    9   10 ar   
    20    9   14 ar   
    21   10   11 ar   
    22   10  136 1    
    23   11   12 ar   
    24   11  126 1    
    25   12   13 ar   
    26   12  137 1    
    27   13   14 ar   
    28   13   15 1    
    29   14  138 1    
    30   15   16 1    
    31   15  139 1    
    32   15  140 1    
    33   16   17 1    
    34   17   18 1    
    35   17  141 1    
    36   17  142 1    
    37   18   19 1    
    38   18   67 1    
    39   18  143 1    
    40   19   20 am   BACKBONE|DICT|INTERRES
    41   19  144 1    
    42   20   21 2    
    43   20   22 1    
    44   22   23 1    
    45   22   24 1    
    46   22  145 1    
    47   23  146 1    
    48   23  147 1    
    49   23  148 1    
    50   24   25 am   BACKBONE|DICT|INTERRES
    51   24  149 1    
    52   25   26 2    
    53   25   27 1    
    54   27   28 1    
    55   27   29 1    
    56   27  150 1    
    57   28  151 1    
    58   28  152 1    
    59   28  153 1    
    60   29   30 am   BACKBONE|DICT|INTERRES
    61   29  154 1    
    62   30   31 2    
    63   30   32 1    
    64   32   33 1    
    65   32   34 1    
    66   32  155 1    
    67   33  156 1    
    68   33  157 1    
    69   33  158 1    
    70   34   35 am   BACKBONE|DICT|INTERRES
    71   34  159 1    
    72   35   36 2    
    73   35   37 1    
    74   37   38 1    
    75   37   39 1    
    76   37  160 1    
    77   38  161 1    
    78   38  162 1    
    79   38  163 1    
    80   39   40 am   BACKBONE|DICT|INTERRES
    81   39  164 1    
    82   40   41 2    
    83   40   42 1    
    84   42   43 1    
    85   42   44 1    
    86   42  165 1    
    87   43  166 1    
    88   43  167 1    
    89   43  168 1    
    90   44   45 am   BACKBONE|DICT|INTERRES
    91   44  169 1    
    92   45   46 2    
    93   45   47 1    
    94   47   48 1    
    95   47   49 1    
    96   47  170 1    
    97   48  171 1    
    98   48  172 1    
    99   48  173 1    
   100   49   50 am   BACKBONE|DICT|INTERRES
   101   49  174 1    
   102   50   51 2    
   103   50   52 1    
   104   52   53 1    
   105   52   54 1    
   106   52  175 1    
   107   53  176 1    
   108   53  177 1    
   109   53  178 1    
   110   54   55 am   BACKBONE|DICT|INTERRES
   111   54  179 1    
   112   55   56 2    
   113   55   57 1    
   114   57   58 1    
   115   57   59 1    
   116   57  180 1    
   117   58  181 1    
   118   58  182 1    
   119   58  183 1    
   120   59   60 am   BACKBONE|DICT|INTERRES
   121   59  184 1    
   122   60   61 2    
   123   60   62 1    
   124   62   63 1    
   125   62   64 1    
   126   62  185 1    
   127   63  186 1    
   128   63  187 1    
   129   63  188 1    
   130   64   65 am   BACKBONE|DICT|INTERRES
   131   64  189 1    
   132   65   66 2    
   133   67   68 2    
   134   67   69 am   BACKBONE|DICT|INTERRES
   135   69   70 1    
   136   69  190 1    
   137   70   71 1    
   138   70   72 1    
   139   70  191 1    
   140   71  192 1    
   141   71  193 1    
   142   71  194 1    
   143   72   73 2    
   144   72   74 am   BACKBONE|DICT|INTERRES
   145   74   75 1    
   146   74  195 1    
   147   75   76 1    
   148   75   77 1    
   149   75  196 1    
   150   76  197 1    
   151   76  198 1    
   152   76  199 1    
   153   77   78 2    
   154   77   79 am   BACKBONE|DICT|INTERRES
   155   79   80 1    
   156   79  200 1    
   157   80   81 1    
   158   80   82 1    
   159   80  201 1    
   160   81  202 1    
   161   81  203 1    
   162   81  204 1    
   163   82   83 2    
   164   82   84 am   BACKBONE|DICT|INTERRES
   165   84   85 1    
   166   84  205 1    
   167   85   86 1    
   168   85   87 1    
   169   85  206 1    
   170   86  207 1    
   171   86  208 1    
   172   86  209 1    
   173   87   88 2    
   174   87   89 am   BACKBONE|DICT|INTERRES
   175   89   90 1    
   176   89  210 1    
   177   90   91 1    
   178   90   92 1    
   179   90  211 1    
   180   91  212 1    
   181   91  213 1    
   182   91  214 1    
   183   92   93 2    
   184   92   94 am   BACKBONE|DICT|INTERRES
   185   94   95 1    
   186   94  215 1    
   187   95   96 1    
   188   95   97 1    
   189   95  216 1    
   190   96  217 1    
   191   96  218 1    
   192   96  219 1    
   193   97   98 2    
   194   97   99 am   BACKBONE|DICT|INTERRES
   195   99  100 1    
   196   99  220 1    
   197  100  101 1    
   198  100  102 1    
   199  100  221 1    
   200  101  222 1    
   201  101  223 1    
   202  101  224 1    
   203  102  103 2    
   204  102  104 am   BACKBONE|DICT|INTERRES
   205  104  105 1    
   206  104  225 1    
   207  105  106 1    
   208  105  107 1    
   209  105  226 1    
   210  106  227 1    
   211  106  228 1    
   212  106  229 1    
   213  107  108 2    
   214  107  109 am   BACKBONE|DICT|INTERRES
   215  109  110 1    
   216  109  230 1    
   217  110  111 1    
   218  110  112 1    
   219  110  231 1    
   220  111  232 1    
   221  111  233 1    
   222  111  234 1    
   223  112  113 2    
   224  112  114 am   BACKBONE|DICT|INTERRES
   225  114  115 1    
   226  114  235 1    
   227  115  116 1    
   228  115  117 1    
   229  115  236 1    
   230  116  237 1    
   231  116  238 1    
   232  116  239 1    
   233  117  118 2    
   234  117  119 am   BACKBONE|DICT|INTERRES
   235  119  120 1    
   236  119  240 1    
   237  120  121 1    
   238  120  124 1    
   239  120  241 1    
   240  121  122 am   BACKBONE|DICT|INTERRES
   241  121  123 2    
   242  122  242 1    
   243  122  243 1    
   244  124  125 1    
   245  124  244 1    
   246  124  245 1    
   247  125  126 1    
   248  126  246 1    
   249  126  247 1    
@<TRIPOS>SUBSTRUCTURE
     1 UNK         1 GROUP             0       ****    0 ROOT    
