@<TRIPOS>MOLECULE
3R540
247   249    1
SMALL
USER_CHARGES


@<TRIPOS>ATOM
      1 CA         -0.6970  -12.2602  -46.3127 C.3       0 UNK        -0.1800 
      2 C           0.6100  -11.7415  -46.8908 C.2       0 UNK         0.5000 
      3 O           0.8494  -10.5334  -46.8653 O.2       0 UNK        -0.5000 
      4 N           1.4590  -12.6405  -47.4071 N.am      1 UNK        -0.5000 
      5 CA          2.7875  -12.3237  -47.9401 C.3       1 UNK         0.1400 
      6 C6          3.4247  -13.5104  -48.7063 C.3       23 UNK        -0.0398 
      7 S7          3.5647  -15.0727  -47.7658 S.3       23 UNK        -0.2404 
      8 C8          3.9867  -16.2342  -49.1085 C.3       23 UNK        -0.0205 
      9 C9          2.8528  -17.1907  -49.4643 C.ar      23 UNK        -0.0193 
     10 C10         1.5415  -16.7340  -49.6427 C.ar      23 UNK        -0.1150 
     11 C11         0.5168  -17.6273  -49.9666 C.ar      23 UNK        -0.0193 
     12 C12         0.8070  -18.9850  -50.1194 C.ar      23 UNK        -0.1150 
     13 C13         2.1145  -19.4525  -49.9702 C.ar      23 UNK        -0.0193 
     14 C14         3.1316  -18.5493  -49.6458 C.ar      23 UNK        -0.1150 
     15 C15         2.4169  -20.9348  -50.1582 C.3       23 UNK        -0.0205 
     16 S16         3.2414  -21.6903  -48.7174 S.3       23 UNK        -0.2404 
     17 C17         2.1124  -21.2456  -47.3549 C.3       23 UNK        -0.0398 
     18 CA          1.2039  -22.4016  -46.8861 C.3       11 UNK         0.1400 
     19 N           0.6303  -22.1058  -45.5743 N.am      11 UNK        -0.5000 
     20 C          -0.0315  -22.9752  -44.8026 C.2       10 UNK         0.5000 
     21 O          -0.1950  -24.1589  -45.0934 O.2       10 UNK        -0.5000 
     22 CA         -0.6560  -22.4123  -43.5128 C.3       10 UNK         0.1400 
     23 CB          0.3891  -22.3243  -42.3911 C.3       10 UNK        -0.1800 
     24 N          -1.2753  -21.1006  -43.7174 N.am      10 UNK        -0.5000 
     25 C          -2.3265  -20.8845  -44.5217 C.2       9 UNK         0.5000 
     26 O          -2.9111  -21.7787  -45.1325 O.2       9 UNK        -0.5000 
     27 CA         -2.7772  -19.4260  -44.7115 C.3       9 UNK         0.1400 
     28 CB         -3.6276  -18.9611  -43.5202 C.3       9 UNK        -0.1800 
     29 N          -1.6557  -18.5076  -44.9121 N.am      9 UNK        -0.5000 
     30 C          -0.8208  -18.5420  -45.9614 C.2       8 UNK         0.5000 
     31 O          -0.9326  -19.3336  -46.8963 O.2       8 UNK        -0.5000 
     32 CA          0.3703  -17.5661  -45.9370 C.3       8 UNK         0.1400 
     33 CB         -0.0678  -16.1529  -46.3423 C.3       8 UNK        -0.1800 
     34 N           1.0228  -17.5109  -44.6298 N.am      8 UNK        -0.5000 
     35 C           1.6069  -18.5523  -44.0219 C.2       7 UNK         0.5000 
     36 O           1.6949  -19.6749  -44.5159 O.2       7 UNK        -0.5000 
     37 CA          2.1302  -18.3130  -42.5977 C.3       7 UNK         0.1400 
     38 CB          3.4931  -17.6056  -42.6252 C.3       7 UNK        -0.1800 
     39 N           1.1803  -17.5393  -41.7987 N.am      7 UNK        -0.5000 
     40 C          -0.0041  -18.0054  -41.3772 C.2       6 UNK         0.5000 
     41 O          -0.4066  -19.1488  -41.5937 O.2       6 UNK        -0.5000 
     42 CA         -0.9052  -17.0123  -40.6206 C.3       6 UNK         0.1400 
     43 CB         -0.4899  -16.9162  -39.1449 C.3       6 UNK        -0.1800 
     44 N          -0.8949  -15.6757  -41.2180 N.am      6 UNK        -0.5000 
     45 C          -1.3919  -15.3910  -42.4295 C.2       5 UNK         0.5000 
     46 O          -1.9332  -16.2212  -43.1576 O.2       5 UNK        -0.5000 
     47 CA         -1.2153  -13.9491  -42.9367 C.3       5 UNK         0.1400 
     48 CB         -2.3647  -13.0547  -42.4513 C.3       5 UNK        -0.1800 
     49 N           0.0639  -13.3369  -42.5693 N.am      5 UNK        -0.5000 
     50 C           1.2741  -13.8143  -42.8877 C.2       4 UNK         0.5000 
     51 O           1.4487  -14.8696  -43.4990 O.2       4 UNK        -0.5000 
     52 CA          2.4722  -12.9460  -42.4622 C.3       4 UNK         0.1400 
     53 CB          3.8244  -13.6527  -42.6615 C.3       4 UNK        -0.1800 
     54 N           2.4714  -11.6862  -43.2054 N.am      4 UNK        -0.5000 
     55 C           1.7771  -10.5917  -42.8598 C.2       3 UNK         0.5000 
     56 O           1.0560  -10.5531  -41.8608 O.2       3 UNK        -0.5000 
     57 CA          1.8472   -9.3533  -43.7817 C.3       3 UNK         0.1400 
     58 CB          1.9959   -8.0384  -42.9884 C.3       3 UNK        -0.1800 
     59 N           2.8434   -9.4498  -44.8544 N.am      3 UNK        -0.5000 
     60 C           4.1826   -9.4607  -44.7515 C.2       2 UNK         0.5000 
     61 O           4.7899   -9.2952  -43.6927 O.2       2 UNK        -0.5000 
     62 CA          4.9683   -9.7364  -46.0581 C.3       2 UNK         0.1400 
     63 CB          6.3551  -10.3606  -45.7961 C.3       2 UNK        -0.1800 
     64 N           4.2180  -10.5427  -47.0344 N.am      2 UNK        -0.5000 
     65 C           3.6977  -11.7622  -46.8267 C.2       1 UNK         0.5000 
     66 O           3.8404  -12.3930  -45.7786 O.2       1 UNK        -0.5000 
     67 C           0.1134  -22.7558  -47.9214 C.2       11 UNK         0.5000 
     68 O           0.2620  -23.7438  -48.6393 O.2       11 UNK        -0.5000 
     69 N          -0.9856  -21.9874  -47.9497 N.am      12 UNK        -0.5000 
     70 CA         -2.1631  -22.2548  -48.7795 C.3       12 UNK         0.1400 
     71 CB         -3.1467  -21.0807  -48.6745 C.3       12 UNK        -0.1800 
     72 C          -2.8553  -23.5857  -48.4263 C.2       12 UNK         0.5000 
     73 O          -3.2556  -24.3205  -49.3301 O.2       12 UNK        -0.5000 
     74 N          -2.9465  -23.8946  -47.1249 N.am      13 UNK        -0.5000 
     75 CA         -3.4528  -25.1668  -46.6095 C.3       13 UNK         0.1400 
     76 CB         -3.6528  -25.0743  -45.0897 C.3       13 UNK        -0.1800 
     77 C          -2.5462  -26.3555  -46.9791 C.2       13 UNK         0.5000 
     78 O          -3.0582  -27.3944  -47.3949 O.2       13 UNK        -0.5000 
     79 N          -1.2211  -26.1740  -46.8777 N.am      14 UNK        -0.5000 
     80 CA         -0.2090  -27.1498  -47.2971 C.3       14 UNK         0.1400 
     81 CB          1.1797  -26.6882  -46.8306 C.3       14 UNK        -0.1800 
     82 C          -0.2186  -27.4114  -48.8167 C.2       14 UNK         0.5000 
     83 O           0.0047  -28.5454  -49.2408 O.2       14 UNK        -0.5000 
     84 N          -0.5321  -26.3723  -49.6026 N.am      15 UNK        -0.5000 
     85 CA         -0.7717  -26.4347  -51.0468 C.3       15 UNK         0.1400 
     86 CB         -0.6221  -25.0215  -51.6355 C.3       15 UNK        -0.1800 
     87 C          -2.1409  -27.0466  -51.4236 C.2       15 UNK         0.5000 
     88 O          -2.4190  -27.1965  -52.6139 O.2       15 UNK        -0.5000 
     89 N          -2.9649  -27.3862  -50.4200 N.am      16 UNK        -0.5000 
     90 CA         -4.2954  -27.9947  -50.5088 C.3       16 UNK         0.1400 
     91 CB         -4.2275  -29.3862  -51.1739 C.3       16 UNK        -0.1800 
     92 C          -5.3609  -27.0708  -51.1341 C.2       16 UNK         0.5000 
     93 O          -6.3294  -27.5723  -51.7061 O.2       16 UNK        -0.5000 
     94 N          -5.1756  -25.7510  -50.9712 N.am      17 UNK        -0.5000 
     95 CA         -6.0130  -24.6438  -51.4382 C.3       17 UNK         0.1400 
     96 CB         -7.3929  -24.6586  -50.7517 C.3       17 UNK        -0.1800 
     97 C          -6.1300  -24.5790  -52.9746 C.2       17 UNK         0.5000 
     98 O          -6.8993  -25.3282  -53.5803 O.2       17 UNK        -0.5000 
     99 N          -5.3754  -23.6541  -53.5776 N.am      18 UNK        -0.5000 
    100 CA        -5.4543  -23.3056  -54.9967 C.3       18 UNK         0.1400 
    101 CB        -4.1289  -22.6333  -55.3964 C.3       18 UNK        -0.1800 
    102 C         -6.6701  -22.3963  -55.2899 C.2       18 UNK         0.5000 
    103 O         -7.5336  -22.2059  -54.4282 O.2       18 UNK        -0.5000 
    104 N         -6.7174  -21.8204  -56.4990 N.am      19 UNK        -0.5000 
    105 CA        -7.6804  -20.7855  -56.8837 C.3       19 UNK         0.1400 
    106 CB        -7.5107  -20.4610  -58.3763 C.3       19 UNK        -0.1800 
    107 C         -7.4943  -19.5283  -56.0108 C.2       19 UNK         0.5000 
    108 O         -6.4169  -18.9326  -56.0365 O.2       19 UNK        -0.5000 
    109 N         -8.5244  -19.1967  -55.2189 N.am      20 UNK        -0.5000 
    110 CA        -8.5227  -18.1900  -54.1470 C.3       20 UNK         0.1400 
    111 CB        -8.2850  -16.7695  -54.7028 C.3       20 UNK        -0.1800 
    112 C         -7.5740  -18.5535  -52.9799 C.2       20 UNK         0.5000 
    113 O         -7.0158  -17.6636  -52.3349 O.2       20 UNK        -0.5000 
    114 N         -7.4151  -19.8629  -52.7318 N.am      21 UNK        -0.5000 
    115 CA        -6.5969  -20.5347  -51.7162 C.3       21 UNK         0.1400 
    116 CB        -6.9982  -20.1241  -50.2870 C.3       21 UNK        -0.1800 
    117 C         -5.0810  -20.3998  -51.9437 C.2       21 UNK         0.5000 
    118 O         -4.3870  -21.4164  -51.9916 O.2       21 UNK        -0.5000 
    119 N         -4.6011  -19.1603  -52.0716 N.am      22 UNK        -0.5000 
    120 CA        -3.2020  -18.8050  -52.3211 C.3       22 UNK         0.1400 
    121 C         -2.7386  -19.2366  -53.7411 C.2       22 UNK         0.5000 
    122 N         -1.7732  -20.1405  -53.8450 N.am      22 UNK        -0.7600 
    123 O         -3.2286  -18.7337  -54.7481 O.2       22 UNK        -0.5000 
    124 C124       -2.9826  -17.2925  -52.0609 C.3       23 UNK        -0.0398 
    125 S125       -1.2188  -16.8494  -51.9409 S.3       23 UNK        -0.2404 
    126 C126       -0.9040  -17.1349  -50.1737 C.3       23 UNK        -0.0205 
    127 H127       -0.7653  -13.3453  -46.3737 H         1 UNK         0.0600 
    128 H128       -0.7813  -11.9661  -45.2668 H         1 UNK         0.0600 
    129 H129       -1.5413  -11.8354  -46.8554 H         1 UNK         0.0600 
    130 H130        1.2406  -13.6244  -47.3585 H         1 UNK         0.3000 
    131 H131        2.6410  -11.5281  -48.6742 H         1 UNK         0.0600 
    132 H132        2.8309  -13.7071  -49.6000 H         1 UNK         0.0800 
    133 H133        4.4166  -13.2354  -49.0693 H         1 UNK         0.0800 
    134 H134        4.8652  -16.7972  -48.7897 H         1 UNK         0.0800 
    135 H135        4.2865  -15.6915  -50.0057 H         1 UNK         0.0800 
    136 H136        1.3158  -15.6836  -49.5299 H         1 UNK         0.1150 
    137 H137        0.0123  -19.6745  -50.3671 H         1 UNK         0.1150 
    138 H138        4.1431  -18.9120  -49.5273 H         1 UNK         0.1150 
    139 H139        1.5037  -21.4935  -50.3691 H         1 UNK         0.0800 
    140 H140        3.0573  -21.0549  -51.0328 H         1 UNK         0.0800 
    141 H141        1.5212  -20.3620  -47.5935 H         1 UNK         0.0800 
    142 H142        2.7602  -20.9422  -46.5321 H         1 UNK         0.0800 
    143 H143        1.8300  -23.2873  -46.7595 H         1 UNK         0.0600 
    144 H144        0.7685  -21.1597  -45.2278 H         1 UNK         0.3000 
    145 H145       -1.4377  -23.1046  -43.1936 H         1 UNK         0.0600 
    146 H146       -0.0654  -22.0006  -41.4547 H         1 UNK         0.0600 
    147 H147        0.8507  -23.2958  -42.2104 H         1 UNK         0.0600 
    148 H148        1.1860  -21.6217  -42.6354 H         1 UNK         0.0600 
    149 H149       -0.8695  -20.3195  -43.2125 H         1 UNK         0.3000 
    150 H150       -3.4014  -19.3869  -45.6064 H         1 UNK         0.0600 
    151 H151       -4.4680  -19.6357  -43.3520 H         1 UNK         0.0600 
    152 H152       -4.0395  -17.9672  -43.6956 H         1 UNK         0.0600 
    153 H153       -3.0451  -18.9238  -42.5991 H         1 UNK         0.0600 
    154 H154       -1.5299  -17.7880  -44.2057 H         1 UNK         0.3000 
    155 H155        1.1068  -17.9168  -46.6633 H         1 UNK         0.0600 
    156 H156       -0.5170  -16.1520  -47.3343 H         1 UNK         0.0600 
    157 H157        0.7829  -15.4724  -46.3649 H         1 UNK         0.0600 
    158 H158       -0.8040  -15.7475  -45.6490 H         1 UNK         0.0600 
    159 H159        1.0380  -16.6072  -44.1638 H         1 UNK         0.3000 
    160 H160        2.2635  -19.2856  -42.1192 H         1 UNK         0.0600 
    161 H161        3.4420  -16.6481  -43.1433 H         1 UNK         0.0600 
    162 H162        4.2337  -18.2152  -43.1442 H         1 UNK         0.0600 
    163 H163        3.8678  -17.4255  -41.6176 H         1 UNK         0.0600 
    164 H164        1.4063  -16.5690  -41.6385 H         1 UNK         0.3000 
    165 H165       -1.9276  -17.3943  -40.6621 H         1 UNK         0.0600 
    166 H166       -1.1725  -16.2772  -38.5844 H         1 UNK         0.0600 
    167 H167       -0.5040  -17.8989  -38.6716 H         1 UNK         0.0600 
    168 H168        0.5170  -16.5122  -39.0332 H         1 UNK         0.0600 
    169 H169       -0.4631  -14.9349  -40.6856 H         1 UNK         0.3000 
    170 H170       -1.2569  -13.9903  -44.0253 H         1 UNK         0.0600 
    171 H171       -3.3320  -13.4756  -42.7293 H         1 UNK         0.0600 
    172 H172       -2.3551  -12.9398  -41.3667 H         1 UNK         0.0600 
    173 H173       -2.3047  -12.0606  -42.8949 H         1 UNK         0.0600 
    174 H174        0.0233  -12.4453  -42.0894 H         1 UNK         0.3000 
    175 H175        2.3696  -12.7379  -41.3951 H         1 UNK         0.0600 
    176 H176        3.9673  -13.9807  -43.6914 H         1 UNK         0.0600 
    177 H177        4.6550  -12.9960  -42.4023 H         1 UNK         0.0600 
    178 H178        3.8971  -14.5338  -42.0237 H         1 UNK         0.0600 
    179 H179        2.9985  -11.6886  -44.0731 H         1 UNK         0.3000 
    180 H180        0.8817   -9.3146  -44.2879 H         1 UNK         0.0600 
    181 H181        2.8945   -8.0332  -42.3713 H         1 UNK         0.0600 
    182 H182        1.1462   -7.8870  -42.3217 H         1 UNK         0.0600 
    183 H183        2.0396   -7.1773  -43.6552 H         1 UNK         0.0600 
    184 H184        2.4439   -9.6330  -45.7688 H         1 UNK         0.3000 
    185 H185        5.1277   -8.7625  -46.5229 H         1 UNK         0.0600 
    186 H186        6.9754   -9.6988  -45.1907 H         1 UNK         0.0600 
    187 H187        6.2780  -11.3107  -45.2663 H         1 UNK         0.0600 
    188 H188        6.8897  -10.5393  -46.7289 H         1 UNK         0.0600 
    189 H189        4.0206  -10.0798  -47.9113 H         1 UNK         0.3000 
    190 H190       -1.0200  -21.1516  -47.3706 H         1 UNK         0.3000 
    191 H191       -1.8311  -22.3228  -49.8174 H         1 UNK         0.0600 
    192 H192       -3.4589  -20.9059  -47.6453 H         1 UNK         0.0600 
    193 H193       -4.0457  -21.2734  -49.2588 H         1 UNK         0.0600 
    194 H194       -2.7024  -20.1592  -49.0507 H         1 UNK         0.0600 
    195 H195       -2.6575  -23.2051  -46.4369 H         1 UNK         0.3000 
    196 H196       -4.4294  -25.3432  -47.0655 H         1 UNK         0.0600 
    197 H197       -4.0644  -26.0033  -44.6935 H         1 UNK         0.0600 
    198 H198       -4.3474  -24.2745  -44.8325 H         1 UNK         0.0600 
    199 H199       -2.7157  -24.8822  -44.5681 H         1 UNK         0.0600 
    200 H200       -0.8764  -25.3113  -46.4649 H         1 UNK         0.3000 
    201 H201       -0.4351  -28.0951  -46.7996 H         1 UNK         0.0600 
    202 H202        1.2108  -26.5636  -45.7481 H         1 UNK         0.0600 
    203 H203        1.4634  -25.7391  -47.2848 H         1 UNK         0.0600 
    204 H204        1.9436  -27.4200  -47.0962 H         1 UNK         0.0600 
    205 H205       -0.6131  -25.4554  -49.1736 H         1 UNK         0.3000 
    206 H206       -0.0033  -27.0687  -51.4935 H         1 UNK         0.0600 
    207 H207        0.3538  -24.5964  -51.3998 H         1 UNK         0.0600 
    208 H208       -0.7151  -25.0362  -52.7220 H         1 UNK         0.0600 
    209 H209       -1.3835  -24.3427  -51.2523 H         1 UNK         0.0600 
    210 H210       -2.6511  -27.2046  -49.4744 H         1 UNK         0.3000 
    211 H211       -4.6171  -28.1504  -49.4786 H         1 UNK         0.0600 
    212 H212       -3.9990  -29.3179  -52.2377 H         1 UNK         0.0600 
    213 H213       -5.1782  -29.9119  -51.0789 H         1 UNK         0.0600 
    214 H214       -3.4663  -30.0102  -50.7054 H         1 UNK         0.0600 
    215 H215       -4.3435  -25.4549  -50.4667 H         1 UNK         0.3000 
    216 H216       -5.5063  -23.7376  -51.1035 H         1 UNK         0.0600 
    217 H217       -7.9832  -23.7916  -51.0506 H         1 UNK         0.0600 
    218 H218       -7.2925  -24.6263  -49.6668 H         1 UNK         0.0600 
    219 H219       -7.9695  -25.5473  -51.0092 H         1 UNK         0.0600 
    220 H220       -4.8165  -23.0297  -53.0031 H         1 UNK         0.3000 
    221 H221       -5.5698  -24.2201  -55.5818 H         1 UNK         0.0600 
    222 H222       -4.0251  -21.6540  -54.9289 H         1 UNK         0.0600 
    223 H223       -3.2722  -23.2377  -55.0975 H         1 UNK         0.0600 
    224 H224       -4.0581  -22.4930  -56.4752 H         1 UNK         0.0600 
    225 H225       -5.9681  -21.9960  -57.1520 H         1 UNK         0.3000 
    226 H226       -8.6865  -21.1832  -56.7343 H         1 UNK         0.0600 
    227 H227       -7.6861  -21.3419  -58.9942 H         1 UNK         0.0600 
    228 H228       -8.2218  -19.6963  -58.6911 H         1 UNK         0.0600 
    229 H229       -6.5094  -20.0891  -58.5980 H         1 UNK         0.0600 
    230 H230       -9.3615  -19.7612  -55.2725 H         1 UNK         0.3000 
    231 H231       -9.5277  -18.2046  -53.7233 H         1 UNK         0.0600 
    232 H232       -8.9615  -16.5502  -55.5287 H         1 UNK         0.0600 
    233 H233       -7.2635  -16.6359  -55.0595 H         1 UNK         0.0600 
    234 H234       -8.4595  -16.0167  -53.9333 H         1 UNK         0.0600 
    235 H235       -7.8505  -20.5097  -53.3821 H         1 UNK         0.3000 
    236 H236       -6.8316  -21.5946  -51.8175 H         1 UNK         0.0600 
    237 H237       -6.4644  -20.7222  -49.5478 H         1 UNK         0.0600 
    238 H238       -6.7740  -19.0774  -50.0804 H         1 UNK         0.0600 
    239 H239       -8.0640  -20.2781  -50.1188 H         1 UNK         0.0600 
    240 H240       -5.2772  -18.4019  -52.0825 H         1 UNK         0.3000 
    241 H241       -2.6103  -19.3553  -51.5866 H         1 UNK         0.0600 
    242 H242       -1.4556  -20.4115  -54.7619 H         1 UNK         0.3800 
    243 H243       -1.3649  -20.5717  -53.0319 H         1 UNK         0.3800 
    244 H244       -3.4749  -16.9907  -51.1350 H         1 UNK         0.0800 
    245 H245       -3.4426  -16.6939  -52.8492 H         1 UNK         0.0800 
    246 H246       -1.6019  -17.8706  -49.7705 H         1 UNK         0.0800 
    247 H247       -1.0803  -16.2080  -49.6270 H         1 UNK         0.0800 
@<TRIPOS>BOND
     1    1    2 1    
     2    1  127 1    
     3    1  128 1    
     4    1  129 1    
     5    2    3 2    
     6    2    4 am   BACKBONE|DICT|INTERRES
     7    4    5 1    
     8    4  130 1    
     9    5    6 1    
    10    5   65 1    
    11    5  131 1    
    12    6    7 1    
    13    6  132 1    
    14    6  133 1    
    15    7    8 1    
    16    8    9 1    
    17    8  134 1    
    18    8  135 1    
    19    9   10 ar   
    20    9   14 ar   
    21   10   11 ar   
    22   10  136 1    
    23   11   12 ar   
    24   11  126 1    
    25   12   13 ar   
    26   12  137 1    
    27   13   14 ar   
    28   13   15 1    
    29   14  138 1    
    30   15   16 1    
    31   15  139 1    
    32   15  140 1    
    33   16   17 1    
    34   17   18 1    
    35   17  141 1    
    36   17  142 1    
    37   18   19 1    
    38   18   67 1    
    39   18  143 1    
    40   19   20 am   BACKBONE|DICT|INTERRES
    41   19  144 1    
    42   20   21 2    
    43   20   22 1    
    44   22   23 1    
    45   22   24 1    
    46   22  145 1    
    47   23  146 1    
    48   23  147 1    
    49   23  148 1    
    50   24   25 am   BACKBONE|DICT|INTERRES
    51   24  149 1    
    52   25   26 2    
    53   25   27 1    
    54   27   28 1    
    55   27   29 1    
    56   27  150 1    
    57   28  151 1    
    58   28  152 1    
    59   28  153 1    
    60   29   30 am   BACKBONE|DICT|INTERRES
    61   29  154 1    
    62   30   31 2    
    63   30   32 1    
    64   32   33 1    
    65   32   34 1    
    66   32  155 1    
    67   33  156 1    
    68   33  157 1    
    69   33  158 1    
    70   34   35 am   BACKBONE|DICT|INTERRES
    71   34  159 1    
    72   35   36 2    
    73   35   37 1    
    74   37   38 1    
    75   37   39 1    
    76   37  160 1    
    77   38  161 1    
    78   38  162 1    
    79   38  163 1    
    80   39   40 am   BACKBONE|DICT|INTERRES
    81   39  164 1    
    82   40   41 2    
    83   40   42 1    
    84   42   43 1    
    85   42   44 1    
    86   42  165 1    
    87   43  166 1    
    88   43  167 1    
    89   43  168 1    
    90   44   45 am   BACKBONE|DICT|INTERRES
    91   44  169 1    
    92   45   46 2    
    93   45   47 1    
    94   47   48 1    
    95   47   49 1    
    96   47  170 1    
    97   48  171 1    
    98   48  172 1    
    99   48  173 1    
   100   49   50 am   BACKBONE|DICT|INTERRES
   101   49  174 1    
   102   50   51 2    
   103   50   52 1    
   104   52   53 1    
   105   52   54 1    
   106   52  175 1    
   107   53  176 1    
   108   53  177 1    
   109   53  178 1    
   110   54   55 am   BACKBONE|DICT|INTERRES
   111   54  179 1    
   112   55   56 2    
   113   55   57 1    
   114   57   58 1    
   115   57   59 1    
   116   57  180 1    
   117   58  181 1    
   118   58  182 1    
   119   58  183 1    
   120   59   60 am   BACKBONE|DICT|INTERRES
   121   59  184 1    
   122   60   61 2    
   123   60   62 1    
   124   62   63 1    
   125   62   64 1    
   126   62  185 1    
   127   63  186 1    
   128   63  187 1    
   129   63  188 1    
   130   64   65 am   BACKBONE|DICT|INTERRES
   131   64  189 1    
   132   65   66 2    
   133   67   68 2    
   134   67   69 am   BACKBONE|DICT|INTERRES
   135   69   70 1    
   136   69  190 1    
   137   70   71 1    
   138   70   72 1    
   139   70  191 1    
   140   71  192 1    
   141   71  193 1    
   142   71  194 1    
   143   72   73 2    
   144   72   74 am   BACKBONE|DICT|INTERRES
   145   74   75 1    
   146   74  195 1    
   147   75   76 1    
   148   75   77 1    
   149   75  196 1    
   150   76  197 1    
   151   76  198 1    
   152   76  199 1    
   153   77   78 2    
   154   77   79 am   BACKBONE|DICT|INTERRES
   155   79   80 1    
   156   79  200 1    
   157   80   81 1    
   158   80   82 1    
   159   80  201 1    
   160   81  202 1    
   161   81  203 1    
   162   81  204 1    
   163   82   83 2    
   164   82   84 am   BACKBONE|DICT|INTERRES
   165   84   85 1    
   166   84  205 1    
   167   85   86 1    
   168   85   87 1    
   169   85  206 1    
   170   86  207 1    
   171   86  208 1    
   172   86  209 1    
   173   87   88 2    
   174   87   89 am   BACKBONE|DICT|INTERRES
   175   89   90 1    
   176   89  210 1    
   177   90   91 1    
   178   90   92 1    
   179   90  211 1    
   180   91  212 1    
   181   91  213 1    
   182   91  214 1    
   183   92   93 2    
   184   92   94 am   BACKBONE|DICT|INTERRES
   185   94   95 1    
   186   94  215 1    
   187   95   96 1    
   188   95   97 1    
   189   95  216 1    
   190   96  217 1    
   191   96  218 1    
   192   96  219 1    
   193   97   98 2    
   194   97   99 am   BACKBONE|DICT|INTERRES
   195   99  100 1    
   196   99  220 1    
   197  100  101 1    
   198  100  102 1    
   199  100  221 1    
   200  101  222 1    
   201  101  223 1    
   202  101  224 1    
   203  102  103 2    
   204  102  104 am   BACKBONE|DICT|INTERRES
   205  104  105 1    
   206  104  225 1    
   207  105  106 1    
   208  105  107 1    
   209  105  226 1    
   210  106  227 1    
   211  106  228 1    
   212  106  229 1    
   213  107  108 2    
   214  107  109 am   BACKBONE|DICT|INTERRES
   215  109  110 1    
   216  109  230 1    
   217  110  111 1    
   218  110  112 1    
   219  110  231 1    
   220  111  232 1    
   221  111  233 1    
   222  111  234 1    
   223  112  113 2    
   224  112  114 am   BACKBONE|DICT|INTERRES
   225  114  115 1    
   226  114  235 1    
   227  115  116 1    
   228  115  117 1    
   229  115  236 1    
   230  116  237 1    
   231  116  238 1    
   232  116  239 1    
   233  117  118 2    
   234  117  119 am   BACKBONE|DICT|INTERRES
   235  119  120 1    
   236  119  240 1    
   237  120  121 1    
   238  120  124 1    
   239  120  241 1    
   240  121  122 am   BACKBONE|DICT|INTERRES
   241  121  123 2    
   242  122  242 1    
   243  122  243 1    
   244  124  125 1    
   245  124  244 1    
   246  124  245 1    
   247  125  126 1    
   248  126  246 1    
   249  126  247 1    
@<TRIPOS>SUBSTRUCTURE
     1 UNK         1 GROUP             0       ****    0 ROOT    
