@<TRIPOS>MOLECULE
3R540
247   249    1
SMALL
USER_CHARGES


@<TRIPOS>ATOM
      1 CA         -5.3223  -16.5860  -46.6082 C.3       0 UNK        -0.1800 
      2 C          -5.3654  -15.3360  -47.4744 C.2       0 UNK         0.5000 
      3 O          -6.2433  -14.4932  -47.2908 O.2       0 UNK        -0.5000 
      4 N          -4.4179  -15.2119  -48.4143 N.am      1 UNK        -0.5000 
      5 CA         -4.2737  -14.0665  -49.3268 C.3       1 UNK         0.1400 
      6 C6         -3.4048  -14.4553  -50.5686 C.3       23 UNK        -0.0398 
      7 S7         -1.9867  -13.4074  -51.0726 S.3       23 UNK        -0.2404 
      8 C8         -0.6411  -13.9813  -49.9833 C.3       23 UNK        -0.0205 
      9 C9         -0.2921  -15.4470  -50.1934 C.ar      23 UNK        -0.0193 
     10 C10         0.4886  -15.8411  -51.2843 C.ar      23 UNK        -0.1150 
     11 C11         0.8177  -17.1875  -51.4677 C.ar      23 UNK        -0.0193 
     12 C12         0.3438  -18.1410  -50.5626 C.ar      23 UNK        -0.1150 
     13 C13        -0.4335  -17.7600  -49.4647 C.ar      23 UNK        -0.0193 
     14 C14        -0.7370  -16.4083  -49.2814 C.ar      23 UNK        -0.1150 
     15 C15        -0.9663  -18.7993  -48.4879 C.3       23 UNK        -0.0205 
     16 S16         0.3677  -19.6540  -47.5847 S.3       23 UNK        -0.2404 
     17 C17         0.5461  -21.1673  -48.5936 C.3       23 UNK        -0.0398 
     18 CA         -0.0076  -22.4637  -47.9533 C.3       11 UNK         0.1400 
     19 N           0.8564  -22.9704  -46.8843 N.am      11 UNK        -0.5000 
     20 C           0.8314  -24.2396  -46.4534 C.2       10 UNK         0.5000 
     21 O           0.0799  -25.0981  -46.9127 O.2       10 UNK        -0.5000 
     22 CA          1.7644  -24.5988  -45.2854 C.3       10 UNK         0.1400 
     23 CB          3.1853  -24.8844  -45.7928 C.3       10 UNK        -0.1800 
     24 N           1.8173  -23.5607  -44.2572 N.am      10 UNK        -0.5000 
     25 C           0.7829  -23.1451  -43.5179 C.2       9 UNK         0.5000 
     26 O          -0.3585  -23.5878  -43.6475 O.2       9 UNK        -0.5000 
     27 CA          1.0520  -22.0376  -42.4807 C.3       9 UNK         0.1400 
     28 CB          1.6170  -22.6220  -41.1736 C.3       9 UNK        -0.1800 
     29 N           1.8753  -20.9230  -42.9671 N.am      9 UNK        -0.5000 
     30 C           3.1642  -20.9075  -43.3394 C.2       8 UNK         0.5000 
     31 O           3.8900  -21.9022  -43.3666 O.2       8 UNK        -0.5000 
     32 CA          3.7372  -19.5426  -43.7577 C.3       8 UNK         0.1400 
     33 CB          3.2980  -19.1879  -45.1863 C.3       8 UNK        -0.1800 
     34 N           3.3400  -18.4687  -42.8485 N.am      8 UNK        -0.5000 
     35 C           3.7475  -18.3504  -41.5767 C.2       7 UNK         0.5000 
     36 O           4.5589  -19.1065  -41.0414 O.2       7 UNK        -0.5000 
     37 CA          3.1281  -17.2021  -40.7600 C.3       7 UNK         0.1400 
     38 CB          3.8274  -15.8675  -41.0625 C.3       7 UNK        -0.1800 
     39 N           1.6929  -17.0729  -41.0099 N.am      7 UNK        -0.5000 
     40 C           0.7650  -17.9207  -40.5436 C.2       6 UNK         0.5000 
     41 O           1.0129  -18.8624  -39.7903 O.2       6 UNK        -0.5000 
     42 CA         -0.6836  -17.6864  -41.0081 C.3       6 UNK         0.1400 
     43 CB         -1.4228  -16.7567  -40.0342 C.3       6 UNK        -0.1800 
     44 N          -0.7547  -17.1269  -42.3578 N.am      6 UNK        -0.5000 
     45 C          -0.4926  -17.8204  -43.4747 C.2       5 UNK         0.5000 
     46 O          -0.1739  -19.0085  -43.4842 O.2       5 UNK        -0.5000 
     47 CA         -0.5609  -17.0434  -44.8009 C.3       5 UNK         0.1400 
     48 CB         -2.0115  -16.9928  -45.3020 C.3       5 UNK        -0.1800 
     49 N          -0.0317  -15.6824  -44.6928 N.am      5 UNK        -0.5000 
     50 C           1.2324  -15.3834  -44.3516 C.2       4 UNK         0.5000 
     51 O           2.0928  -16.2361  -44.1372 O.2       4 UNK        -0.5000 
     52 CA          1.6024  -13.8967  -44.1718 C.3       4 UNK         0.1400 
     53 CB          2.3173  -13.3738  -45.4265 C.3       4 UNK        -0.1800 
     54 N           0.4627  -13.0268  -43.8815 N.am      4 UNK        -0.5000 
     55 C          -0.3719  -13.1385  -42.8379 C.2       3 UNK         0.5000 
     56 O          -0.2226  -13.9553  -41.9283 O.2       3 UNK        -0.5000 
     57 CA         -1.6192  -12.2281  -42.8533 C.3       3 UNK         0.1400 
     58 CB         -1.3988  -11.0026  -41.9542 C.3       3 UNK        -0.1800 
     59 N          -2.0186  -11.7752  -44.1948 N.am      3 UNK        -0.5000 
     60 C          -2.3400  -12.5811  -45.2165 C.2       2 UNK         0.5000 
     61 O          -2.3323  -13.8138  -45.1400 O.2       2 UNK        -0.5000 
     62 CA         -2.6598  -11.9063  -46.5585 C.3       2 UNK         0.1400 
     63 CB         -1.4090  -11.2308  -47.1534 C.3       2 UNK        -0.1800 
     64 N          -3.1396  -12.9419  -47.4619 N.am      2 UNK        -0.5000 
     65 C          -3.8494  -12.7753  -48.5822 C.2       1 UNK         0.5000 
     66 O          -4.1909  -11.6745  -49.0178 O.2       1 UNK        -0.5000 
     67 C          -1.4800  -22.3452  -47.4951 C.2       11 UNK         0.5000 
     68 O          -2.3930  -22.5831  -48.2899 O.2       11 UNK        -0.5000 
     69 N          -1.6864  -22.0168  -46.2106 N.am      12 UNK        -0.5000 
     70 CA         -3.0008  -21.9517  -45.5749 C.3       12 UNK         0.1400 
     71 CB         -2.8978  -21.2397  -44.2185 C.3       12 UNK        -0.1800 
     72 C          -3.6444  -23.3423  -45.4380 C.2       12 UNK         0.5000 
     73 O          -4.8505  -23.4775  -45.6409 O.2       12 UNK        -0.5000 
     74 N          -2.8195  -24.3565  -45.1456 N.am      13 UNK        -0.5000 
     75 CA         -3.2111  -25.7644  -45.1602 C.3       13 UNK         0.1400 
     76 CB         -2.1189  -26.6037  -44.4797 C.3       13 UNK        -0.1800 
     77 C          -3.4986  -26.2821  -46.5841 C.2       13 UNK         0.5000 
     78 O          -4.4143  -27.0873  -46.7563 O.2       13 UNK        -0.5000 
     79 N          -2.7181  -25.8161  -47.5712 N.am      14 UNK        -0.5000 
     80 CA         -2.8372  -26.1956  -48.9786 C.3       14 UNK         0.1400 
     81 CB         -1.6023  -25.7262  -49.7643 C.3       14 UNK        -0.1800 
     82 C          -4.1317  -25.6894  -49.6384 C.2       14 UNK         0.5000 
     83 O          -4.8712  -26.5042  -50.1930 O.2       14 UNK        -0.5000 
     84 N          -4.3851  -24.3727  -49.5784 N.am      15 UNK        -0.5000 
     85 CA         -5.5606  -23.7567  -50.2085 C.3       15 UNK         0.1400 
     86 CB         -5.4256  -23.7600  -51.7476 C.3       15 UNK        -0.1800 
     87 C          -5.9257  -22.3550  -49.6849 C.2       15 UNK         0.5000 
     88 O          -7.0781  -21.9594  -49.8650 O.2       15 UNK        -0.5000 
     89 N          -4.9864  -21.6323  -49.0497 N.am      16 UNK        -0.5000 
     90 CA         -5.1790  -20.3002  -48.4512 C.3       16 UNK         0.1400 
     91 CB         -6.1309  -20.3906  -47.2358 C.3       16 UNK        -0.1800 
     92 C          -5.6371  -19.2281  -49.4678 C.2       16 UNK         0.5000 
     93 O          -6.6109  -18.5146  -49.2194 O.2       16 UNK        -0.5000 
     94 N          -4.9362  -19.1408  -50.6030 N.am      17 UNK        -0.5000 
     95 CA         -5.2668  -18.2581  -51.7206 C.3       17 UNK         0.1400 
     96 CB         -6.0955  -19.0526  -52.7458 C.3       17 UNK        -0.1800 
     97 C          -3.9879  -17.6823  -52.3474 C.2       17 UNK         0.5000 
     98 O          -2.8868  -18.0976  -51.9898 O.2       17 UNK        -0.5000 
     99 N          -4.1589  -16.7309  -53.2747 N.am      18 UNK        -0.5000 
    100 CA        -3.0743  -16.0633  -54.0069 C.3       18 UNK         0.1400 
    101 CB        -3.5959  -14.7122  -54.5272 C.3       18 UNK        -0.1800 
    102 C         -2.5028  -16.8984  -55.1743 C.2       18 UNK         0.5000 
    103 O         -1.5558  -16.4568  -55.8266 O.2       18 UNK        -0.5000 
    104 N         -3.0956  -18.0663  -55.4393 N.am      19 UNK        -0.5000 
    105 CA        -2.6848  -19.0403  -56.4417 C.3       19 UNK         0.1400 
    106 CB        -3.4173  -18.7582  -57.7640 C.3       19 UNK        -0.1800 
    107 C         -3.0176  -20.4389  -55.9047 C.2       19 UNK         0.5000 
    108 O         -3.8104  -20.5567  -54.9660 O.2       19 UNK        -0.5000 
    109 N         -2.3931  -21.4710  -56.4895 N.am      20 UNK        -0.5000 
    110 CA        -2.4747  -22.9047  -56.1560 C.3       20 UNK         0.1400 
    111 CB        -3.9155  -23.4393  -56.2698 C.3       20 UNK        -0.1800 
    112 C         -1.8500  -23.2676  -54.7933 C.2       20 UNK         0.5000 
    113 O         -1.0548  -24.2049  -54.7181 O.2       20 UNK        -0.5000 
    114 N         -2.1714  -22.4830  -53.7577 N.am      21 UNK        -0.5000 
    115 CA        -1.6043  -22.5329  -52.4089 C.3       21 UNK         0.1400 
    116 CB        -2.2923  -21.4506  -51.5652 C.3       21 UNK        -0.1800 
    117 C         -0.0835  -22.2915  -52.3829 C.2       21 UNK         0.5000 
    118 O          0.6059  -22.8082  -51.5046 O.2       21 UNK        -0.5000 
    119 N          0.3924  -21.4930  -53.3444 N.am      22 UNK        -0.5000 
    120 CA         1.7892  -21.0740  -53.5157 C.3       22 UNK         0.1400 
    121 C          2.7461  -22.1890  -54.0334 C.2       22 UNK         0.5000 
    122 N          2.2581  -23.3534  -54.4463 N.am      22 UNK        -0.7600 
    123 O          3.9578  -21.9929  -54.0585 O.2       22 UNK        -0.5000 
    124 C124        1.8945  -19.8025  -54.4024 C.3       23 UNK        -0.0398 
    125 S125        0.7399  -18.4736  -53.9097 S.3       23 UNK        -0.2404 
    126 C126        1.7035  -17.6227  -52.6243 C.3       23 UNK        -0.0205 
    127 H127       -4.5867  -17.3054  -46.9679 H         1 UNK         0.0600 
    128 H128       -6.2989  -17.0698  -46.6077 H         1 UNK         0.0600 
    129 H129       -5.0713  -16.3217  -45.5811 H         1 UNK         0.0600 
    130 H130       -3.7366  -15.9474  -48.5219 H         1 UNK         0.3000 
    131 H131       -5.2767  -13.8537  -49.7045 H         1 UNK         0.0600 
    132 H132       -4.0691  -14.4831  -51.4313 H         1 UNK         0.0800 
    133 H133       -3.0458  -15.4808  -50.4908 H         1 UNK         0.0800 
    134 H134       -0.9119  -13.7997  -48.9434 H         1 UNK         0.0800 
    135 H135        0.2436  -13.3715  -50.1718 H         1 UNK         0.0800 
    136 H136        0.8427  -15.0984  -51.9852 H         1 UNK         0.1150 
    137 H137        0.5876  -19.1803  -50.7208 H         1 UNK         0.1150 
    138 H138       -1.3299  -16.1006  -48.4335 H         1 UNK         0.1150 
    139 H139       -1.5935  -19.5120  -49.0240 H         1 UNK         0.0800 
    140 H140       -1.6222  -18.3296  -47.7571 H         1 UNK         0.0800 
    141 H141        1.6039  -21.2956  -48.8270 H         1 UNK         0.0800 
    142 H142        0.0661  -21.0163  -49.5581 H         1 UNK         0.0800 
    143 H143        0.0057  -23.2150  -48.7450 H         1 UNK         0.0600 
    144 H144        1.4878  -22.3129  -46.4510 H         1 UNK         0.3000 
    145 H145        1.3771  -25.5078  -44.8206 H         1 UNK         0.0600 
    146 H146        3.8310  -25.2250  -44.9832 H         1 UNK         0.0600 
    147 H147        3.1791  -25.6658  -46.5539 H         1 UNK         0.0600 
    148 H148        3.6420  -23.9976  -46.2341 H         1 UNK         0.0600 
    149 H149        2.7216  -23.1345  -44.0685 H         1 UNK         0.3000 
    150 H150        0.0827  -21.5956  -42.2444 H         1 UNK         0.0600 
    151 H151        0.9458  -23.3778  -40.7641 H         1 UNK         0.0600 
    152 H152        1.7344  -21.8460  -40.4167 H         1 UNK         0.0600 
    153 H153        2.5880  -23.0950  -41.3225 H         1 UNK         0.0600 
    154 H154        1.3540  -20.0552  -43.0658 H         1 UNK         0.3000 
    155 H155        4.8266  -19.6168  -43.7432 H         1 UNK         0.0600 
    156 H156        3.5680  -19.9760  -45.8903 H         1 UNK         0.0600 
    157 H157        3.7739  -18.2684  -45.5274 H         1 UNK         0.0600 
    158 H158        2.2189  -19.0443  -45.2489 H         1 UNK         0.0600 
    159 H159        2.7259  -17.7549  -43.2326 H         1 UNK         0.3000 
    160 H160        3.2746  -17.4256  -39.7010 H         1 UNK         0.0600 
    161 H161        3.7432  -15.5920  -42.1136 H         1 UNK         0.0600 
    162 H162        4.8904  -15.9251  -40.8253 H         1 UNK         0.0600 
    163 H163        3.4052  -15.0570  -40.4682 H         1 UNK         0.0600 
    164 H164        1.4002  -16.3341  -41.6326 H         1 UNK         0.3000 
    165 H165       -1.1930  -18.6526  -41.0091 H         1 UNK         0.0600 
    166 H166       -2.4636  -16.6229  -40.3293 H         1 UNK         0.0600 
    167 H167       -1.4216  -17.1698  -39.0247 H         1 UNK         0.0600 
    168 H168       -0.9580  -15.7713  -39.9856 H         1 UNK         0.0600 
    169 H169       -0.9584  -16.1387  -42.4309 H         1 UNK         0.3000 
    170 H170        0.0449  -17.5756  -45.5353 H         1 UNK         0.0600 
    171 H171       -2.4046  -17.9967  -45.4652 H         1 UNK         0.0600 
    172 H172       -2.6667  -16.4985  -44.5836 H         1 UNK         0.0600 
    173 H173       -2.0875  -16.4510  -46.2433 H         1 UNK         0.0600 
    174 H174       -0.6974  -14.9298  -44.8361 H         1 UNK         0.3000 
    175 H175        2.2916  -13.8314  -43.3278 H         1 UNK         0.0600 
    176 H176        1.6632  -13.3934  -46.2994 H         1 UNK         0.0600 
    177 H177        2.6627  -12.3493  -45.2871 H         1 UNK         0.0600 
    178 H178        3.1930  -13.9814  -45.6591 H         1 UNK         0.0600 
    179 H179        0.2522  -12.3229  -44.5726 H         1 UNK         0.3000 
    180 H180       -2.4465  -12.8106  -42.4428 H         1 UNK         0.0600 
    181 H181       -0.6000  -10.3641  -42.3334 H         1 UNK         0.0600 
    182 H182       -1.1257  -11.3042  -40.9420 H         1 UNK         0.0600 
    183 H183       -2.3043  -10.4004  -41.8782 H         1 UNK         0.0600 
    184 H184       -2.0395  -10.7756  -44.3381 H         1 UNK         0.3000 
    185 H185       -3.4490  -11.1688  -46.3998 H         1 UNK         0.0600 
    186 H186       -0.5888  -11.9393  -47.2751 H         1 UNK         0.0600 
    187 H187       -1.6188  -10.7954  -48.1305 H         1 UNK         0.0600 
    188 H188       -1.0534  -10.4226  -46.5137 H         1 UNK         0.0600 
    189 H189       -2.9742  -13.8785  -47.1147 H         1 UNK         0.3000 
    190 H190       -0.8867  -21.8556  -45.6168 H         1 UNK         0.3000 
    191 H191       -3.6405  -21.3476  -46.2147 H         1 UNK         0.0600 
    192 H192       -3.8811  -21.1406  -43.7572 H         1 UNK         0.0600 
    193 H193       -2.4912  -20.2354  -44.3319 H         1 UNK         0.0600 
    194 H194       -2.2623  -21.7810  -43.5186 H         1 UNK         0.0600 
    195 H195       -1.8532  -24.1490  -44.9163 H         1 UNK         0.3000 
    196 H196       -4.1285  -25.8674  -44.5768 H         1 UNK         0.0600 
    197 H197       -2.4043  -27.6556  -44.4392 H         1 UNK         0.0600 
    198 H198       -1.9485  -26.2721  -43.4552 H         1 UNK         0.0600 
    199 H199       -1.1698  -26.5417  -45.0120 H         1 UNK         0.0600 
    200 H200       -1.9342  -25.2225  -47.3265 H         1 UNK         0.3000 
    201 H201       -2.8532  -27.2869  -49.0202 H         1 UNK         0.0600 
    202 H202       -0.6850  -26.1387  -49.3445 H         1 UNK         0.0600 
    203 H203       -1.5117  -24.6414  -49.7692 H         1 UNK         0.0600 
    204 H204       -1.6567  -26.0510  -50.8041 H         1 UNK         0.0600 
    205 H205       -3.7426  -23.7711  -49.0734 H         1 UNK         0.3000 
    206 H206       -6.4247  -24.3750  -49.9552 H         1 UNK         0.0600 
    207 H207       -5.5630  -24.7625  -52.1521 H         1 UNK         0.0600 
    208 H208       -6.1758  -23.1247  -52.2206 H         1 UNK         0.0600 
    209 H209       -4.4479  -23.4132  -52.0731 H         1 UNK         0.0600 
    210 H210       -4.0565  -22.0221  -48.9307 H         1 UNK         0.3000 
    211 H211       -4.2010  -19.9817  -48.0882 H         1 UNK         0.0600 
    212 H212       -7.1655  -20.5476  -47.5428 H         1 UNK         0.0600 
    213 H213       -6.1024  -19.4746  -46.6469 H         1 UNK         0.0600 
    214 H214       -5.8687  -21.2103  -46.5708 H         1 UNK         0.0600 
    215 H215       -4.0977  -19.6904  -50.7271 H         1 UNK         0.3000 
    216 H216       -5.8540  -17.4076  -51.3678 H         1 UNK         0.0600 
    217 H217       -6.3426  -18.4519  -53.6215 H         1 UNK         0.0600 
    218 H218       -7.0368  -19.3874  -52.3093 H         1 UNK         0.0600 
    219 H219       -5.5613  -19.9381  -53.0903 H         1 UNK         0.0600 
    220 H220       -5.0970  -16.4523  -53.5245 H         1 UNK         0.3000 
    221 H221       -2.2513  -15.8699  -53.3147 H         1 UNK         0.0600 
    222 H222       -4.4075  -14.8445  -55.2436 H         1 UNK         0.0600 
    223 H223       -3.9632  -14.0831  -53.7176 H         1 UNK         0.0600 
    224 H224       -2.8042  -14.1540  -55.0286 H         1 UNK         0.0600 
    225 H225       -3.8240  -18.3977  -54.8206 H         1 UNK         0.3000 
    226 H226       -1.6050  -18.9796  -56.5942 H         1 UNK         0.0600 
    227 H227       -4.4995  -18.8242  -57.6447 H         1 UNK         0.0600 
    228 H228       -3.1825  -17.7619  -58.1393 H         1 UNK         0.0600 
    229 H229       -3.1265  -19.4718  -58.5357 H         1 UNK         0.0600 
    230 H230       -1.7528  -21.2580  -57.2421 H         1 UNK         0.3000 
    231 H231       -1.8807  -23.4156  -56.9155 H         1 UNK         0.0600 
    232 H232       -4.5746  -23.0139  -55.5126 H         1 UNK         0.0600 
    233 H233       -3.9369  -24.5224  -56.1433 H         1 UNK         0.0600 
    234 H234       -4.3417  -23.2179  -57.2482 H         1 UNK         0.0600 
    235 H235       -2.8394  -21.7387  -53.9456 H         1 UNK         0.3000 
    236 H236       -1.8133  -23.5159  -51.9837 H         1 UNK         0.0600 
    237 H237       -3.3773  -21.5168  -51.6109 H         1 UNK         0.0600 
    238 H238       -2.0005  -21.5256  -50.5219 H         1 UNK         0.0600 
    239 H239       -2.0079  -20.4561  -51.9065 H         1 UNK         0.0600 
    240 H240       -0.2648  -21.1033  -54.0023 H         1 UNK         0.3000 
    241 H241        2.1589  -20.8086  -52.5236 H         1 UNK         0.0600 
    242 H242        2.8898  -24.0665  -54.7754 H         1 UNK         0.3800 
    243 H243        1.2655  -23.5375  -54.4184 H         1 UNK         0.3800 
    244 H244        2.9127  -19.4095  -54.3962 H         1 UNK         0.0800 
    245 H245        1.6763  -20.0529  -55.4420 H         1 UNK         0.0800 
    246 H246        2.4835  -18.2798  -52.2374 H         1 UNK         0.0800 
    247 H247        2.2146  -16.7673  -53.0684 H         1 UNK         0.0800 
@<TRIPOS>BOND
     1    1    2 1    
     2    1  127 1    
     3    1  128 1    
     4    1  129 1    
     5    2    3 2    
     6    2    4 am   BACKBONE|DICT|INTERRES
     7    4    5 1    
     8    4  130 1    
     9    5    6 1    
    10    5   65 1    
    11    5  131 1    
    12    6    7 1    
    13    6  132 1    
    14    6  133 1    
    15    7    8 1    
    16    8    9 1    
    17    8  134 1    
    18    8  135 1    
    19    9   10 ar   
    20    9   14 ar   
    21   10   11 ar   
    22   10  136 1    
    23   11   12 ar   
    24   11  126 1    
    25   12   13 ar   
    26   12  137 1    
    27   13   14 ar   
    28   13   15 1    
    29   14  138 1    
    30   15   16 1    
    31   15  139 1    
    32   15  140 1    
    33   16   17 1    
    34   17   18 1    
    35   17  141 1    
    36   17  142 1    
    37   18   19 1    
    38   18   67 1    
    39   18  143 1    
    40   19   20 am   BACKBONE|DICT|INTERRES
    41   19  144 1    
    42   20   21 2    
    43   20   22 1    
    44   22   23 1    
    45   22   24 1    
    46   22  145 1    
    47   23  146 1    
    48   23  147 1    
    49   23  148 1    
    50   24   25 am   BACKBONE|DICT|INTERRES
    51   24  149 1    
    52   25   26 2    
    53   25   27 1    
    54   27   28 1    
    55   27   29 1    
    56   27  150 1    
    57   28  151 1    
    58   28  152 1    
    59   28  153 1    
    60   29   30 am   BACKBONE|DICT|INTERRES
    61   29  154 1    
    62   30   31 2    
    63   30   32 1    
    64   32   33 1    
    65   32   34 1    
    66   32  155 1    
    67   33  156 1    
    68   33  157 1    
    69   33  158 1    
    70   34   35 am   BACKBONE|DICT|INTERRES
    71   34  159 1    
    72   35   36 2    
    73   35   37 1    
    74   37   38 1    
    75   37   39 1    
    76   37  160 1    
    77   38  161 1    
    78   38  162 1    
    79   38  163 1    
    80   39   40 am   BACKBONE|DICT|INTERRES
    81   39  164 1    
    82   40   41 2    
    83   40   42 1    
    84   42   43 1    
    85   42   44 1    
    86   42  165 1    
    87   43  166 1    
    88   43  167 1    
    89   43  168 1    
    90   44   45 am   BACKBONE|DICT|INTERRES
    91   44  169 1    
    92   45   46 2    
    93   45   47 1    
    94   47   48 1    
    95   47   49 1    
    96   47  170 1    
    97   48  171 1    
    98   48  172 1    
    99   48  173 1    
   100   49   50 am   BACKBONE|DICT|INTERRES
   101   49  174 1    
   102   50   51 2    
   103   50   52 1    
   104   52   53 1    
   105   52   54 1    
   106   52  175 1    
   107   53  176 1    
   108   53  177 1    
   109   53  178 1    
   110   54   55 am   BACKBONE|DICT|INTERRES
   111   54  179 1    
   112   55   56 2    
   113   55   57 1    
   114   57   58 1    
   115   57   59 1    
   116   57  180 1    
   117   58  181 1    
   118   58  182 1    
   119   58  183 1    
   120   59   60 am   BACKBONE|DICT|INTERRES
   121   59  184 1    
   122   60   61 2    
   123   60   62 1    
   124   62   63 1    
   125   62   64 1    
   126   62  185 1    
   127   63  186 1    
   128   63  187 1    
   129   63  188 1    
   130   64   65 am   BACKBONE|DICT|INTERRES
   131   64  189 1    
   132   65   66 2    
   133   67   68 2    
   134   67   69 am   BACKBONE|DICT|INTERRES
   135   69   70 1    
   136   69  190 1    
   137   70   71 1    
   138   70   72 1    
   139   70  191 1    
   140   71  192 1    
   141   71  193 1    
   142   71  194 1    
   143   72   73 2    
   144   72   74 am   BACKBONE|DICT|INTERRES
   145   74   75 1    
   146   74  195 1    
   147   75   76 1    
   148   75   77 1    
   149   75  196 1    
   150   76  197 1    
   151   76  198 1    
   152   76  199 1    
   153   77   78 2    
   154   77   79 am   BACKBONE|DICT|INTERRES
   155   79   80 1    
   156   79  200 1    
   157   80   81 1    
   158   80   82 1    
   159   80  201 1    
   160   81  202 1    
   161   81  203 1    
   162   81  204 1    
   163   82   83 2    
   164   82   84 am   BACKBONE|DICT|INTERRES
   165   84   85 1    
   166   84  205 1    
   167   85   86 1    
   168   85   87 1    
   169   85  206 1    
   170   86  207 1    
   171   86  208 1    
   172   86  209 1    
   173   87   88 2    
   174   87   89 am   BACKBONE|DICT|INTERRES
   175   89   90 1    
   176   89  210 1    
   177   90   91 1    
   178   90   92 1    
   179   90  211 1    
   180   91  212 1    
   181   91  213 1    
   182   91  214 1    
   183   92   93 2    
   184   92   94 am   BACKBONE|DICT|INTERRES
   185   94   95 1    
   186   94  215 1    
   187   95   96 1    
   188   95   97 1    
   189   95  216 1    
   190   96  217 1    
   191   96  218 1    
   192   96  219 1    
   193   97   98 2    
   194   97   99 am   BACKBONE|DICT|INTERRES
   195   99  100 1    
   196   99  220 1    
   197  100  101 1    
   198  100  102 1    
   199  100  221 1    
   200  101  222 1    
   201  101  223 1    
   202  101  224 1    
   203  102  103 2    
   204  102  104 am   BACKBONE|DICT|INTERRES
   205  104  105 1    
   206  104  225 1    
   207  105  106 1    
   208  105  107 1    
   209  105  226 1    
   210  106  227 1    
   211  106  228 1    
   212  106  229 1    
   213  107  108 2    
   214  107  109 am   BACKBONE|DICT|INTERRES
   215  109  110 1    
   216  109  230 1    
   217  110  111 1    
   218  110  112 1    
   219  110  231 1    
   220  111  232 1    
   221  111  233 1    
   222  111  234 1    
   223  112  113 2    
   224  112  114 am   BACKBONE|DICT|INTERRES
   225  114  115 1    
   226  114  235 1    
   227  115  116 1    
   228  115  117 1    
   229  115  236 1    
   230  116  237 1    
   231  116  238 1    
   232  116  239 1    
   233  117  118 2    
   234  117  119 am   BACKBONE|DICT|INTERRES
   235  119  120 1    
   236  119  240 1    
   237  120  121 1    
   238  120  124 1    
   239  120  241 1    
   240  121  122 am   BACKBONE|DICT|INTERRES
   241  121  123 2    
   242  122  242 1    
   243  122  243 1    
   244  124  125 1    
   245  124  244 1    
   246  124  245 1    
   247  125  126 1    
   248  126  246 1    
   249  126  247 1    
@<TRIPOS>SUBSTRUCTURE
     1 UNK         1 GROUP             0       ****    0 ROOT    
