@<TRIPOS>MOLECULE
3R540
247   249    1
SMALL
USER_CHARGES


@<TRIPOS>ATOM
      1 CA          3.5456  -10.7732  -48.8285 C.3       0 UNK        -0.1800 
      2 C           3.6823  -12.1761  -48.2555 C.2       0 UNK         0.5000 
      3 O           3.3875  -12.3931  -47.0812 O.2       0 UNK        -0.5000 
      4 N           4.1161  -13.1374  -49.0792 N.am      1 UNK        -0.5000 
      5 CA          4.3050  -14.5435  -48.6978 C.3       1 UNK         0.1400 
      6 C6          5.2358  -15.2908  -49.6855 C.3       23 UNK        -0.0398 
      7 S7          4.7097  -15.2192  -51.4374 S.3       23 UNK        -0.2404 
      8 C8          4.8084  -16.9675  -51.9397 C.3       23 UNK        -0.0205 
      9 C9          3.5165  -17.7165  -51.6517 C.ar      23 UNK        -0.0193 
     10 C10         2.5450  -17.8478  -52.6477 C.ar      23 UNK        -0.1150 
     11 C11         1.3551  -18.5372  -52.3955 C.ar      23 UNK        -0.0193 
     12 C12         1.1361  -19.0932  -51.1310 C.ar      23 UNK        -0.1150 
     13 C13         2.1047  -18.9744  -50.1301 C.ar      23 UNK        -0.0193 
     14 C14         3.2942  -18.2930  -50.3992 C.ar      23 UNK        -0.1150 
     15 C15         1.8692  -19.5628  -48.7500 C.3       23 UNK        -0.0205 
     16 S16         2.7400  -21.1494  -48.5394 S.3       23 UNK        -0.2404 
     17 C17         2.4636  -21.4431  -46.7540 C.3       23 UNK        -0.0398 
     18 CA          1.3905  -22.4940  -46.3481 C.3       11 UNK         0.1400 
     19 N           0.9758  -22.2969  -44.9557 N.am      11 UNK        -0.5000 
     20 C           0.1652  -23.1028  -44.2556 C.2       10 UNK         0.5000 
     21 O          -0.2746  -24.1718  -44.6778 O.2       10 UNK        -0.5000 
     22 CA         -0.2746  -22.5952  -42.8698 C.3       10 UNK         0.1400 
     23 CB          0.8185  -22.8450  -41.8204 C.3       10 UNK        -0.1800 
     24 N          -0.6352  -21.1751  -42.8842 N.am      10 UNK        -0.5000 
     25 C          -1.6575  -20.6640  -43.5865 C.2       9 UNK         0.5000 
     26 O          -2.4375  -21.3471  -44.2478 O.2       9 UNK        -0.5000 
     27 CA         -1.8130  -19.1339  -43.5940 C.3       9 UNK         0.1400 
     28 CB         -2.5263  -18.6493  -42.3233 C.3       9 UNK        -0.1800 
     29 N          -0.5345  -18.4413  -43.7360 N.am      9 UNK        -0.5000 
     30 C           0.2656  -18.5095  -44.8084 C.2       8 UNK         0.5000 
     31 O          -0.0092  -19.1402  -45.8285 O.2       8 UNK        -0.5000 
     32 CA          1.6309  -17.8084  -44.6943 C.3       8 UNK         0.1400 
     33 CB          1.5072  -16.2989  -44.9266 C.3       8 UNK        -0.1800 
     34 N           2.2601  -18.0406  -43.3963 N.am      8 UNK        -0.5000 
     35 C           2.7119  -19.2254  -42.9664 C.2       7 UNK         0.5000 
     36 O           2.6773  -20.2579  -43.6361 O.2       7 UNK        -0.5000 
     37 CA          3.2586  -19.2617  -41.5281 C.3       7 UNK         0.1400 
     38 CB          4.7254  -18.8076  -41.4935 C.3       7 UNK        -0.1800 
     39 N           2.4709  -18.4360  -40.6088 N.am      7 UNK        -0.5000 
     40 C           1.2167  -18.7228  -40.2340 C.2       6 UNK         0.5000 
     41 O           0.5983  -19.7145  -40.6211 O.2       6 UNK        -0.5000 
     42 CA          0.5240  -17.7108  -39.3019 C.3       6 UNK         0.1400 
     43 CB          0.9918  -17.9010  -37.8510 C.3       6 UNK        -0.1800 
     44 N           0.7051  -16.3079  -39.6948 N.am      6 UNK        -0.5000 
     45 C           0.3160  -15.7928  -40.8681 C.2       5 UNK         0.5000 
     46 O          -0.1308  -16.4721  -41.7931 O.2       5 UNK        -0.5000 
     47 CA          0.4552  -14.2754  -41.0516 C.3       5 UNK         0.1400 
     48 CB          1.8642  -13.9123  -41.5465 C.3       5 UNK        -0.1800 
     49 N          -0.5266  -13.8457  -42.0440 N.am      5 UNK        -0.5000 
     50 C          -1.4022  -12.8464  -41.9105 C.2       4 UNK         0.5000 
     51 O          -1.4038  -12.0649  -40.9571 O.2       4 UNK        -0.5000 
     52 CA         -2.4410  -12.6972  -43.0452 C.3       4 UNK         0.1400 
     53 CB         -3.5347  -11.6649  -42.7158 C.3       4 UNK        -0.1800 
     54 N          -1.8138  -12.3238  -44.3145 N.am      4 UNK        -0.5000 
     55 C          -1.1454  -13.1544  -45.1244 C.2       3 UNK         0.5000 
     56 O          -1.0262  -14.3596  -44.8970 O.2       3 UNK        -0.5000 
     57 CA         -0.4922  -12.5116  -46.3678 C.3       3 UNK         0.1400 
     58 CB          0.5084  -11.4167  -45.9585 C.3       3 UNK        -0.1800 
     59 N           0.2012  -13.4775  -47.2257 N.am      3 UNK        -0.5000 
     60 C          -0.3979  -14.3799  -48.0176 C.2       2 UNK         0.5000 
     61 O          -1.6215  -14.4650  -48.1336 O.2       2 UNK        -0.5000 
     62 CA          0.5124  -15.3190  -48.8408 C.3       2 UNK         0.1400 
     63 CB         -0.0534  -15.5658  -50.2504 C.3       2 UNK        -0.1800 
     64 N           1.8663  -14.7772  -48.9779 N.am      2 UNK        -0.5000 
     65 C           2.9801  -15.3003  -48.4479 C.2       1 UNK         0.5000 
     66 O           2.9993  -16.3217  -47.7629 O.2       1 UNK        -0.5000 
     67 C           0.1653  -22.5510  -47.2880 C.2       11 UNK         0.5000 
     68 O           0.0328  -23.5045  -48.0563 O.2       11 UNK        -0.5000 
     69 N          -0.7274  -21.5577  -47.1746 N.am      12 UNK        -0.5000 
     70 CA         -1.9622  -21.4606  -47.9496 C.3       12 UNK         0.1400 
     71 CB         -2.6585  -20.1276  -47.6500 C.3       12 UNK        -0.1800 
     72 C          -2.9204  -22.6397  -47.7120 C.2       12 UNK         0.5000 
     73 O          -3.4708  -23.1681  -48.6758 O.2       12 UNK        -0.5000 
     74 N          -3.0783  -23.0513  -46.4470 N.am      13 UNK        -0.5000 
     75 CA         -3.8887  -24.2004  -46.0429 C.3       13 UNK         0.1400 
     76 CB         -4.0154  -24.2262  -44.5123 C.3       13 UNK        -0.1800 
     77 C          -3.3380  -25.5401  -46.5646 C.2       13 UNK         0.5000 
     78 O          -4.1245  -26.4025  -46.9571 O.2       13 UNK        -0.5000 
     79 N          -2.0058  -25.6881  -46.5698 N.am      14 UNK        -0.5000 
     80 CA         -1.3092  -26.8577  -47.1033 C.3       14 UNK         0.1400 
     81 CB          0.1547  -26.8439  -46.6366 C.3       14 UNK        -0.1800 
     82 C          -1.3957  -26.9452  -48.6378 C.2       14 UNK         0.5000 
     83 O          -1.6253  -28.0326  -49.1691 O.2       14 UNK        -0.5000 
     84 N          -1.2113  -25.8056  -49.3182 N.am      15 UNK        -0.5000 
     85 CA         -1.2879  -25.6878  -50.7741 C.3       15 UNK         0.1400 
     86 CB         -0.6595  -24.3557  -51.2085 C.3       15 UNK        -0.1800 
     87 C          -2.7254  -25.8359  -51.3088 C.2       15 UNK         0.5000 
     88 O          -2.9405  -26.5960  -52.2545 O.2       15 UNK        -0.5000 
     89 N          -3.6744  -25.1350  -50.6704 N.am      16 UNK        -0.5000 
     90 CA         -5.1137  -25.1165  -50.9449 C.3       16 UNK         0.1400 
     91 CB         -5.7456  -26.4628  -50.5255 C.3       16 UNK        -0.1800 
     92 C          -5.4568  -24.6862  -52.3911 C.2       16 UNK         0.5000 
     93 O          -4.7366  -23.8760  -52.9753 O.2       16 UNK        -0.5000 
     94 N          -6.5708  -25.2081  -52.9258 N.am      17 UNK        -0.5000 
     95 CA         -7.0976  -25.0643  -54.2925 C.3       17 UNK         0.1400 
     96 CB         -6.0700  -25.5514  -55.3343 C.3       17 UNK        -0.1800 
     97 C          -7.6572  -23.6744  -54.6685 C.2       17 UNK         0.5000 
     98 O          -8.3505  -23.5729  -55.6821 O.2       17 UNK        -0.5000 
     99 N          -7.3914  -22.6403  -53.8651 N.am      18 UNK        -0.5000 
    100 CA        -7.8550  -21.2689  -54.0549 C.3       18 UNK         0.1400 
    101 CB        -7.0292  -20.5811  -55.1602 C.3       18 UNK        -0.1800 
    102 C         -7.7295  -20.5069  -52.7292 C.2       18 UNK         0.5000 
    103 O         -7.0274  -20.9640  -51.8217 O.2       18 UNK        -0.5000 
    104 N         -8.3791  -19.3379  -52.6506 N.am      19 UNK        -0.5000 
    105 CA        -8.2516  -18.3841  -51.5463 C.3       19 UNK         0.1400 
    106 CB        -9.2238  -17.2156  -51.7673 C.3       19 UNK        -0.1800 
    107 C         -6.8017  -17.8798  -51.4387 C.2       19 UNK         0.5000 
    108 O         -6.2546  -17.3991  -52.4335 O.2       19 UNK        -0.5000 
    109 N         -6.1814  -18.0817  -50.2676 N.am      20 UNK        -0.5000 
    110 CA        -4.7574  -17.8492  -49.9736 C.3       20 UNK         0.1400 
    111 CB        -4.4261  -16.3440  -50.0440 C.3       20 UNK        -0.1800 
    112 C         -3.7884  -18.6945  -50.8388 C.2       20 UNK         0.5000 
    113 O         -2.5976  -18.3926  -50.8857 O.2       20 UNK        -0.5000 
    114 N         -4.3231  -19.7140  -51.5295 N.am      21 UNK        -0.5000 
    115 CA        -3.7041  -20.5705  -52.5462 C.3       21 UNK         0.1400 
    116 CB        -2.5585  -21.4029  -51.9447 C.3       21 UNK        -0.1800 
    117 C         -3.2889  -19.8563  -53.8526 C.2       21 UNK         0.5000 
    118 O         -2.8197  -20.5289  -54.7717 O.2       21 UNK        -0.5000 
    119 N         -3.4804  -18.5348  -53.9444 N.am      22 UNK        -0.5000 
    120 CA        -3.0820  -17.6941  -55.0844 C.3       22 UNK         0.1400 
    121 C         -3.7385  -16.2813  -55.1013 C.2       22 UNK         0.5000 
    122 N         -4.7442  -15.9818  -54.2886 N.am      22 UNK        -0.7600 
    123 O         -3.3494  -15.4293  -55.8960 O.2       22 UNK        -0.5000 
    124 C124       -1.5402  -17.6494  -55.3082 C.3       23 UNK        -0.0398 
    125 S125       -0.5695  -17.1518  -53.8395 S.3       23 UNK        -0.2404 
    126 C126        0.3257  -18.7005  -53.5017 C.3       23 UNK        -0.0205 
    127 H127        3.8995  -10.7203  -49.8583 H         1 UNK         0.0600 
    128 H128        4.1247  -10.0672  -48.2335 H         1 UNK         0.0600 
    129 H129        2.5017  -10.4603  -48.8106 H         1 UNK         0.0600 
    130 H130        4.3388  -12.9155  -50.0399 H         1 UNK         0.3000 
    131 H131        4.8205  -14.5405  -47.7346 H         1 UNK         0.0600 
    132 H132        6.2323  -14.8503  -49.6329 H         1 UNK         0.0800 
    133 H133        5.3689  -16.3258  -49.3694 H         1 UNK         0.0800 
    134 H134        5.6512  -17.4570  -51.4495 H         1 UNK         0.0800 
    135 H135        5.0236  -17.0066  -53.0086 H         1 UNK         0.0800 
    136 H136        2.7121  -17.4119  -53.6227 H         1 UNK         0.1150 
    137 H137        0.2134  -19.6166  -50.9250 H         1 UNK         0.1150 
    138 H138        4.0410  -18.2067  -49.6235 H         1 UNK         0.1150 
    139 H139        2.2117  -18.8530  -47.9963 H         1 UNK         0.0800 
    140 H140        0.8016  -19.7007  -48.5754 H         1 UNK         0.0800 
    141 H141        2.2264  -20.4834  -46.2983 H         1 UNK         0.0800 
    142 H142        3.4200  -21.7282  -46.3141 H         1 UNK         0.0800 
    143 H143        1.8632  -23.4769  -46.4032 H         1 UNK         0.0600 
    144 H144        1.3248  -21.4591  -44.5013 H         1 UNK         0.3000 
    145 H145       -1.1611  -23.1609  -42.5760 H         1 UNK         0.0600 
    146 H146        0.4794  -22.5607  -40.8242 H         1 UNK         0.0600 
    147 H147        1.0895  -23.9008  -41.7829 H         1 UNK         0.0600 
    148 H148        1.7251  -22.2803  -42.0380 H         1 UNK         0.0600 
    149 H149       -0.0719  -20.5535  -42.3123 H         1 UNK         0.3000 
    150 H150       -2.4319  -18.8651  -44.4520 H         1 UNK         0.0600 
    151 H151       -3.4923  -19.1416  -42.2052 H         1 UNK         0.0600 
    152 H152       -2.7101  -17.5754  -42.3615 H         1 UNK         0.0600 
    153 H153       -1.9392  -18.8554  -41.4280 H         1 UNK         0.0600 
    154 H154       -0.2576  -17.8451  -42.9585 H         1 UNK         0.3000 
    155 H155        2.2824  -18.2145  -45.4704 H         1 UNK         0.0600 
    156 H156        0.9592  -15.8133  -44.1217 H         1 UNK         0.0600 
    157 H157        0.9782  -16.0905  -45.8559 H         1 UNK         0.0600 
    158 H158        2.4873  -15.8272  -44.9964 H         1 UNK         0.0600 
    159 H159        2.2831  -17.2594  -42.7591 H         1 UNK         0.3000 
    160 H160        3.2146  -20.2966  -41.1819 H         1 UNK         0.0600 
    161 H161        4.8350  -17.7685  -41.8065 H         1 UNK         0.0600 
    162 H162        5.3378  -19.4174  -42.1592 H         1 UNK         0.0600 
    163 H163        5.1437  -18.9025  -40.4913 H         1 UNK         0.0600 
    164 H164        2.9061  -17.5988  -40.2501 H         1 UNK         0.3000 
    165 H165       -0.5469  -17.9216  -39.3387 H         1 UNK         0.0600 
    166 H166        0.4217  -17.2719  -37.1671 H         1 UNK         0.0600 
    167 H167        0.8554  -18.9343  -37.5288 H         1 UNK         0.0600 
    168 H168        2.0478  -17.6563  -37.7313 H         1 UNK         0.0600 
    169 H169        1.0802  -15.6900  -38.9895 H         1 UNK         0.3000 
    170 H170        0.2698  -13.7919  -40.0903 H         1 UNK         0.0600 
    171 H171        2.6250  -14.2223  -40.8292 H         1 UNK         0.0600 
    172 H172        2.0953  -14.3894  -42.4994 H         1 UNK         0.0600 
    173 H173        1.9652  -12.8353  -41.6818 H         1 UNK         0.0600 
    174 H174       -0.6143  -14.4526  -42.8542 H         1 UNK         0.3000 
    175 H175       -2.9304  -13.6662  -43.1654 H         1 UNK         0.0600 
    176 H176       -3.1229  -10.6613  -42.6016 H         1 UNK         0.0600 
    177 H177       -4.2914  -11.6293  -43.4997 H         1 UNK         0.0600 
    178 H178       -4.0452  -11.9193  -41.7860 H         1 UNK         0.0600 
    179 H179       -1.8479  -11.3424  -44.5487 H         1 UNK         0.3000 
    180 H180       -1.2884  -12.0478  -46.9536 H         1 UNK         0.0600 
    181 H181        1.3086  -11.8192  -45.3358 H         1 UNK         0.0600 
    182 H182        0.0259  -10.6172  -45.3959 H         1 UNK         0.0600 
    183 H183        0.9646  -10.9542  -46.8335 H         1 UNK         0.0600 
    184 H184        1.2102  -13.4845  -47.1647 H         1 UNK         0.3000 
    185 H185        0.5374  -16.2773  -48.3180 H         1 UNK         0.0600 
    186 H186        0.6227  -16.1818  -50.8423 H         1 UNK         0.0600 
    187 H187       -1.0077  -16.0915  -50.2069 H         1 UNK         0.0600 
    188 H188       -0.2128  -14.6329  -50.7919 H         1 UNK         0.0600 
    189 H189        1.9533  -13.9269  -49.5154 H         1 UNK         0.3000 
    190 H190       -0.5295  -20.7879  -46.5394 H         1 UNK         0.3000 
    191 H191       -1.6872  -21.4677  -49.0059 H         1 UNK         0.0600 
    192 H192       -3.6212  -20.0786  -48.1571 H         1 UNK         0.0600 
    193 H193       -2.0587  -19.2830  -47.9905 H         1 UNK         0.0600 
    194 H194       -2.8464  -19.9998  -46.5846 H         1 UNK         0.0600 
    195 H195       -2.6353  -22.5220  -45.6996 H         1 UNK         0.3000 
    196 H196       -4.8874  -24.0676  -46.4640 H         1 UNK         0.0600 
    197 H197       -3.0416  -24.3176  -44.0302 H         1 UNK         0.0600 
    198 H198       -4.4878  -23.3166  -44.1410 H         1 UNK         0.0600 
    199 H199       -4.6264  -25.0678  -44.1838 H         1 UNK         0.0600 
    200 H200       -1.4275  -24.9518  -46.1779 H         1 UNK         0.3000 
    201 H201       -1.7834  -27.7513  -46.6920 H         1 UNK         0.0600 
    202 H202        0.2205  -26.8672  -45.5488 H         1 UNK         0.0600 
    203 H203        0.6812  -25.9540  -46.9829 H         1 UNK         0.0600 
    204 H204        0.6939  -27.7135  -47.0143 H         1 UNK         0.0600 
    205 H205       -0.9701  -24.9622  -48.8040 H         1 UNK         0.3000 
    206 H206       -0.6920  -26.4923  -51.2106 H         1 UNK         0.0600 
    207 H207        0.4053  -24.3311  -50.9759 H         1 UNK         0.0600 
    208 H208       -0.7637  -24.2008  -52.2830 H         1 UNK         0.0600 
    209 H209       -1.1248  -23.5116  -50.7007 H         1 UNK         0.0600 
    210 H210       -3.3890  -24.5053  -49.9234 H         1 UNK         0.3000 
    211 H211       -5.5267  -24.3420  -50.2973 H         1 UNK         0.0600 
    212 H212       -6.8345  -26.4099  -50.5145 H         1 UNK         0.0600 
    213 H213       -5.4346  -26.7409  -49.5181 H         1 UNK         0.0600 
    214 H214       -5.4546  -27.2730  -51.1953 H         1 UNK         0.0600 
    215 H215       -7.1071  -25.8309  -52.3380 H         1 UNK         0.3000 
    216 H216       -7.9495  -25.7440  -54.3418 H         1 UNK         0.0600 
    217 H217       -5.2022  -24.8935  -55.3886 H         1 UNK         0.0600 
    218 H218       -6.5113  -25.5869  -56.3311 H         1 UNK         0.0600 
    219 H219       -5.7162  -26.5556  -55.1009 H         1 UNK         0.0600 
    220 H220       -6.8187  -22.7835  -53.0422 H         1 UNK         0.3000 
    221 H221       -8.9096  -21.2832  -54.3376 H         1 UNK         0.0600 
    222 H222       -5.9635  -20.6006  -54.9333 H         1 UNK         0.0600 
    223 H223       -7.3189  -19.5370  -55.2839 H         1 UNK         0.0600 
    224 H224       -7.1713  -21.0685  -56.1246 H         1 UNK         0.0600 
    225 H225       -8.9086  -19.0209  -53.4495 H         1 UNK         0.3000 
    226 H226       -8.5281  -18.8946  -50.6214 H         1 UNK         0.0600 
    227 H227       -9.0082  -16.6811  -52.6935 H         1 UNK         0.0600 
    228 H228      -10.2559  -17.5636  -51.8125 H         1 UNK         0.0600 
    229 H229       -9.1591  -16.4956  -50.9505 H         1 UNK         0.0600 
    230 H230       -6.7085  -18.5113  -49.5196 H         1 UNK         0.3000 
    231 H231       -4.6076  -18.1637  -48.9413 H         1 UNK         0.0600 
    232 H232       -5.1263  -15.7561  -49.4508 H         1 UNK         0.0600 
    233 H233       -4.4523  -15.9672  -51.0668 H         1 UNK         0.0600 
    234 H234       -3.4283  -16.1457  -49.6514 H         1 UNK         0.0600 
    235 H235       -5.3145  -19.8884  -51.4050 H         1 UNK         0.3000 
    236 H236       -4.4853  -21.2689  -52.8446 H         1 UNK         0.0600 
    237 H237       -2.1594  -22.1038  -52.6783 H         1 UNK         0.0600 
    238 H238       -1.7331  -20.7825  -51.5996 H         1 UNK         0.0600 
    239 H239       -2.9181  -21.9918  -51.1020 H         1 UNK         0.0600 
    240 H240       -3.8560  -18.0430  -53.1469 H         1 UNK         0.3000 
    241 H241       -3.5085  -18.1733  -55.9673 H         1 UNK         0.0600 
    242 H242       -5.1362  -15.0559  -54.3465 H         1 UNK         0.3800 
    243 H243       -5.1863  -16.6509  -53.6615 H         1 UNK         0.3800 
    244 H244       -1.1990  -18.6275  -55.6472 H         1 UNK         0.0800 
    245 H245       -1.2845  -16.9763  -56.1278 H         1 UNK         0.0800 
    246 H246       -0.3914  -19.4801  -53.2435 H         1 UNK         0.0800 
    247 H247        0.8321  -19.0340  -54.4087 H         1 UNK         0.0800 
@<TRIPOS>BOND
     1    1    2 1    
     2    1  127 1    
     3    1  128 1    
     4    1  129 1    
     5    2    3 2    
     6    2    4 am   BACKBONE|DICT|INTERRES
     7    4    5 1    
     8    4  130 1    
     9    5    6 1    
    10    5   65 1    
    11    5  131 1    
    12    6    7 1    
    13    6  132 1    
    14    6  133 1    
    15    7    8 1    
    16    8    9 1    
    17    8  134 1    
    18    8  135 1    
    19    9   10 ar   
    20    9   14 ar   
    21   10   11 ar   
    22   10  136 1    
    23   11   12 ar   
    24   11  126 1    
    25   12   13 ar   
    26   12  137 1    
    27   13   14 ar   
    28   13   15 1    
    29   14  138 1    
    30   15   16 1    
    31   15  139 1    
    32   15  140 1    
    33   16   17 1    
    34   17   18 1    
    35   17  141 1    
    36   17  142 1    
    37   18   19 1    
    38   18   67 1    
    39   18  143 1    
    40   19   20 am   BACKBONE|DICT|INTERRES
    41   19  144 1    
    42   20   21 2    
    43   20   22 1    
    44   22   23 1    
    45   22   24 1    
    46   22  145 1    
    47   23  146 1    
    48   23  147 1    
    49   23  148 1    
    50   24   25 am   BACKBONE|DICT|INTERRES
    51   24  149 1    
    52   25   26 2    
    53   25   27 1    
    54   27   28 1    
    55   27   29 1    
    56   27  150 1    
    57   28  151 1    
    58   28  152 1    
    59   28  153 1    
    60   29   30 am   BACKBONE|DICT|INTERRES
    61   29  154 1    
    62   30   31 2    
    63   30   32 1    
    64   32   33 1    
    65   32   34 1    
    66   32  155 1    
    67   33  156 1    
    68   33  157 1    
    69   33  158 1    
    70   34   35 am   BACKBONE|DICT|INTERRES
    71   34  159 1    
    72   35   36 2    
    73   35   37 1    
    74   37   38 1    
    75   37   39 1    
    76   37  160 1    
    77   38  161 1    
    78   38  162 1    
    79   38  163 1    
    80   39   40 am   BACKBONE|DICT|INTERRES
    81   39  164 1    
    82   40   41 2    
    83   40   42 1    
    84   42   43 1    
    85   42   44 1    
    86   42  165 1    
    87   43  166 1    
    88   43  167 1    
    89   43  168 1    
    90   44   45 am   BACKBONE|DICT|INTERRES
    91   44  169 1    
    92   45   46 2    
    93   45   47 1    
    94   47   48 1    
    95   47   49 1    
    96   47  170 1    
    97   48  171 1    
    98   48  172 1    
    99   48  173 1    
   100   49   50 am   BACKBONE|DICT|INTERRES
   101   49  174 1    
   102   50   51 2    
   103   50   52 1    
   104   52   53 1    
   105   52   54 1    
   106   52  175 1    
   107   53  176 1    
   108   53  177 1    
   109   53  178 1    
   110   54   55 am   BACKBONE|DICT|INTERRES
   111   54  179 1    
   112   55   56 2    
   113   55   57 1    
   114   57   58 1    
   115   57   59 1    
   116   57  180 1    
   117   58  181 1    
   118   58  182 1    
   119   58  183 1    
   120   59   60 am   BACKBONE|DICT|INTERRES
   121   59  184 1    
   122   60   61 2    
   123   60   62 1    
   124   62   63 1    
   125   62   64 1    
   126   62  185 1    
   127   63  186 1    
   128   63  187 1    
   129   63  188 1    
   130   64   65 am   BACKBONE|DICT|INTERRES
   131   64  189 1    
   132   65   66 2    
   133   67   68 2    
   134   67   69 am   BACKBONE|DICT|INTERRES
   135   69   70 1    
   136   69  190 1    
   137   70   71 1    
   138   70   72 1    
   139   70  191 1    
   140   71  192 1    
   141   71  193 1    
   142   71  194 1    
   143   72   73 2    
   144   72   74 am   BACKBONE|DICT|INTERRES
   145   74   75 1    
   146   74  195 1    
   147   75   76 1    
   148   75   77 1    
   149   75  196 1    
   150   76  197 1    
   151   76  198 1    
   152   76  199 1    
   153   77   78 2    
   154   77   79 am   BACKBONE|DICT|INTERRES
   155   79   80 1    
   156   79  200 1    
   157   80   81 1    
   158   80   82 1    
   159   80  201 1    
   160   81  202 1    
   161   81  203 1    
   162   81  204 1    
   163   82   83 2    
   164   82   84 am   BACKBONE|DICT|INTERRES
   165   84   85 1    
   166   84  205 1    
   167   85   86 1    
   168   85   87 1    
   169   85  206 1    
   170   86  207 1    
   171   86  208 1    
   172   86  209 1    
   173   87   88 2    
   174   87   89 am   BACKBONE|DICT|INTERRES
   175   89   90 1    
   176   89  210 1    
   177   90   91 1    
   178   90   92 1    
   179   90  211 1    
   180   91  212 1    
   181   91  213 1    
   182   91  214 1    
   183   92   93 2    
   184   92   94 am   BACKBONE|DICT|INTERRES
   185   94   95 1    
   186   94  215 1    
   187   95   96 1    
   188   95   97 1    
   189   95  216 1    
   190   96  217 1    
   191   96  218 1    
   192   96  219 1    
   193   97   98 2    
   194   97   99 am   BACKBONE|DICT|INTERRES
   195   99  100 1    
   196   99  220 1    
   197  100  101 1    
   198  100  102 1    
   199  100  221 1    
   200  101  222 1    
   201  101  223 1    
   202  101  224 1    
   203  102  103 2    
   204  102  104 am   BACKBONE|DICT|INTERRES
   205  104  105 1    
   206  104  225 1    
   207  105  106 1    
   208  105  107 1    
   209  105  226 1    
   210  106  227 1    
   211  106  228 1    
   212  106  229 1    
   213  107  108 2    
   214  107  109 am   BACKBONE|DICT|INTERRES
   215  109  110 1    
   216  109  230 1    
   217  110  111 1    
   218  110  112 1    
   219  110  231 1    
   220  111  232 1    
   221  111  233 1    
   222  111  234 1    
   223  112  113 2    
   224  112  114 am   BACKBONE|DICT|INTERRES
   225  114  115 1    
   226  114  235 1    
   227  115  116 1    
   228  115  117 1    
   229  115  236 1    
   230  116  237 1    
   231  116  238 1    
   232  116  239 1    
   233  117  118 2    
   234  117  119 am   BACKBONE|DICT|INTERRES
   235  119  120 1    
   236  119  240 1    
   237  120  121 1    
   238  120  124 1    
   239  120  241 1    
   240  121  122 am   BACKBONE|DICT|INTERRES
   241  121  123 2    
   242  122  242 1    
   243  122  243 1    
   244  124  125 1    
   245  124  244 1    
   246  124  245 1    
   247  125  126 1    
   248  126  246 1    
   249  126  247 1    
@<TRIPOS>SUBSTRUCTURE
     1 UNK         1 GROUP             0       ****    0 ROOT    
