@<TRIPOS>MOLECULE
3R540
247   249    1
SMALL
USER_CHARGES


@<TRIPOS>ATOM
      1 CA         -2.8333   -9.0960  -49.9744 C.3       0 UNK        -0.1800 
      2 C          -1.6702   -9.4314  -49.0525 C.2       0 UNK         0.5000 
      3 O          -0.8060   -8.5854  -48.8201 O.2       0 UNK        -0.5000 
      4 N          -1.6512  -10.6564  -48.5090 N.am      1 UNK        -0.5000 
      5 CA         -0.6052  -11.1641  -47.6092 C.3       1 UNK         0.1400 
      6 C6         -0.6735  -12.6998  -47.4310 C.3       23 UNK        -0.0398 
      7 S7         -2.2450  -13.3034  -46.7150 S.3       23 UNK        -0.2404 
      8 C8         -2.8937  -14.3672  -48.0415 C.3       23 UNK        -0.0205 
      9 C9         -2.1733  -15.7064  -48.1066 C.ar      23 UNK        -0.0193 
     10 C10        -1.1461  -15.9130  -49.0315 C.ar      23 UNK        -0.1150 
     11 C11        -0.5062  -17.1525  -49.1208 C.ar      23 UNK        -0.0193 
     12 C12        -0.8976  -18.1883  -48.2671 C.ar      23 UNK        -0.1150 
     13 C13        -1.9311  -18.0001  -47.3440 C.ar      23 UNK        -0.0193 
     14 C14        -2.5595  -16.7536  -47.2646 C.ar      23 UNK        -0.1150 
     15 C15        -2.3819  -19.1428  -46.4451 C.3       23 UNK        -0.0205 
     16 S16        -3.8994  -19.9178  -47.0807 S.3       23 UNK        -0.2404 
     17 C17        -4.1112  -21.3308  -45.9442 C.3       23 UNK        -0.0398 
     18 CA         -3.6915  -22.6703  -46.5993 C.3       11 UNK         0.1400 
     19 N          -2.2545  -22.7391  -46.8437 N.am      11 UNK        -0.5000 
     20 C          -1.6791  -23.3203  -47.9024 C.2       10 UNK         0.5000 
     21 O          -2.3032  -23.8156  -48.8434 O.2       10 UNK        -0.5000 
     22 CA         -0.1390  -23.3634  -47.9070 C.3       10 UNK         0.1400 
     23 CB          0.4274  -22.2460  -48.7951 C.3       10 UNK        -0.1800 
     24 N           0.4397  -23.2651  -46.5657 N.am      10 UNK        -0.5000 
     25 C           0.3986  -24.2551  -45.6620 C.2       9 UNK         0.5000 
     26 O          -0.1115  -25.3526  -45.8854 O.2       9 UNK        -0.5000 
     27 CA          0.9800  -23.9708  -44.2622 C.3       9 UNK         0.1400 
     28 CB          2.4472  -24.4170  -44.1925 C.3       9 UNK        -0.1800 
     29 N           0.8816  -22.5699  -43.8454 N.am      9 UNK        -0.5000 
     30 C          -0.2637  -21.8899  -43.7017 C.2       8 UNK         0.5000 
     31 O          -1.3756  -22.3794  -43.8969 O.2       8 UNK        -0.5000 
     32 CA         -0.1585  -20.3977  -43.3411 C.3       8 UNK         0.1400 
     33 CB         -0.1321  -20.2164  -41.8170 C.3       8 UNK        -0.1800 
     34 N           0.9716  -19.6716  -43.9319 N.am      8 UNK        -0.5000 
     35 C           1.3506  -19.6788  -45.2180 C.2       7 UNK         0.5000 
     36 O           0.8991  -20.4489  -46.0647 O.2       7 UNK        -0.5000 
     37 CA          2.3451  -18.5803  -45.6313 C.3       7 UNK         0.1400 
     38 CB          2.9391  -18.8201  -47.0299 C.3       7 UNK        -0.1800 
     39 N           1.6479  -17.2945  -45.6181 N.am      7 UNK        -0.5000 
     40 C           1.4706  -16.5447  -44.5246 C.2       6 UNK         0.5000 
     41 O           1.9752  -16.8054  -43.4290 O.2       6 UNK        -0.5000 
     42 CA          0.5098  -15.3523  -44.6539 C.3       6 UNK         0.1400 
     43 CB         -0.8786  -15.7405  -44.1214 C.3       6 UNK        -0.1800 
     44 N           1.0024  -14.2024  -43.8985 N.am      6 UNK        -0.5000 
     45 C           2.0171  -13.4233  -44.2872 C.2       5 UNK         0.5000 
     46 O           2.5907  -13.5316  -45.3753 O.2       5 UNK        -0.5000 
     47 CA          2.4790  -12.3567  -43.2849 C.3       5 UNK         0.1400 
     48 CB          3.4883  -12.9375  -42.2797 C.3       5 UNK        -0.1800 
     49 N           3.0916  -11.2635  -44.0278 N.am      5 UNK        -0.5000 
     50 C           3.0916   -9.9787  -43.6613 C.2       4 UNK         0.5000 
     51 O           2.6798   -9.5806  -42.5702 O.2       4 UNK        -0.5000 
     52 CA          3.5986   -8.9532  -44.6885 C.3       4 UNK         0.1400 
     53 CB          4.3975   -9.5613  -45.8596 C.3       4 UNK        -0.1800 
     54 N           2.4334   -8.2541  -45.2160 N.am      4 UNK        -0.5000 
     55 C           2.3147   -6.9291  -45.3670 C.2       3 UNK         0.5000 
     56 O           3.2202   -6.1320  -45.1174 O.2       3 UNK        -0.5000 
     57 CA          0.9645   -6.3899  -45.8905 C.3       3 UNK         0.1400 
     58 CB          1.0910   -5.9665  -47.3621 C.3       3 UNK        -0.1800 
     59 N          -0.1345   -7.3504  -45.7730 N.am      3 UNK        -0.5000 
     60 C          -0.7092   -7.7237  -44.6198 C.2       2 UNK         0.5000 
     61 O          -0.4498   -7.2048  -43.5337 O.2       2 UNK        -0.5000 
     62 CA         -1.7236   -8.8871  -44.6770 C.3       2 UNK         0.1400 
     63 CB         -3.1606   -8.3537  -44.5732 C.3       2 UNK        -0.1800 
     64 N          -1.6183   -9.7226  -45.8771 N.am      2 UNK        -0.5000 
     65 C          -0.5427  -10.4323  -46.2497 C.2       1 UNK         0.5000 
     66 O           0.4927  -10.4835  -45.5886 O.2       1 UNK        -0.5000 
     67 C          -4.1244  -23.8773  -45.7472 C.2       11 UNK         0.5000 
     68 O          -5.0375  -24.5994  -46.1439 O.2       11 UNK        -0.5000 
     69 N          -3.4635  -24.0777  -44.5998 N.am      12 UNK        -0.5000 
     70 CA         -3.7994  -25.0948  -43.6077 C.3       12 UNK         0.1400 
     71 CB         -3.2073  -24.6870  -42.2458 C.3       12 UNK        -0.1800 
     72 C          -3.3576  -26.5050  -44.0363 C.2       12 UNK         0.5000 
     73 O          -4.1948  -27.3035  -44.4574 O.2       12 UNK        -0.5000 
     74 N          -2.0562  -26.7945  -43.9005 N.am      13 UNK        -0.5000 
     75 CA         -1.4608  -28.1222  -44.0844 C.3       13 UNK         0.1400 
     76 CB          0.0182  -28.0802  -43.6690 C.3       13 UNK        -0.1800 
     77 C          -1.6145  -28.6870  -45.5080 C.2       13 UNK         0.5000 
     78 O          -1.8622  -29.8833  -45.6632 O.2       13 UNK        -0.5000 
     79 N          -1.4998  -27.8132  -46.5152 N.am      14 UNK        -0.5000 
     80 CA         -1.6928  -28.1452  -47.9278 C.3       14 UNK         0.1400 
     81 CB         -0.8815  -27.1641  -48.7866 C.3       14 UNK        -0.1800 
     82 C          -3.1740  -28.1595  -48.3620 C.2       14 UNK         0.5000 
     83 O          -3.4390  -28.4046  -49.5385 O.2       14 UNK        -0.5000 
     84 N          -4.1114  -27.8792  -47.4408 N.am      15 UNK        -0.5000 
     85 CA         -5.5686  -27.8759  -47.6355 C.3       15 UNK         0.1400 
     86 CB         -6.0865  -29.3190  -47.8032 C.3       15 UNK        -0.1800 
     87 C          -6.0273  -26.9363  -48.7723 C.2       15 UNK         0.5000 
     88 O          -6.8938  -27.2942  -49.5717 O.2       15 UNK        -0.5000 
     89 N          -5.3939  -25.7579  -48.8295 N.am      16 UNK        -0.5000 
     90 CA         -5.5675  -24.6740  -49.7986 C.3       16 UNK         0.1400 
     91 CB         -6.9954  -24.0959  -49.7346 C.3       16 UNK        -0.1800 
     92 C          -5.1314  -25.0046  -51.2419 C.2       16 UNK         0.5000 
     93 O          -5.3477  -24.1783  -52.1296 O.2       16 UNK        -0.5000 
     94 N          -4.4923  -26.1629  -51.4702 N.am      17 UNK        -0.5000 
     95 CA         -3.9931  -26.5687  -52.7873 C.3       17 UNK         0.1400 
     96 CB         -3.5991  -28.0525  -52.7629 C.3       17 UNK        -0.1800 
     97 C          -2.8116  -25.7025  -53.2576 C.2       17 UNK         0.5000 
     98 O          -2.7206  -25.3896  -54.4442 O.2       17 UNK        -0.5000 
     99 N          -1.9476  -25.3066  -52.3135 N.am      18 UNK        -0.5000 
    100 CA        -0.8350  -24.3900  -52.5565 C.3       18 UNK         0.1400 
    101 CB         0.2708  -24.6539  -51.5284 C.3       18 UNK        -0.1800 
    102 C         -1.2886  -22.9185  -52.5428 C.2       18 UNK         0.5000 
    103 O         -0.7497  -22.1163  -53.3040 O.2       18 UNK        -0.5000 
    104 N         -2.3099  -22.5908  -51.7345 N.am      19 UNK        -0.5000 
    105 CA        -2.9314  -21.2612  -51.6663 C.3       19 UNK         0.1400 
    106 CB        -3.9494  -21.2187  -50.5209 C.3       19 UNK        -0.1800 
    107 C         -3.5934  -20.8096  -52.9844 C.2       19 UNK         0.5000 
    108 O         -3.7670  -19.6091  -53.1947 O.2       19 UNK        -0.5000 
    109 N         -3.8991  -21.7610  -53.8770 N.am      20 UNK        -0.5000 
    110 CA        -4.3373  -21.5096  -55.2501 C.3       20 UNK         0.1400 
    111 CB        -4.7313  -22.8425  -55.9026 C.3       20 UNK        -0.1800 
    112 C         -3.2821  -20.7758  -56.1069 C.2       20 UNK         0.5000 
    113 O         -3.6606  -20.0686  -57.0413 O.2       20 UNK        -0.5000 
    114 N         -1.9908  -20.9301  -55.7711 N.am      21 UNK        -0.5000 
    115 CA        -0.8915  -20.1810  -56.3830 C.3       21 UNK         0.1400 
    116 CB         0.4174  -20.9724  -56.2373 C.3       21 UNK        -0.1800 
    117 C         -0.7454  -18.7718  -55.7769 C.2       21 UNK         0.5000 
    118 O         -0.3144  -17.8576  -56.4809 O.2       21 UNK        -0.5000 
    119 N         -1.1106  -18.6155  -54.4964 N.am      22 UNK        -0.5000 
    120 CA        -1.1796  -17.3207  -53.7998 C.3       22 UNK         0.1400 
    121 C         -2.3490  -16.4382  -54.3160 C.2       22 UNK         0.5000 
    122 N         -3.5434  -16.9950  -54.4773 N.am      22 UNK        -0.7600 
    123 O         -2.1719  -15.2499  -54.5690 O.2       22 UNK        -0.5000 
    124 C124       -1.2821  -17.4701  -52.2600 C.3       23 UNK        -0.0398 
    125 S125        0.0646  -18.4529  -51.5172 S.3       23 UNK        -0.2404 
    126 C126        0.5971  -17.3718  -50.1498 C.3       23 UNK        -0.0205 
    127 H127       -3.3892   -8.2446  -49.5818 H         1 UNK         0.0600 
    128 H128       -3.5227   -9.9342  -50.0789 H         1 UNK         0.0600 
    129 H129       -2.4622   -8.8348  -50.9654 H         1 UNK         0.0600 
    130 H130       -2.4001  -11.3025  -48.7134 H         1 UNK         0.3000 
    131 H131        0.3491  -10.9507  -48.0960 H         1 UNK         0.0600 
    132 H132        0.1476  -13.0397  -46.7994 H         1 UNK         0.0800 
    133 H133       -0.5051  -13.1740  -48.3970 H         1 UNK         0.0800 
    134 H134       -2.8324  -13.8477  -48.9989 H         1 UNK         0.0800 
    135 H135       -3.9558  -14.5393  -47.8609 H         1 UNK         0.0800 
    136 H136       -0.8548  -15.1122  -49.6960 H         1 UNK         0.1150 
    137 H137       -0.4089  -19.1474  -48.3377 H         1 UNK         0.1150 
    138 H138       -3.3617  -16.6032  -46.5558 H         1 UNK         0.1150 
    139 H139       -1.6017  -19.8996  -46.3744 H         1 UNK         0.0800 
    140 H140       -2.5556  -18.7727  -45.4340 H         1 UNK         0.0800 
    141 H141       -5.1663  -21.3603  -45.6661 H         1 UNK         0.0800 
    142 H142       -3.5602  -21.1502  -45.0199 H         1 UNK         0.0800 
    143 H143       -4.2241  -22.7454  -47.5485 H         1 UNK         0.0600 
    144 H144       -1.6568  -22.3997  -46.1026 H         1 UNK         0.3000 
    145 H145        0.1678  -24.3214  -48.3265 H         1 UNK         0.0600 
    146 H146        1.5126  -22.3112  -48.8713 H         1 UNK         0.0600 
    147 H147        0.0234  -22.2960  -49.8058 H         1 UNK         0.0600 
    148 H148        0.1773  -21.2631  -48.4037 H         1 UNK         0.0600 
    149 H149        0.8153  -22.3579  -46.3014 H         1 UNK         0.3000 
    150 H150        0.4096  -24.5669  -43.5473 H         1 UNK         0.0600 
    151 H151        2.5506  -25.4661  -44.4736 H         1 UNK         0.0600 
    152 H152        2.8443  -24.3124  -43.1827 H         1 UNK         0.0600 
    153 H153        3.0770  -23.8329  -44.8647 H         1 UNK         0.0600 
    154 H154        1.7497  -22.0779  -43.6938 H         1 UNK         0.3000 
    155 H155       -1.0649  -19.9203  -43.7171 H         1 UNK         0.0600 
    156 H156        0.7813  -20.6221  -41.3804 H         1 UNK         0.0600 
    157 H157       -0.9756  -20.7238  -41.3465 H         1 UNK         0.0600 
    158 H158       -0.1958  -19.1628  -41.5438 H         1 UNK         0.0600 
    159 H159        1.3960  -18.9686  -43.3391 H         1 UNK         0.3000 
    160 H160        3.1679  -18.5706  -44.9134 H         1 UNK         0.0600 
    161 H161        2.1633  -18.8989  -47.7904 H         1 UNK         0.0600 
    162 H162        3.5111  -19.7484  -47.0533 H         1 UNK         0.0600 
    163 H163        3.6135  -18.0136  -47.3180 H         1 UNK         0.0600 
    164 H164        1.1641  -17.0440  -46.4686 H         1 UNK         0.3000 
    165 H165        0.4159  -15.0815  -45.7070 H         1 UNK         0.0600 
    166 H166       -1.5893  -14.9220  -44.2330 H         1 UNK         0.0600 
    167 H167       -1.2801  -16.5958  -44.6649 H         1 UNK         0.0600 
    168 H168       -0.8448  -16.0129  -43.0657 H         1 UNK         0.0600 
    169 H169        0.6134  -14.0772  -42.9754 H         1 UNK         0.3000 
    170 H170        1.6006  -11.9865  -42.7516 H         1 UNK         0.0600 
    171 H171        3.0535  -13.7690  -41.7236 H         1 UNK         0.0600 
    172 H172        4.3832  -13.3090  -42.7805 H         1 UNK         0.0600 
    173 H173        3.7984  -12.1870  -41.5525 H         1 UNK         0.0600 
    174 H174        3.3831  -11.5170  -44.9635 H         1 UNK         0.3000 
    175 H175        4.2490   -8.2632  -44.1470 H         1 UNK         0.0600 
    176 H176        3.7817  -10.2122  -46.4818 H         1 UNK         0.0600 
    177 H177        4.7966   -8.7768  -46.5028 H         1 UNK         0.0600 
    178 H178        5.2466  -10.1428  -45.4982 H         1 UNK         0.0600 
    179 H179        1.6269   -8.8448  -45.3955 H         1 UNK         0.3000 
    180 H180        0.7132   -5.5061  -45.3005 H         1 UNK         0.0600 
    181 H181        0.1612   -5.5317  -47.7295 H         1 UNK         0.0600 
    182 H182        1.3406   -6.8134  -48.0027 H         1 UNK         0.0600 
    183 H183        1.8727   -5.2165  -47.4888 H         1 UNK         0.0600 
    184 H184       -0.4134   -7.8190  -46.6259 H         1 UNK         0.3000 
    185 H185       -1.5299   -9.5260  -43.8130 H         1 UNK         0.0600 
    186 H186       -3.8822   -9.1694  -44.5230 H         1 UNK         0.0600 
    187 H187       -3.2910   -7.7514  -43.6731 H         1 UNK         0.0600 
    188 H188       -3.4188   -7.7272  -45.4279 H         1 UNK         0.0600 
    189 H189       -2.4218   -9.7353  -46.4878 H         1 UNK         0.3000 
    190 H190       -2.7015  -23.4484  -44.3521 H         1 UNK         0.3000 
    191 H191       -4.8857  -25.1183  -43.4952 H         1 UNK         0.0600 
    192 H192       -3.4120  -25.4432  -41.4868 H         1 UNK         0.0600 
    193 H193       -3.6449  -23.7517  -41.8964 H         1 UNK         0.0600 
    194 H194       -2.1270  -24.5459  -42.2898 H         1 UNK         0.0600 
    195 H195       -1.4320  -26.0643  -43.5957 H         1 UNK         0.3000 
    196 H196       -1.9795  -28.8051  -43.4083 H         1 UNK         0.0600 
    197 H197        0.5968  -27.4025  -44.2969 H         1 UNK         0.0600 
    198 H198        0.1296  -27.7571  -42.6339 H         1 UNK         0.0600 
    199 H199        0.4732  -29.0682  -43.7505 H         1 UNK         0.0600 
    200 H200       -1.2259  -26.8582  -46.2965 H         1 UNK         0.3000 
    201 H201       -1.2979  -29.1468  -48.1097 H         1 UNK         0.0600 
    202 H202       -1.2864  -26.1583  -48.7159 H         1 UNK         0.0600 
    203 H203       -0.8990  -27.4516  -49.8386 H         1 UNK         0.0600 
    204 H204        0.1628  -27.1305  -48.4755 H         1 UNK         0.0600 
    205 H205       -3.8096  -27.6777  -46.4941 H         1 UNK         0.3000 
    206 H206       -5.9990  -27.4736  -46.7172 H         1 UNK         0.0600 
    207 H207       -5.7691  -29.9493  -46.9724 H         1 UNK         0.0600 
    208 H208       -7.1765  -29.3437  -47.8299 H         1 UNK         0.0600 
    209 H209       -5.7252  -29.7736  -48.7263 H         1 UNK         0.0600 
    210 H210       -4.7379  -25.5612  -48.0837 H         1 UNK         0.3000 
    211 H211       -4.8904  -23.8884  -49.4688 H         1 UNK         0.0600 
    212 H212       -7.0793  -23.1891  -50.3346 H         1 UNK         0.0600 
    213 H213       -7.2668  -23.8318  -48.7124 H         1 UNK         0.0600 
    214 H214       -7.7366  -24.8022  -50.1087 H         1 UNK         0.0600 
    215 H215       -4.3437  -26.8107  -50.7048 H         1 UNK         0.3000 
    216 H216       -4.8048  -26.4470  -53.5078 H         1 UNK         0.0600 
    217 H217       -2.7473  -28.2337  -52.1067 H         1 UNK         0.0600 
    218 H218       -3.3211  -28.3966  -53.7598 H         1 UNK         0.0600 
    219 H219       -4.4253  -28.6763  -52.4209 H         1 UNK         0.0600 
    220 H220       -2.1020  -25.6043  -51.3615 H         1 UNK         0.3000 
    221 H221       -0.4163  -24.5882  -53.5457 H         1 UNK         0.0600 
    222 H222        0.7172  -25.6370  -51.6785 H         1 UNK         0.0600 
    223 H223       -0.1211  -24.6224  -50.5155 H         1 UNK         0.0600 
    224 H224        1.0708  -23.9162  -51.6050 H         1 UNK         0.0600 
    225 H225       -2.6728  -23.2909  -51.1029 H         1 UNK         0.3000 
    226 H226       -2.1399  -20.5457  -51.4375 H         1 UNK         0.0600 
    227 H227       -4.8040  -21.8652  -50.7156 H         1 UNK         0.0600 
    228 H228       -3.4958  -21.5218  -49.5794 H         1 UNK         0.0600 
    229 H229       -4.3326  -20.2071  -50.3808 H         1 UNK         0.0600 
    230 H230       -3.7717  -22.7270  -53.6093 H         1 UNK         0.3000 
    231 H231       -5.2246  -20.8751  -55.2037 H         1 UNK         0.0600 
    232 H232       -3.8732  -23.5073  -56.0053 H         1 UNK         0.0600 
    233 H233       -5.1418  -22.6817  -56.9001 H         1 UNK         0.0600 
    234 H234       -5.4905  -23.3617  -55.3169 H         1 UNK         0.0600 
    235 H235       -1.7476  -21.5140  -54.9780 H         1 UNK         0.3000 
    236 H236       -1.0931  -20.0668  -57.4502 H         1 UNK         0.0600 
    237 H237        0.3192  -21.9794  -56.6430 H         1 UNK         0.0600 
    238 H238        1.2280  -20.4813  -56.7768 H         1 UNK         0.0600 
    239 H239        0.7268  -21.0572  -55.1954 H         1 UNK         0.0600 
    240 H240       -1.4615  -19.4140  -53.9899 H         1 UNK         0.3000 
    241 H241       -0.2523  -16.7852  -54.0132 H         1 UNK         0.0600 
    242 H242       -4.3138  -16.4406  -54.8148 H         1 UNK         0.3800 
    243 H243       -3.6973  -17.9584  -54.1927 H         1 UNK         0.3800 
    244 H244       -2.2275  -17.9288  -51.9697 H         1 UNK         0.0800 
    245 H245       -1.2868  -16.4781  -51.8072 H         1 UNK         0.0800 
    246 H246        0.9412  -16.4207  -50.5590 H         1 UNK         0.0800 
    247 H247        1.4634  -17.8212  -49.6666 H         1 UNK         0.0800 
@<TRIPOS>BOND
     1    1    2 1    
     2    1  127 1    
     3    1  128 1    
     4    1  129 1    
     5    2    3 2    
     6    2    4 am   BACKBONE|DICT|INTERRES
     7    4    5 1    
     8    4  130 1    
     9    5    6 1    
    10    5   65 1    
    11    5  131 1    
    12    6    7 1    
    13    6  132 1    
    14    6  133 1    
    15    7    8 1    
    16    8    9 1    
    17    8  134 1    
    18    8  135 1    
    19    9   10 ar   
    20    9   14 ar   
    21   10   11 ar   
    22   10  136 1    
    23   11   12 ar   
    24   11  126 1    
    25   12   13 ar   
    26   12  137 1    
    27   13   14 ar   
    28   13   15 1    
    29   14  138 1    
    30   15   16 1    
    31   15  139 1    
    32   15  140 1    
    33   16   17 1    
    34   17   18 1    
    35   17  141 1    
    36   17  142 1    
    37   18   19 1    
    38   18   67 1    
    39   18  143 1    
    40   19   20 am   BACKBONE|DICT|INTERRES
    41   19  144 1    
    42   20   21 2    
    43   20   22 1    
    44   22   23 1    
    45   22   24 1    
    46   22  145 1    
    47   23  146 1    
    48   23  147 1    
    49   23  148 1    
    50   24   25 am   BACKBONE|DICT|INTERRES
    51   24  149 1    
    52   25   26 2    
    53   25   27 1    
    54   27   28 1    
    55   27   29 1    
    56   27  150 1    
    57   28  151 1    
    58   28  152 1    
    59   28  153 1    
    60   29   30 am   BACKBONE|DICT|INTERRES
    61   29  154 1    
    62   30   31 2    
    63   30   32 1    
    64   32   33 1    
    65   32   34 1    
    66   32  155 1    
    67   33  156 1    
    68   33  157 1    
    69   33  158 1    
    70   34   35 am   BACKBONE|DICT|INTERRES
    71   34  159 1    
    72   35   36 2    
    73   35   37 1    
    74   37   38 1    
    75   37   39 1    
    76   37  160 1    
    77   38  161 1    
    78   38  162 1    
    79   38  163 1    
    80   39   40 am   BACKBONE|DICT|INTERRES
    81   39  164 1    
    82   40   41 2    
    83   40   42 1    
    84   42   43 1    
    85   42   44 1    
    86   42  165 1    
    87   43  166 1    
    88   43  167 1    
    89   43  168 1    
    90   44   45 am   BACKBONE|DICT|INTERRES
    91   44  169 1    
    92   45   46 2    
    93   45   47 1    
    94   47   48 1    
    95   47   49 1    
    96   47  170 1    
    97   48  171 1    
    98   48  172 1    
    99   48  173 1    
   100   49   50 am   BACKBONE|DICT|INTERRES
   101   49  174 1    
   102   50   51 2    
   103   50   52 1    
   104   52   53 1    
   105   52   54 1    
   106   52  175 1    
   107   53  176 1    
   108   53  177 1    
   109   53  178 1    
   110   54   55 am   BACKBONE|DICT|INTERRES
   111   54  179 1    
   112   55   56 2    
   113   55   57 1    
   114   57   58 1    
   115   57   59 1    
   116   57  180 1    
   117   58  181 1    
   118   58  182 1    
   119   58  183 1    
   120   59   60 am   BACKBONE|DICT|INTERRES
   121   59  184 1    
   122   60   61 2    
   123   60   62 1    
   124   62   63 1    
   125   62   64 1    
   126   62  185 1    
   127   63  186 1    
   128   63  187 1    
   129   63  188 1    
   130   64   65 am   BACKBONE|DICT|INTERRES
   131   64  189 1    
   132   65   66 2    
   133   67   68 2    
   134   67   69 am   BACKBONE|DICT|INTERRES
   135   69   70 1    
   136   69  190 1    
   137   70   71 1    
   138   70   72 1    
   139   70  191 1    
   140   71  192 1    
   141   71  193 1    
   142   71  194 1    
   143   72   73 2    
   144   72   74 am   BACKBONE|DICT|INTERRES
   145   74   75 1    
   146   74  195 1    
   147   75   76 1    
   148   75   77 1    
   149   75  196 1    
   150   76  197 1    
   151   76  198 1    
   152   76  199 1    
   153   77   78 2    
   154   77   79 am   BACKBONE|DICT|INTERRES
   155   79   80 1    
   156   79  200 1    
   157   80   81 1    
   158   80   82 1    
   159   80  201 1    
   160   81  202 1    
   161   81  203 1    
   162   81  204 1    
   163   82   83 2    
   164   82   84 am   BACKBONE|DICT|INTERRES
   165   84   85 1    
   166   84  205 1    
   167   85   86 1    
   168   85   87 1    
   169   85  206 1    
   170   86  207 1    
   171   86  208 1    
   172   86  209 1    
   173   87   88 2    
   174   87   89 am   BACKBONE|DICT|INTERRES
   175   89   90 1    
   176   89  210 1    
   177   90   91 1    
   178   90   92 1    
   179   90  211 1    
   180   91  212 1    
   181   91  213 1    
   182   91  214 1    
   183   92   93 2    
   184   92   94 am   BACKBONE|DICT|INTERRES
   185   94   95 1    
   186   94  215 1    
   187   95   96 1    
   188   95   97 1    
   189   95  216 1    
   190   96  217 1    
   191   96  218 1    
   192   96  219 1    
   193   97   98 2    
   194   97   99 am   BACKBONE|DICT|INTERRES
   195   99  100 1    
   196   99  220 1    
   197  100  101 1    
   198  100  102 1    
   199  100  221 1    
   200  101  222 1    
   201  101  223 1    
   202  101  224 1    
   203  102  103 2    
   204  102  104 am   BACKBONE|DICT|INTERRES
   205  104  105 1    
   206  104  225 1    
   207  105  106 1    
   208  105  107 1    
   209  105  226 1    
   210  106  227 1    
   211  106  228 1    
   212  106  229 1    
   213  107  108 2    
   214  107  109 am   BACKBONE|DICT|INTERRES
   215  109  110 1    
   216  109  230 1    
   217  110  111 1    
   218  110  112 1    
   219  110  231 1    
   220  111  232 1    
   221  111  233 1    
   222  111  234 1    
   223  112  113 2    
   224  112  114 am   BACKBONE|DICT|INTERRES
   225  114  115 1    
   226  114  235 1    
   227  115  116 1    
   228  115  117 1    
   229  115  236 1    
   230  116  237 1    
   231  116  238 1    
   232  116  239 1    
   233  117  118 2    
   234  117  119 am   BACKBONE|DICT|INTERRES
   235  119  120 1    
   236  119  240 1    
   237  120  121 1    
   238  120  124 1    
   239  120  241 1    
   240  121  122 am   BACKBONE|DICT|INTERRES
   241  121  123 2    
   242  122  242 1    
   243  122  243 1    
   244  124  125 1    
   245  124  244 1    
   246  124  245 1    
   247  125  126 1    
   248  126  246 1    
   249  126  247 1    
@<TRIPOS>SUBSTRUCTURE
     1 UNK         1 GROUP             0       ****    0 ROOT    
