@<TRIPOS>MOLECULE
3R540
247   249    1
SMALL
USER_CHARGES


@<TRIPOS>ATOM
      1 CA          1.0691  -10.9061  -50.7350 C.3       0 UNK        -0.1800 
      2 C           1.0117  -12.4274  -50.7292 C.2       0 UNK         0.5000 
      3 O           0.7152  -13.0270  -51.7614 O.2       0 UNK        -0.5000 
      4 N           1.3039  -13.0393  -49.5730 N.am      1 UNK        -0.5000 
      5 CA          1.2621  -14.4802  -49.3026 C.3       1 UNK         0.1400 
      6 C6          2.2275  -15.3089  -50.1929 C.3       23 UNK        -0.0398 
      7 S7          2.8406  -16.8006  -49.3335 S.3       23 UNK        -0.2404 
      8 C8          2.7881  -18.0609  -50.6533 C.3       23 UNK        -0.0205 
      9 C9          1.7673  -19.1591  -50.3859 C.ar      23 UNK        -0.0193 
     10 C10         0.4362  -18.8391  -50.1171 C.ar      23 UNK        -0.1150 
     11 C11        -0.5254  -19.8353  -49.9414 C.ar      23 UNK        -0.0193 
     12 C12        -0.1378  -21.1776  -50.0203 C.ar      23 UNK        -0.1150 
     13 C13         1.1951  -21.5167  -50.2781 C.ar      23 UNK        -0.0193 
     14 C14         2.1413  -20.5030  -50.4572 C.ar      23 UNK        -0.1150 
     15 C15         1.6165  -22.9718  -50.4210 C.3       23 UNK        -0.0205 
     16 S16         2.5139  -23.5758  -48.9568 S.3       23 UNK        -0.2404 
     17 C17         1.1313  -23.9714  -47.8400 C.3       23 UNK        -0.0398 
     18 CA          1.5932  -24.7735  -46.5962 C.3       11 UNK         0.1400 
     19 N           2.4030  -23.9460  -45.6966 N.am      11 UNK        -0.5000 
     20 C           3.1396  -24.3967  -44.6734 C.2       10 UNK         0.5000 
     21 O           3.3053  -25.5901  -44.4197 O.2       10 UNK        -0.5000 
     22 CA          3.7430  -23.3273  -43.7447 C.3       10 UNK         0.1400 
     23 CB          5.0990  -22.8404  -44.2789 C.3       10 UNK        -0.1800 
     24 N           2.8520  -22.1786  -43.5501 N.am      10 UNK        -0.5000 
     25 C           1.6791  -22.2123  -42.9005 C.2       9 UNK         0.5000 
     26 O           1.2029  -23.2301  -42.4003 O.2       9 UNK        -0.5000 
     27 CA          0.8962  -20.8905  -42.8200 C.3       9 UNK         0.1400 
     28 CB          1.4996  -19.9882  -41.7327 C.3       9 UNK        -0.1800 
     29 N           0.8981  -20.1809  -44.0983 N.am      9 UNK        -0.5000 
     30 C           0.1633  -20.5327  -45.1651 C.2       8 UNK         0.5000 
     31 O          -0.6776  -21.4341  -45.1541 O.2       8 UNK        -0.5000 
     32 CA          0.4130  -19.7556  -46.4749 C.3       8 UNK         0.1400 
     33 CB         -0.5443  -18.5551  -46.5626 C.3       8 UNK        -0.1800 
     34 N           1.7866  -19.2718  -46.6241 N.am      8 UNK        -0.5000 
     35 C           2.8933  -20.0238  -46.5448 C.2       7 UNK         0.5000 
     36 O           2.8736  -21.2509  -46.4776 O.2       7 UNK        -0.5000 
     37 CA          4.2432  -19.2911  -46.4053 C.3       7 UNK         0.1400 
     38 CB          5.0880  -19.4469  -47.6775 C.3       7 UNK        -0.1800 
     39 N           4.1485  -17.8702  -46.0387 N.am      7 UNK        -0.5000 
     40 C           3.5825  -17.3818  -44.9235 C.2       6 UNK         0.5000 
     41 O           2.9999  -18.0891  -44.0975 O.2       6 UNK        -0.5000 
     42 CA          3.6346  -15.8596  -44.7016 C.3       6 UNK         0.1400 
     43 CB          4.0345  -15.0453  -45.9507 C.3       6 UNK        -0.1800 
     44 N           2.3344  -15.4126  -44.2084 N.am      6 UNK        -0.5000 
     45 C           2.1220  -14.3577  -43.4129 C.2       5 UNK         0.5000 
     46 O           3.0205  -13.6188  -43.0076 O.2       5 UNK        -0.5000 
     47 CA          0.6631  -14.0596  -43.0089 C.3       5 UNK         0.1400 
     48 CB          0.1407  -12.8331  -43.7734 C.3       5 UNK        -0.1800 
     49 N          -0.2483  -15.1872  -43.2341 N.am      5 UNK        -0.5000 
     50 C          -0.3570  -16.2418  -42.4109 C.2       4 UNK         0.5000 
     51 O           0.3097  -16.3579  -41.3820 O.2       4 UNK        -0.5000 
     52 CA         -1.3446  -17.3649  -42.8069 C.3       4 UNK         0.1400 
     53 CB         -1.9591  -18.0815  -41.5841 C.3       4 UNK        -0.1800 
     54 N          -2.3848  -16.9447  -43.7547 N.am      4 UNK        -0.5000 
     55 C          -3.3725  -16.0637  -43.5360 C.2       3 UNK         0.5000 
     56 O          -3.5699  -15.5071  -42.4555 O.2       3 UNK        -0.5000 
     57 CA         -4.2822  -15.7490  -44.7449 C.3       3 UNK         0.1400 
     58 CB         -4.9725  -14.3755  -44.6179 C.3       3 UNK        -0.1800 
     59 N          -3.6257  -15.8512  -46.0582 N.am      3 UNK        -0.5000 
     60 C          -2.5407  -15.1817  -46.4668 C.2       2 UNK         0.5000 
     61 O          -1.7892  -14.5542  -45.7167 O.2       2 UNK        -0.5000 
     62 CA         -2.2654  -15.2037  -47.9740 C.3       2 UNK         0.1400 
     63 CB         -3.2168  -14.2399  -48.7089 C.3       2 UNK        -0.1800 
     64 N          -0.8832  -14.8052  -48.1955 N.am      2 UNK        -0.5000 
     65 C          -0.1927  -14.9922  -49.3220 C.2       1 UNK         0.5000 
     66 O          -0.6724  -15.5035  -50.3356 O.2       1 UNK        -0.5000 
     67 C           0.3644  -25.3931  -45.8924 C.2       11 UNK         0.5000 
     68 O          -0.2291  -26.3198  -46.4453 O.2       11 UNK        -0.5000 
     69 N          -0.0215  -24.8518  -44.7237 N.am      12 UNK        -0.5000 
     70 CA         -1.2548  -25.1314  -43.9764 C.3       12 UNK         0.1400 
     71 CB         -1.2596  -26.5738  -43.4299 C.3       12 UNK        -0.1800 
     72 C          -2.5212  -24.7832  -44.7892 C.2       12 UNK         0.5000 
     73 O          -3.5659  -25.4150  -44.6238 O.2       12 UNK        -0.5000 
     74 N          -2.3850  -23.7843  -45.6693 N.am      13 UNK        -0.5000 
     75 CA         -3.4211  -23.2915  -46.5657 C.3       13 UNK         0.1400 
     76 CB         -2.7370  -22.6977  -47.8074 C.3       13 UNK        -0.1800 
     77 C          -4.2991  -22.2626  -45.8391 C.2       13 UNK         0.5000 
     78 O          -5.5224  -22.3941  -45.8494 O.2       13 UNK        -0.5000 
     79 N          -3.6391  -21.2946  -45.1813 N.am      14 UNK        -0.5000 
     80 CA         -4.1960  -20.3083  -44.2473 C.3       14 UNK         0.1400 
     81 CB         -4.5109  -20.9942  -42.9029 C.3       14 UNK        -0.1800 
     82 C          -5.3873  -19.4817  -44.7867 C.2       14 UNK         0.5000 
     83 O          -6.2744  -19.1074  -44.0180 O.2       14 UNK        -0.5000 
     84 N          -5.3811  -19.1896  -46.0918 N.am      15 UNK        -0.5000 
     85 CA         -6.4201  -18.4411  -46.7967 C.3       15 UNK         0.1400 
     86 CB         -7.5522  -19.3923  -47.2259 C.3       15 UNK        -0.1800 
     87 C          -5.7924  -17.7141  -47.9953 C.2       15 UNK         0.5000 
     88 O          -4.5687  -17.7390  -48.1500 O.2       15 UNK        -0.5000 
     89 N          -6.6311  -17.0499  -48.7975 N.am      16 UNK        -0.5000 
     90 CA         -6.2190  -16.2729  -49.9694 C.3       16 UNK         0.1400 
     91 CB         -7.0138  -14.9570  -49.9857 C.3       16 UNK        -0.1800 
     92 C          -6.3961  -17.0298  -51.2992 C.2       16 UNK         0.5000 
     93 O          -5.9441  -16.5272  -52.3279 O.2       16 UNK        -0.5000 
     94 N          -7.0416  -18.2042  -51.2768 N.am      17 UNK        -0.5000 
     95 CA         -7.3358  -19.0037  -52.4704 C.3       17 UNK         0.1400 
     96 CB         -8.6176  -18.4759  -53.1466 C.3       17 UNK        -0.1800 
     97 C          -7.4088  -20.5115  -52.1620 C.2       17 UNK         0.5000 
     98 O          -8.0689  -21.2512  -52.8934 O.2       17 UNK        -0.5000 
     99 N          -6.7382  -20.9548  -51.0885 N.am      18 UNK        -0.5000 
    100 CA        -6.6778  -22.3665  -50.6873 C.3       18 UNK         0.1400 
    101 CB        -6.3296  -22.4590  -49.1936 C.3       18 UNK        -0.1800 
    102 C         -5.7089  -23.2089  -51.5425 C.2       18 UNK         0.5000 
    103 O         -5.8237  -24.4352  -51.5550 O.2       18 UNK        -0.5000 
    104 N         -4.7888  -22.5451  -52.2472 N.am      19 UNK        -0.5000 
    105 CA        -3.8445  -23.1232  -53.1922 C.3       19 UNK         0.1400 
    106 CB        -2.5276  -23.4515  -52.4648 C.3       19 UNK        -0.1800 
    107 C         -3.6119  -22.1065  -54.3181 C.2       19 UNK         0.5000 
    108 O         -3.8824  -20.9156  -54.1405 O.2       19 UNK        -0.5000 
    109 N         -3.0699  -22.5807  -55.4464 N.am      20 UNK        -0.5000 
    110 CA        -2.7020  -21.7508  -56.6001 C.3       20 UNK         0.1400 
    111 CB        -2.3773  -22.6675  -57.7898 C.3       20 UNK        -0.1800 
    112 C         -1.5248  -20.7928  -56.3183 C.2       20 UNK         0.5000 
    113 O         -1.3685  -19.7961  -57.0240 O.2       20 UNK        -0.5000 
    114 N         -0.7242  -21.1125  -55.2929 N.am      21 UNK        -0.5000 
    115 CA         0.3965  -20.3082  -54.8105 C.3       21 UNK         0.1400 
    116 CB         1.2982  -21.2041  -53.9475 C.3       21 UNK        -0.1800 
    117 C         -0.0323  -19.0561  -54.0185 C.2       21 UNK         0.5000 
    118 O          0.7837  -18.1455  -53.8694 O.2       21 UNK        -0.5000 
    119 N         -1.2740  -19.0313  -53.5134 N.am      22 UNK        -0.5000 
    120 CA        -1.8172  -17.9245  -52.7141 C.3       22 UNK         0.1400 
    121 C         -2.0175  -16.6209  -53.5352 C.2       22 UNK         0.5000 
    122 N         -1.7287  -15.4665  -52.9514 N.am      22 UNK        -0.7600 
    123 O         -2.4672  -16.6439  -54.6789 O.2       22 UNK        -0.5000 
    124 C124       -3.1277  -18.3063  -51.9814 C.3       23 UNK        -0.0398 
    125 S125       -3.0840  -19.8607  -51.0229 S.3       23 UNK        -0.2404 
    126 C126       -1.9711  -19.4549  -49.6457 C.3       23 UNK        -0.0205 
    127 H127        1.3517  -10.5054  -49.7612 H         1 UNK         0.0600 
    128 H128        0.0952  -10.4955  -51.0015 H         1 UNK         0.0600 
    129 H129        1.7978  -10.5610  -51.4687 H         1 UNK         0.0600 
    130 H130        1.5331  -12.4645  -48.7743 H         1 UNK         0.3000 
    131 H131        1.6126  -14.5682  -48.2735 H         1 UNK         0.0600 
    132 H132        3.1071  -14.7128  -50.4388 H         1 UNK         0.0800 
    133 H133        1.7697  -15.5610  -51.1508 H         1 UNK         0.0800 
    134 H134        3.7867  -18.4880  -50.7528 H         1 UNK         0.0800 
    135 H135        2.5636  -17.6075  -51.6192 H         1 UNK         0.0800 
    136 H136        0.1492  -17.8037  -50.0536 H         1 UNK         0.1150 
    137 H137       -0.8770  -21.9549  -49.8944 H         1 UNK         0.1150 
    138 H138        3.1672  -20.7663  -50.6723 H         1 UNK         0.1150 
    139 H139        0.7541  -23.6087  -50.6235 H         1 UNK         0.0800 
    140 H140        2.2687  -23.0668  -51.2903 H         1 UNK         0.0800 
    141 H141        0.6382  -23.0436  -47.5440 H         1 UNK         0.0800 
    142 H142        0.3993  -24.5395  -48.4175 H         1 UNK         0.0800 
    143 H143        2.2117  -25.6082  -46.9330 H         1 UNK         0.0600 
    144 H144        2.4148  -22.9470  -45.8937 H         1 UNK         0.3000 
    145 H145        3.9085  -23.7902  -42.7696 H         1 UNK         0.0600 
    146 H146        5.5495  -22.1092  -43.6075 H         1 UNK         0.0600 
    147 H147        5.0066  -22.3818  -45.2636 H         1 UNK         0.0600 
    148 H148        5.7998  -23.6710  -44.3715 H         1 UNK         0.0600 
    149 H149        3.1400  -21.3100  -43.9741 H         1 UNK         0.3000 
    150 H150       -0.1370  -21.1163  -42.5465 H         1 UNK         0.0600 
    151 H151        1.4256  -20.4579  -40.7513 H         1 UNK         0.0600 
    152 H152        0.9848  -19.0315  -41.6757 H         1 UNK         0.0600 
    153 H153        2.5540  -19.7794  -41.9178 H         1 UNK         0.0600 
    154 H154        1.5781  -19.4316  -44.1933 H         1 UNK         0.3000 
    155 H155        0.2108  -20.4385  -47.2999 H         1 UNK         0.0600 
    156 H156       -1.5853  -18.8734  -46.4923 H         1 UNK         0.0600 
    157 H157       -0.4294  -18.0251  -47.5073 H         1 UNK         0.0600 
    158 H158       -0.3580  -17.8363  -45.7650 H         1 UNK         0.0600 
    159 H159        1.9104  -18.2750  -46.7081 H         1 UNK         0.3000 
    160 H160        4.7778  -19.7889  -45.5939 H         1 UNK         0.0600 
    161 H161        4.6275  -18.9537  -48.5308 H         1 UNK         0.0600 
    162 H162        5.2099  -20.4992  -47.9384 H         1 UNK         0.0600 
    163 H163        6.0857  -19.0286  -47.5443 H         1 UNK         0.0600 
    164 H164        4.5724  -17.2193  -46.6842 H         1 UNK         0.3000 
    165 H165        4.3842  -15.6933  -43.9254 H         1 UNK         0.0600 
    166 H166        4.0458  -13.9766  -45.7359 H         1 UNK         0.0600 
    167 H167        5.0357  -15.3061  -46.2955 H         1 UNK         0.0600 
    168 H168        3.3409  -15.2070  -46.7747 H         1 UNK         0.0600 
    169 H169        1.5508  -16.0071  -44.4328 H         1 UNK         0.3000 
    170 H170        0.6604  -13.8156  -41.9444 H         1 UNK         0.0600 
    171 H171        0.7315  -11.9468  -43.5390 H         1 UNK         0.0600 
    172 H172        0.1893  -12.9806  -44.8527 H         1 UNK         0.0600 
    173 H173       -0.8943  -12.6133  -43.5106 H         1 UNK         0.0600 
    174 H174       -0.8481  -15.1210  -44.0510 H         1 UNK         0.3000 
    175 H175       -0.7437  -18.1022  -43.3368 H         1 UNK         0.0600 
    176 H176       -2.5315  -17.3984  -40.9567 H         1 UNK         0.0600 
    177 H177       -2.6212  -18.8903  -41.8884 H         1 UNK         0.0600 
    178 H178       -1.1884  -18.5229  -40.9526 H         1 UNK         0.0600 
    179 H179       -2.2992  -17.3040  -44.6930 H         1 UNK         0.3000 
    180 H180       -5.0659  -16.5057  -44.7308 H         1 UNK         0.0600 
    181 H181       -5.6310  -14.1856  -45.4656 H         1 UNK         0.0600 
    182 H182       -4.2458  -13.5636  -44.5695 H         1 UNK         0.0600 
    183 H183       -5.5849  -14.3224  -43.7171 H         1 UNK         0.0600 
    184 H184       -4.1103  -16.4090  -46.7540 H         1 UNK         0.3000 
    185 H185       -2.4088  -16.2217  -48.3392 H         1 UNK         0.0600 
    186 H186       -3.0051  -13.2006  -48.4550 H         1 UNK         0.0600 
    187 H187       -3.1310  -14.3439  -49.7906 H         1 UNK         0.0600 
    188 H188       -4.2574  -14.4301  -48.4457 H         1 UNK         0.0600 
    189 H189       -0.4526  -14.3734  -47.3871 H         1 UNK         0.3000 
    190 H190        0.5585  -24.1242  -44.3261 H         1 UNK         0.3000 
    191 H191       -1.2512  -24.4551  -43.1205 H         1 UNK         0.0600 
    192 H192       -2.0991  -26.7310  -42.7518 H         1 UNK         0.0600 
    193 H193       -0.3480  -26.7850  -42.8708 H         1 UNK         0.0600 
    194 H194       -1.3432  -27.3118  -44.2280 H         1 UNK         0.0600 
    195 H195       -1.5152  -23.2656  -45.6617 H         1 UNK         0.3000 
    196 H196       -4.0559  -24.1207  -46.8858 H         1 UNK         0.0600 
    197 H197       -2.0115  -21.9306  -47.5381 H         1 UNK         0.0600 
    198 H198       -3.4537  -22.2485  -48.4916 H         1 UNK         0.0600 
    199 H199       -2.2064  -23.4710  -48.3631 H         1 UNK         0.0600 
    200 H200       -2.6249  -21.3183  -45.2266 H         1 UNK         0.3000 
    201 H201       -3.3969  -19.5897  -44.0682 H         1 UNK         0.0600 
    202 H202       -5.3215  -21.7169  -43.0026 H         1 UNK         0.0600 
    203 H203       -4.8086  -20.2674  -42.1461 H         1 UNK         0.0600 
    204 H204       -3.6382  -21.5211  -42.5166 H         1 UNK         0.0600 
    205 H205       -4.5984  -19.4732  -46.6654 H         1 UNK         0.3000 
    206 H206       -6.8278  -17.6766  -46.1324 H         1 UNK         0.0600 
    207 H207       -7.8905  -20.0118  -46.3950 H         1 UNK         0.0600 
    208 H208       -8.4209  -18.8410  -47.5864 H         1 UNK         0.0600 
    209 H209       -7.2294  -20.0554  -48.0256 H         1 UNK         0.0600 
    210 H210       -7.6190  -17.0470  -48.5860 H         1 UNK         0.3000 
    211 H211       -5.1591  -16.0247  -49.9000 H         1 UNK         0.0600 
    212 H212       -8.0853  -15.1347  -50.0845 H         1 UNK         0.0600 
    213 H213       -6.7074  -14.3231  -50.8189 H         1 UNK         0.0600 
    214 H214       -6.8506  -14.3871  -49.0708 H         1 UNK         0.0600 
    215 H215       -7.4078  -18.5477  -50.4013 H         1 UNK         0.3000 
    216 H216       -6.5112  -18.8982  -53.1789 H         1 UNK         0.0600 
    217 H217       -8.5219  -17.4229  -53.4117 H         1 UNK         0.0600 
    218 H218       -9.4841  -18.5791  -52.4928 H         1 UNK         0.0600 
    219 H219       -8.8320  -19.0174  -54.0687 H         1 UNK         0.0600 
    220 H220       -6.1644  -20.3081  -50.5681 H         1 UNK         0.3000 
    221 H221       -7.6664  -22.8120  -50.8190 H         1 UNK         0.0600 
    222 H222       -7.2103  -22.2717  -48.5802 H         1 UNK         0.0600 
    223 H223       -5.9649  -23.4503  -48.9202 H         1 UNK         0.0600 
    224 H224       -5.5680  -21.7342  -48.9109 H         1 UNK         0.0600 
    225 H225       -4.7744  -21.5333  -52.2210 H         1 UNK         0.3000 
    226 H226       -4.2645  -24.0317  -53.6289 H         1 UNK         0.0600 
    227 H227       -2.6963  -24.1330  -51.6308 H         1 UNK         0.0600 
    228 H228       -1.8151  -23.9318  -53.1360 H         1 UNK         0.0600 
    229 H229       -2.0520  -22.5535  -52.0690 H         1 UNK         0.0600 
    230 H230       -2.8744  -23.5688  -55.5232 H         1 UNK         0.3000 
    231 H231       -3.5652  -21.1369  -56.8663 H         1 UNK         0.0600 
    232 H232       -2.1278  -22.0833  -58.6767 H         1 UNK         0.0600 
    233 H233       -3.2291  -23.2973  -58.0472 H         1 UNK         0.0600 
    234 H234       -1.5287  -23.3185  -57.5764 H         1 UNK         0.0600 
    235 H235       -0.9247  -21.9579  -54.7810 H         1 UNK         0.3000 
    236 H236        0.9757  -19.9681  -55.6715 H         1 UNK         0.0600 
    237 H237        0.7516  -21.6165  -53.0993 H         1 UNK         0.0600 
    238 H238        1.6998  -22.0364  -54.5256 H         1 UNK         0.0600 
    239 H239        2.1465  -20.6444  -53.5511 H         1 UNK         0.0600 
    240 H240       -1.9094  -19.7940  -53.7038 H         1 UNK         0.3000 
    241 H241       -1.0748  -17.6975  -51.9532 H         1 UNK         0.0600 
    242 H242       -1.3377  -15.4361  -52.0093 H         1 UNK         0.3800 
    243 H243       -1.8534  -14.6071  -53.4611 H         1 UNK         0.3800 
    244 H244       -3.9374  -18.4047  -52.7063 H         1 UNK         0.0800 
    245 H245       -3.4200  -17.5027  -51.3038 H         1 UNK         0.0800 
    246 H246       -2.3085  -19.9837  -48.7564 H         1 UNK         0.0800 
    247 H247       -2.0582  -18.3936  -49.4104 H         1 UNK         0.0800 
@<TRIPOS>BOND
     1    1    2 1    
     2    1  127 1    
     3    1  128 1    
     4    1  129 1    
     5    2    3 2    
     6    2    4 am   BACKBONE|DICT|INTERRES
     7    4    5 1    
     8    4  130 1    
     9    5    6 1    
    10    5   65 1    
    11    5  131 1    
    12    6    7 1    
    13    6  132 1    
    14    6  133 1    
    15    7    8 1    
    16    8    9 1    
    17    8  134 1    
    18    8  135 1    
    19    9   10 ar   
    20    9   14 ar   
    21   10   11 ar   
    22   10  136 1    
    23   11   12 ar   
    24   11  126 1    
    25   12   13 ar   
    26   12  137 1    
    27   13   14 ar   
    28   13   15 1    
    29   14  138 1    
    30   15   16 1    
    31   15  139 1    
    32   15  140 1    
    33   16   17 1    
    34   17   18 1    
    35   17  141 1    
    36   17  142 1    
    37   18   19 1    
    38   18   67 1    
    39   18  143 1    
    40   19   20 am   BACKBONE|DICT|INTERRES
    41   19  144 1    
    42   20   21 2    
    43   20   22 1    
    44   22   23 1    
    45   22   24 1    
    46   22  145 1    
    47   23  146 1    
    48   23  147 1    
    49   23  148 1    
    50   24   25 am   BACKBONE|DICT|INTERRES
    51   24  149 1    
    52   25   26 2    
    53   25   27 1    
    54   27   28 1    
    55   27   29 1    
    56   27  150 1    
    57   28  151 1    
    58   28  152 1    
    59   28  153 1    
    60   29   30 am   BACKBONE|DICT|INTERRES
    61   29  154 1    
    62   30   31 2    
    63   30   32 1    
    64   32   33 1    
    65   32   34 1    
    66   32  155 1    
    67   33  156 1    
    68   33  157 1    
    69   33  158 1    
    70   34   35 am   BACKBONE|DICT|INTERRES
    71   34  159 1    
    72   35   36 2    
    73   35   37 1    
    74   37   38 1    
    75   37   39 1    
    76   37  160 1    
    77   38  161 1    
    78   38  162 1    
    79   38  163 1    
    80   39   40 am   BACKBONE|DICT|INTERRES
    81   39  164 1    
    82   40   41 2    
    83   40   42 1    
    84   42   43 1    
    85   42   44 1    
    86   42  165 1    
    87   43  166 1    
    88   43  167 1    
    89   43  168 1    
    90   44   45 am   BACKBONE|DICT|INTERRES
    91   44  169 1    
    92   45   46 2    
    93   45   47 1    
    94   47   48 1    
    95   47   49 1    
    96   47  170 1    
    97   48  171 1    
    98   48  172 1    
    99   48  173 1    
   100   49   50 am   BACKBONE|DICT|INTERRES
   101   49  174 1    
   102   50   51 2    
   103   50   52 1    
   104   52   53 1    
   105   52   54 1    
   106   52  175 1    
   107   53  176 1    
   108   53  177 1    
   109   53  178 1    
   110   54   55 am   BACKBONE|DICT|INTERRES
   111   54  179 1    
   112   55   56 2    
   113   55   57 1    
   114   57   58 1    
   115   57   59 1    
   116   57  180 1    
   117   58  181 1    
   118   58  182 1    
   119   58  183 1    
   120   59   60 am   BACKBONE|DICT|INTERRES
   121   59  184 1    
   122   60   61 2    
   123   60   62 1    
   124   62   63 1    
   125   62   64 1    
   126   62  185 1    
   127   63  186 1    
   128   63  187 1    
   129   63  188 1    
   130   64   65 am   BACKBONE|DICT|INTERRES
   131   64  189 1    
   132   65   66 2    
   133   67   68 2    
   134   67   69 am   BACKBONE|DICT|INTERRES
   135   69   70 1    
   136   69  190 1    
   137   70   71 1    
   138   70   72 1    
   139   70  191 1    
   140   71  192 1    
   141   71  193 1    
   142   71  194 1    
   143   72   73 2    
   144   72   74 am   BACKBONE|DICT|INTERRES
   145   74   75 1    
   146   74  195 1    
   147   75   76 1    
   148   75   77 1    
   149   75  196 1    
   150   76  197 1    
   151   76  198 1    
   152   76  199 1    
   153   77   78 2    
   154   77   79 am   BACKBONE|DICT|INTERRES
   155   79   80 1    
   156   79  200 1    
   157   80   81 1    
   158   80   82 1    
   159   80  201 1    
   160   81  202 1    
   161   81  203 1    
   162   81  204 1    
   163   82   83 2    
   164   82   84 am   BACKBONE|DICT|INTERRES
   165   84   85 1    
   166   84  205 1    
   167   85   86 1    
   168   85   87 1    
   169   85  206 1    
   170   86  207 1    
   171   86  208 1    
   172   86  209 1    
   173   87   88 2    
   174   87   89 am   BACKBONE|DICT|INTERRES
   175   89   90 1    
   176   89  210 1    
   177   90   91 1    
   178   90   92 1    
   179   90  211 1    
   180   91  212 1    
   181   91  213 1    
   182   91  214 1    
   183   92   93 2    
   184   92   94 am   BACKBONE|DICT|INTERRES
   185   94   95 1    
   186   94  215 1    
   187   95   96 1    
   188   95   97 1    
   189   95  216 1    
   190   96  217 1    
   191   96  218 1    
   192   96  219 1    
   193   97   98 2    
   194   97   99 am   BACKBONE|DICT|INTERRES
   195   99  100 1    
   196   99  220 1    
   197  100  101 1    
   198  100  102 1    
   199  100  221 1    
   200  101  222 1    
   201  101  223 1    
   202  101  224 1    
   203  102  103 2    
   204  102  104 am   BACKBONE|DICT|INTERRES
   205  104  105 1    
   206  104  225 1    
   207  105  106 1    
   208  105  107 1    
   209  105  226 1    
   210  106  227 1    
   211  106  228 1    
   212  106  229 1    
   213  107  108 2    
   214  107  109 am   BACKBONE|DICT|INTERRES
   215  109  110 1    
   216  109  230 1    
   217  110  111 1    
   218  110  112 1    
   219  110  231 1    
   220  111  232 1    
   221  111  233 1    
   222  111  234 1    
   223  112  113 2    
   224  112  114 am   BACKBONE|DICT|INTERRES
   225  114  115 1    
   226  114  235 1    
   227  115  116 1    
   228  115  117 1    
   229  115  236 1    
   230  116  237 1    
   231  116  238 1    
   232  116  239 1    
   233  117  118 2    
   234  117  119 am   BACKBONE|DICT|INTERRES
   235  119  120 1    
   236  119  240 1    
   237  120  121 1    
   238  120  124 1    
   239  120  241 1    
   240  121  122 am   BACKBONE|DICT|INTERRES
   241  121  123 2    
   242  122  242 1    
   243  122  243 1    
   244  124  125 1    
   245  124  244 1    
   246  124  245 1    
   247  125  126 1    
   248  126  246 1    
   249  126  247 1    
@<TRIPOS>SUBSTRUCTURE
     1 UNK         1 GROUP             0       ****    0 ROOT    
