@<TRIPOS>MOLECULE
3R540
247   249    1
SMALL
USER_CHARGES


@<TRIPOS>ATOM
      1 CA          0.3061  -15.2808  -48.9843 C.3       0 UNK        -0.1800 
      2 C           1.8264  -15.3022  -48.9782 C.2       0 UNK         0.5000 
      3 O           2.4540  -14.3128  -49.3538 O.2       0 UNK        -0.5000 
      4 N           2.4259  -16.4032  -48.5071 N.am      1 UNK        -0.5000 
      5 CA          3.8765  -16.6377  -48.3824 C.3       1 UNK         0.1400 
      6 C6          4.1941  -18.1566  -48.3172 C.3       23 UNK        -0.0398 
      7 S7          3.9045  -19.0056  -49.9075 S.3       23 UNK        -0.2404 
      8 C8          2.5032  -20.1137  -49.5482 C.3       23 UNK        -0.0205 
      9 C9          1.1604  -19.4214  -49.7258 C.ar      23 UNK        -0.0193 
     10 C10         0.7433  -19.0211  -50.9989 C.ar      23 UNK        -0.1150 
     11 C11        -0.4969  -18.4042  -51.1805 C.ar      23 UNK        -0.0193 
     12 C12        -1.3275  -18.2090  -50.0743 C.ar      23 UNK        -0.1150 
     13 C13        -0.9385  -18.6168  -48.7964 C.ar      23 UNK        -0.0193 
     14 C14         0.3224  -19.2079  -48.6286 C.ar      23 UNK        -0.1150 
     15 C15        -1.9148  -18.3646  -47.6475 C.3       23 UNK        -0.0205 
     16 S16        -1.4064  -18.9937  -46.0162 S.3       23 UNK        -0.2404 
     17 C17        -1.9697  -20.7269  -46.0492 C.3       23 UNK        -0.0398 
     18 CA         -0.9040  -21.7724  -46.4742 C.3       11 UNK         0.1400 
     19 N           0.3852  -21.6494  -45.7787 N.am      11 UNK        -0.5000 
     20 C           1.4613  -22.4173  -46.0218 C.2       10 UNK         0.5000 
     21 O           1.5110  -23.2675  -46.9090 O.2       10 UNK        -0.5000 
     22 CA          2.6688  -22.2590  -45.0849 C.3       10 UNK         0.1400 
     23 CB          3.5947  -21.1303  -45.5653 C.3       10 UNK        -0.1800 
     24 N           2.2505  -22.0173  -43.7058 N.am      10 UNK        -0.5000 
     25 C           1.7244  -22.9452  -42.8955 C.2       9 UNK         0.5000 
     26 O           1.5884  -24.1272  -43.2108 O.2       9 UNK        -0.5000 
     27 CA          1.2311  -22.4636  -41.5169 C.3       9 UNK         0.1400 
     28 CB          2.3948  -22.4037  -40.5165 C.3       9 UNK        -0.1800 
     29 N           0.5679  -21.1584  -41.5684 N.am      9 UNK        -0.5000 
     30 C          -0.5952  -20.9309  -42.1933 C.2       8 UNK         0.5000 
     31 O          -1.2441  -21.8100  -42.7624 O.2       8 UNK        -0.5000 
     32 CA         -1.1035  -19.4739  -42.2275 C.3       8 UNK         0.1400 
     33 CB         -1.8686  -19.1502  -40.9360 C.3       8 UNK        -0.1800 
     34 N          -0.0991  -18.4258  -42.4726 N.am      8 UNK        -0.5000 
     35 C           0.8830  -18.4499  -43.3881 C.2       7 UNK         0.5000 
     36 O           1.1809  -19.4520  -44.0316 O.2       7 UNK        -0.5000 
     37 CA          1.6489  -17.1504  -43.6975 C.3       7 UNK         0.1400 
     38 CB          1.6487  -16.8929  -45.2137 C.3       7 UNK        -0.1800 
     39 N           1.1169  -15.9648  -43.0298 N.am      7 UNK        -0.5000 
     40 C           1.3709  -15.6101  -41.7642 C.2       6 UNK         0.5000 
     41 O           2.0505  -16.2821  -40.9885 O.2       6 UNK        -0.5000 
     42 CA          0.7550  -14.2824  -41.2860 C.3       6 UNK         0.1400 
     43 CB          1.7314  -13.1269  -41.5552 C.3       6 UNK        -0.1800 
     44 N          -0.5306  -13.9819  -41.9224 N.am      6 UNK        -0.5000 
     45 C          -1.6704  -14.6548  -41.7000 C.2       5 UNK         0.5000 
     46 O          -1.7618  -15.6078  -40.9274 O.2       5 UNK        -0.5000 
     47 CA         -2.8954  -14.2096  -42.5112 C.3       5 UNK         0.1400 
     48 CB         -3.4737  -12.8931  -41.9576 C.3       5 UNK        -0.1800 
     49 N          -2.5030  -14.0742  -43.9097 N.am      5 UNK        -0.5000 
     50 C          -3.2879  -13.9070  -44.9756 C.2       4 UNK         0.5000 
     51 O          -4.5127  -13.7919  -44.9104 O.2       4 UNK        -0.5000 
     52 CA         -2.5626  -13.8681  -46.3439 C.3       4 UNK         0.1400 
     53 CB         -3.5004  -13.4942  -47.5053 C.3       4 UNK        -0.1800 
     54 N          -1.3942  -12.9755  -46.3743 N.am      4 UNK        -0.5000 
     55 C          -0.2141  -13.2140  -45.7908 C.2       3 UNK         0.5000 
     56 O           0.0066  -14.2048  -45.0855 O.2       3 UNK        -0.5000 
     57 CA          0.8985  -12.1771  -45.9896 C.3       3 UNK         0.1400 
     58 CB          0.7822  -11.0456  -44.9521 C.3       3 UNK        -0.1800 
     59 N           2.1517  -12.9037  -45.8416 N.am      3 UNK        -0.5000 
     60 C           3.3945  -12.4897  -46.1056 C.2       2 UNK         0.5000 
     61 O           3.6933  -11.3490  -46.4582 O.2       2 UNK        -0.5000 
     62 CA          4.4653  -13.5870  -46.0356 C.3       2 UNK         0.1400 
     63 CB          4.5980  -14.1240  -44.5923 C.3       2 UNK        -0.1800 
     64 N           4.0602  -14.6094  -47.0015 N.am      2 UNK        -0.5000 
     65 C           4.5364  -15.8390  -47.2209 C.2       1 UNK         0.5000 
     66 O           5.4511  -16.3393  -46.5658 O.2       1 UNK        -0.5000 
     67 C          -1.4846  -23.1897  -46.3046 C.2       11 UNK         0.5000 
     68 O          -1.8592  -23.8186  -47.2937 O.2       11 UNK        -0.5000 
     69 N          -1.5020  -23.6751  -45.0543 N.am      12 UNK        -0.5000 
     70 CA         -1.9485  -25.0158  -44.6837 C.3       12 UNK         0.1400 
     71 CB         -2.0203  -25.1246  -43.1530 C.3       12 UNK        -0.1800 
     72 C          -1.0627  -26.1285  -45.2719 C.2       12 UNK         0.5000 
     73 O          -1.5973  -27.1032  -45.8007 O.2       12 UNK        -0.5000 
     74 N           0.2654  -25.9586  -45.1904 N.am      13 UNK        -0.5000 
     75 CA          1.2542  -26.9115  -45.7016 C.3       13 UNK         0.1400 
     76 CB          2.6578  -26.5070  -45.2274 C.3       13 UNK        -0.1800 
     77 C           1.2234  -27.0583  -47.2338 C.2       13 UNK         0.5000 
     78 O           1.3031  -28.1796  -47.7372 O.2       13 UNK        -0.5000 
     79 N           1.0942  -25.9311  -47.9456 N.am      14 UNK        -0.5000 
     80 CA          0.9994  -25.8851  -49.4057 C.3       14 UNK         0.1400 
     81 CB          1.3767  -24.4724  -49.8812 C.3       14 UNK        -0.1800 
     82 C          -0.3960  -26.2640  -49.9384 C.2       14 UNK         0.5000 
     83 O          -0.5191  -26.5579  -51.1281 O.2       14 UNK        -0.5000 
     84 N          -1.4163  -26.2083  -49.0672 N.am      15 UNK        -0.5000 
     85 CA         -2.8519  -26.2661  -49.3714 C.3       15 UNK         0.1400 
     86 CB         -3.2569  -27.6533  -49.9109 C.3       15 UNK        -0.1800 
     87 C          -3.2810  -25.0987  -50.2883 C.2       15 UNK         0.5000 
     88 O          -4.0864  -25.2758  -51.2044 O.2       15 UNK        -0.5000 
     89 N          -2.6956  -23.9243  -50.0309 N.am      16 UNK        -0.5000 
     90 CA         -2.8437  -22.7093  -50.8144 C.3       16 UNK         0.1400 
     91 CB         -1.4848  -21.9935  -50.8814 C.3       16 UNK        -0.1800 
     92 C          -3.9290  -21.8307  -50.1814 C.2       16 UNK         0.5000 
     93 O          -3.6425  -21.0455  -49.2767 O.2       16 UNK        -0.5000 
     94 N          -5.1686  -21.9967  -50.6567 N.am      17 UNK        -0.5000 
     95 CA         -6.2897  -21.1103  -50.3565 C.3       17 UNK         0.1400 
     96 CB         -7.5906  -21.7577  -50.8557 C.3       17 UNK        -0.1800 
     97 C          -6.0513  -19.7404  -51.0171 C.2       17 UNK         0.5000 
     98 O          -6.0441  -19.6594  -52.2497 O.2       17 UNK        -0.5000 
     99 N          -5.8140  -18.7150  -50.1885 N.am      18 UNK        -0.5000 
    100 CA        -5.4123  -17.3654  -50.5868 C.3       18 UNK         0.1400 
    101 CB        -5.2750  -16.4813  -49.3378 C.3       18 UNK        -0.1800 
    102 C         -6.3619  -16.7287  -51.6170 C.2       18 UNK         0.5000 
    103 O         -7.5542  -16.5827  -51.3428 O.2       18 UNK        -0.5000 
    104 N         -5.8006  -16.4020  -52.7892 N.am      19 UNK        -0.5000 
    105 CA        -6.4445  -15.8277  -53.9784 C.3       19 UNK         0.1400 
    106 CB        -7.0699  -14.4540  -53.6591 C.3       19 UNK        -0.1800 
    107 C         -7.4419  -16.7605  -54.7034 C.2       19 UNK         0.5000 
    108 O         -8.0236  -16.3389  -55.7042 O.2       19 UNK        -0.5000 
    109 N         -7.6109  -18.0008  -54.2261 N.am      20 UNK        -0.5000 
    110 CA        -8.4819  -19.0132  -54.8211 C.3       20 UNK         0.1400 
    111 CB        -9.3658  -19.6357  -53.7284 C.3       20 UNK        -0.1800 
    112 C         -7.6365  -20.0770  -55.5345 C.2       20 UNK         0.5000 
    113 O         -7.8158  -20.2962  -56.7329 O.2       20 UNK        -0.5000 
    114 N         -6.7025  -20.6906  -54.7963 N.am      21 UNK        -0.5000 
    115 CA        -5.7350  -21.6560  -55.3215 C.3       21 UNK         0.1400 
    116 CB        -5.3050  -22.5943  -54.1848 C.3       21 UNK        -0.1800 
    117 C         -4.5008  -20.9586  -55.9208 C.2       21 UNK         0.5000 
    118 O         -3.8379  -21.5291  -56.7874 O.2       21 UNK        -0.5000 
    119 N         -4.2150  -19.7436  -55.4380 N.am      22 UNK        -0.5000 
    120 CA        -3.0534  -18.9213  -55.8117 C.3       22 UNK         0.1400 
    121 C         -3.1478  -18.2541  -57.2166 C.2       22 UNK         0.5000 
    122 N         -4.2751  -18.3183  -57.9148 N.am      22 UNK        -0.7600 
    123 O         -2.1753  -17.6685  -57.6843 O.2       22 UNK        -0.5000 
    124 C124       -2.7421  -17.8634  -54.7218 C.3       23 UNK        -0.0398 
    125 S125       -2.5440  -18.5966  -53.0596 S.3       23 UNK        -0.2404 
    126 C126       -0.9253  -17.9257  -52.5619 C.3       23 UNK        -0.0205 
    127 H127       -0.0997  -15.9261  -48.2060 H         1 UNK         0.0600 
    128 H128       -0.0707  -15.6130  -49.9510 H         1 UNK         0.0600 
    129 H129       -0.0617  -14.2708  -48.8049 H         1 UNK         0.0600 
    130 H130        1.8442  -17.1827  -48.2357 H         1 UNK         0.3000 
    131 H131        4.3462  -16.2497  -49.2887 H         1 UNK         0.0600 
    132 H132        3.6276  -18.6361  -47.5187 H         1 UNK         0.0800 
    133 H133        5.2458  -18.3289  -48.0829 H         1 UNK         0.0800 
    134 H134        2.5466  -20.9604  -50.2348 H         1 UNK         0.0800 
    135 H135        2.6033  -20.5367  -48.5478 H         1 UNK         0.0800 
    136 H136        1.3941  -19.1840  -51.8463 H         1 UNK         0.1150 
    137 H137       -2.2869  -17.7328  -50.2094 H         1 UNK         0.1150 
    138 H138        0.6592  -19.5193  -47.6515 H         1 UNK         0.1150 
    139 H139       -2.0564  -17.2877  -47.5544 H         1 UNK         0.0800 
    140 H140       -2.8911  -18.7773  -47.9049 H         1 UNK         0.0800 
    141 H141       -2.8419  -20.7999  -46.7006 H         1 UNK         0.0800 
    142 H142       -2.3386  -20.9463  -45.0466 H         1 UNK         0.0800 
    143 H143       -0.7050  -21.6315  -47.5374 H         1 UNK         0.0600 
    144 H144        0.4552  -20.9328  -45.0618 H         1 UNK         0.3000 
    145 H145        3.2390  -23.1894  -45.1090 H         1 UNK         0.0600 
    146 H146        4.4486  -21.0095  -44.8988 H         1 UNK         0.0600 
    147 H147        3.9871  -21.3492  -46.5590 H         1 UNK         0.0600 
    148 H148        3.0774  -20.1732  -45.6241 H         1 UNK         0.0600 
    149 H149        2.1923  -21.0441  -43.4285 H         1 UNK         0.3000 
    150 H150        0.5071  -23.1955  -41.1521 H         1 UNK         0.0600 
    151 H151        2.8970  -23.3694  -40.4442 H         1 UNK         0.0600 
    152 H152        2.0430  -22.1458  -39.5174 H         1 UNK         0.0600 
    153 H153        3.1423  -21.6659  -40.8109 H         1 UNK         0.0600 
    154 H154        1.0488  -20.3785  -41.1447 H         1 UNK         0.3000 
    155 H155       -1.8153  -19.4143  -43.0519 H         1 UNK         0.0600 
    156 H156       -1.1973  -19.0713  -40.0802 H         1 UNK         0.0600 
    157 H157       -2.4117  -18.2099  -41.0255 H         1 UNK         0.0600 
    158 H158       -2.6040  -19.9234  -40.7084 H         1 UNK         0.0600 
    159 H159       -0.2564  -17.5509  -41.9930 H         1 UNK         0.3000 
    160 H160        2.6827  -17.2997  -43.3796 H         1 UNK         0.0600 
    161 H161        2.1710  -15.9720  -45.4582 H         1 UNK         0.0600 
    162 H162        0.6354  -16.8101  -45.6078 H         1 UNK         0.0600 
    163 H163        2.1446  -17.7006  -45.7520 H         1 UNK         0.0600 
    164 H164        0.5624  -15.3445  -43.6105 H         1 UNK         0.3000 
    165 H165        0.5939  -14.3547  -40.2083 H         1 UNK         0.0600 
    166 H166        1.3230  -12.1737  -41.2190 H         1 UNK         0.0600 
    167 H167        2.6718  -13.2818  -41.0248 H         1 UNK         0.0600 
    168 H168        1.9686  -13.0394  -42.6162 H         1 UNK         0.0600 
    169 H169       -0.5446  -13.1964  -42.5552 H         1 UNK         0.3000 
    170 H170       -3.6532  -14.9921  -42.4379 H         1 UNK         0.0600 
    171 H171       -4.4051  -12.6252  -42.4558 H         1 UNK         0.0600 
    172 H172       -2.7782  -12.0625  -42.0822 H         1 UNK         0.0600 
    173 H173       -3.6939  -12.9818  -40.8930 H         1 UNK         0.0600 
    174 H174       -1.5139  -14.2053  -44.1065 H         1 UNK         0.3000 
    175 H175       -2.2102  -14.8851  -46.5295 H         1 UNK         0.0600 
    176 H176       -2.9885  -13.5685  -48.4650 H         1 UNK         0.0600 
    177 H177       -3.8801  -12.4770  -47.4028 H         1 UNK         0.0600 
    178 H178       -4.3604  -14.1634  -47.5473 H         1 UNK         0.0600 
    179 H179       -1.5131  -12.1172  -46.8929 H         1 UNK         0.3000 
    180 H180        0.8392  -11.7716  -47.0014 H         1 UNK         0.0600 
    181 H181        0.8384  -11.4240  -43.9319 H         1 UNK         0.0600 
    182 H182       -0.1679  -10.5201  -45.0536 H         1 UNK         0.0600 
    183 H183        1.5721  -10.3053  -45.0769 H         1 UNK         0.0600 
    184 H184        2.0079  -13.8648  -45.5580 H         1 UNK         0.3000 
    185 H185        5.4201  -13.1655  -46.3546 H         1 UNK         0.0600 
    186 H186        4.7493  -13.3056  -43.8873 H         1 UNK         0.0600 
    187 H187        3.7128  -14.6705  -44.2686 H         1 UNK         0.0600 
    188 H188        5.4556  -14.7878  -44.4888 H         1 UNK         0.0600 
    189 H189        3.3575  -14.2918  -47.6649 H         1 UNK         0.3000 
    190 H190       -1.2013  -23.0735  -44.2929 H         1 UNK         0.3000 
    191 H191       -2.9570  -25.1506  -45.0804 H         1 UNK         0.0600 
    192 H192       -2.7143  -24.3929  -42.7389 H         1 UNK         0.0600 
    193 H193       -2.3668  -26.1123  -42.8464 H         1 UNK         0.0600 
    194 H194       -1.0468  -24.9583  -42.6904 H         1 UNK         0.0600 
    195 H195        0.6288  -25.1498  -44.6971 H         1 UNK         0.3000 
    196 H196        1.0238  -27.8889  -45.2725 H         1 UNK         0.0600 
    197 H197        3.4088  -27.2154  -45.5791 H         1 UNK         0.0600 
    198 H198        2.7163  -26.4864  -44.1391 H         1 UNK         0.0600 
    199 H199        2.9377  -25.5210  -45.5982 H         1 UNK         0.0600 
    200 H200        1.0860  -25.0347  -47.4639 H         1 UNK         0.3000 
    201 H201        1.7185  -26.5899  -49.8284 H         1 UNK         0.0600 
    202 H202        2.3816  -24.2012  -49.5570 H         1 UNK         0.0600 
    203 H203        0.6870  -23.7220  -49.4924 H         1 UNK         0.0600 
    204 H204        1.3562  -24.4043  -50.9695 H         1 UNK         0.0600 
    205 H205       -1.1946  -25.9315  -48.1198 H         1 UNK         0.3000 
    206 H206       -3.3695  -26.1167  -48.4227 H         1 UNK         0.0600 
    207 H207       -2.9276  -28.4470  -49.2403 H         1 UNK         0.0600 
    208 H208       -4.3407  -27.7333  -50.0014 H         1 UNK         0.0600 
    209 H209       -2.8333  -27.8481  -50.8963 H         1 UNK         0.0600 
    210 H210       -2.1513  -23.8466  -49.1759 H         1 UNK         0.3000 
    211 H211       -3.1362  -22.9541  -51.8373 H         1 UNK         0.0600 
    212 H212       -1.1105  -21.7285  -49.8925 H         1 UNK         0.0600 
    213 H213       -1.5638  -21.0727  -51.4589 H         1 UNK         0.0600 
    214 H214       -0.7341  -22.6165  -51.3672 H         1 UNK         0.0600 
    215 H215       -5.3255  -22.6955  -51.3679 H         1 UNK         0.3000 
    216 H216       -6.3618  -20.9862  -49.2739 H         1 UNK         0.0600 
    217 H217       -8.4477  -21.1142  -50.6542 H         1 UNK         0.0600 
    218 H218       -7.7737  -22.7078  -50.3537 H         1 UNK         0.0600 
    219 H219       -7.5648  -21.9485  -51.9291 H         1 UNK         0.0600 
    220 H220       -5.8356  -18.8907  -49.1951 H         1 UNK         0.3000 
    221 H221       -4.4241  -17.4530  -51.0387 H         1 UNK         0.0600 
    222 H222       -6.2189  -16.3983  -48.7978 H         1 UNK         0.0600 
    223 H223       -4.5276  -16.8777  -48.6506 H         1 UNK         0.0600 
    224 H224       -4.9621  -15.4725  -49.6097 H         1 UNK         0.0600 
    225 H225       -4.8148  -16.5942  -52.8953 H         1 UNK         0.3000 
    226 H226       -5.6380  -15.6545  -54.6923 H         1 UNK         0.0600 
    227 H227       -6.3507  -13.7962  -53.1710 H         1 UNK         0.0600 
    228 H228       -7.3987  -13.9523  -54.5699 H         1 UNK         0.0600 
    229 H229       -7.9397  -14.5438  -53.0080 H         1 UNK         0.0600 
    230 H230       -7.0834  -18.2843  -53.4085 H         1 UNK         0.3000 
    231 H231       -9.1454  -18.5657  -55.5640 H         1 UNK         0.0600 
    232 H232       -8.7744  -20.0582  -52.9177 H         1 UNK         0.0600 
    233 H233       -9.9890  -20.4334  -54.1346 H         1 UNK         0.0600 
    234 H234      -10.0324  -18.8897  -53.2956 H         1 UNK         0.0600 
    235 H235       -6.5847  -20.4190  -53.8229 H         1 UNK         0.3000 
    236 H236       -6.2036  -22.2555  -56.1049 H         1 UNK         0.0600 
    237 H237       -6.1621  -23.1004  -53.7409 H         1 UNK         0.0600 
    238 H238       -4.6239  -23.3645  -54.5490 H         1 UNK         0.0600 
    239 H239       -4.7877  -22.0445  -53.3993 H         1 UNK         0.0600 
    240 H240       -4.8024  -19.3754  -54.7053 H         1 UNK         0.3000 
    241 H241       -2.1929  -19.5911  -55.8646 H         1 UNK         0.0600 
    242 H242       -5.0750  -18.8133  -57.5540 H         1 UNK         0.3800 
    243 H243       -4.3205  -17.8863  -58.8245 H         1 UNK         0.3800 
    244 H244       -1.8352  -17.3137  -54.9798 H         1 UNK         0.0800 
    245 H245       -3.5394  -17.1213  -54.6765 H         1 UNK         0.0800 
    246 H246       -0.9719  -16.8360  -52.5568 H         1 UNK         0.0800 
    247 H247       -0.1826  -18.2055  -53.3107 H         1 UNK         0.0800 
@<TRIPOS>BOND
     1    1    2 1    
     2    1  127 1    
     3    1  128 1    
     4    1  129 1    
     5    2    3 2    
     6    2    4 am   BACKBONE|DICT|INTERRES
     7    4    5 1    
     8    4  130 1    
     9    5    6 1    
    10    5   65 1    
    11    5  131 1    
    12    6    7 1    
    13    6  132 1    
    14    6  133 1    
    15    7    8 1    
    16    8    9 1    
    17    8  134 1    
    18    8  135 1    
    19    9   10 ar   
    20    9   14 ar   
    21   10   11 ar   
    22   10  136 1    
    23   11   12 ar   
    24   11  126 1    
    25   12   13 ar   
    26   12  137 1    
    27   13   14 ar   
    28   13   15 1    
    29   14  138 1    
    30   15   16 1    
    31   15  139 1    
    32   15  140 1    
    33   16   17 1    
    34   17   18 1    
    35   17  141 1    
    36   17  142 1    
    37   18   19 1    
    38   18   67 1    
    39   18  143 1    
    40   19   20 am   BACKBONE|DICT|INTERRES
    41   19  144 1    
    42   20   21 2    
    43   20   22 1    
    44   22   23 1    
    45   22   24 1    
    46   22  145 1    
    47   23  146 1    
    48   23  147 1    
    49   23  148 1    
    50   24   25 am   BACKBONE|DICT|INTERRES
    51   24  149 1    
    52   25   26 2    
    53   25   27 1    
    54   27   28 1    
    55   27   29 1    
    56   27  150 1    
    57   28  151 1    
    58   28  152 1    
    59   28  153 1    
    60   29   30 am   BACKBONE|DICT|INTERRES
    61   29  154 1    
    62   30   31 2    
    63   30   32 1    
    64   32   33 1    
    65   32   34 1    
    66   32  155 1    
    67   33  156 1    
    68   33  157 1    
    69   33  158 1    
    70   34   35 am   BACKBONE|DICT|INTERRES
    71   34  159 1    
    72   35   36 2    
    73   35   37 1    
    74   37   38 1    
    75   37   39 1    
    76   37  160 1    
    77   38  161 1    
    78   38  162 1    
    79   38  163 1    
    80   39   40 am   BACKBONE|DICT|INTERRES
    81   39  164 1    
    82   40   41 2    
    83   40   42 1    
    84   42   43 1    
    85   42   44 1    
    86   42  165 1    
    87   43  166 1    
    88   43  167 1    
    89   43  168 1    
    90   44   45 am   BACKBONE|DICT|INTERRES
    91   44  169 1    
    92   45   46 2    
    93   45   47 1    
    94   47   48 1    
    95   47   49 1    
    96   47  170 1    
    97   48  171 1    
    98   48  172 1    
    99   48  173 1    
   100   49   50 am   BACKBONE|DICT|INTERRES
   101   49  174 1    
   102   50   51 2    
   103   50   52 1    
   104   52   53 1    
   105   52   54 1    
   106   52  175 1    
   107   53  176 1    
   108   53  177 1    
   109   53  178 1    
   110   54   55 am   BACKBONE|DICT|INTERRES
   111   54  179 1    
   112   55   56 2    
   113   55   57 1    
   114   57   58 1    
   115   57   59 1    
   116   57  180 1    
   117   58  181 1    
   118   58  182 1    
   119   58  183 1    
   120   59   60 am   BACKBONE|DICT|INTERRES
   121   59  184 1    
   122   60   61 2    
   123   60   62 1    
   124   62   63 1    
   125   62   64 1    
   126   62  185 1    
   127   63  186 1    
   128   63  187 1    
   129   63  188 1    
   130   64   65 am   BACKBONE|DICT|INTERRES
   131   64  189 1    
   132   65   66 2    
   133   67   68 2    
   134   67   69 am   BACKBONE|DICT|INTERRES
   135   69   70 1    
   136   69  190 1    
   137   70   71 1    
   138   70   72 1    
   139   70  191 1    
   140   71  192 1    
   141   71  193 1    
   142   71  194 1    
   143   72   73 2    
   144   72   74 am   BACKBONE|DICT|INTERRES
   145   74   75 1    
   146   74  195 1    
   147   75   76 1    
   148   75   77 1    
   149   75  196 1    
   150   76  197 1    
   151   76  198 1    
   152   76  199 1    
   153   77   78 2    
   154   77   79 am   BACKBONE|DICT|INTERRES
   155   79   80 1    
   156   79  200 1    
   157   80   81 1    
   158   80   82 1    
   159   80  201 1    
   160   81  202 1    
   161   81  203 1    
   162   81  204 1    
   163   82   83 2    
   164   82   84 am   BACKBONE|DICT|INTERRES
   165   84   85 1    
   166   84  205 1    
   167   85   86 1    
   168   85   87 1    
   169   85  206 1    
   170   86  207 1    
   171   86  208 1    
   172   86  209 1    
   173   87   88 2    
   174   87   89 am   BACKBONE|DICT|INTERRES
   175   89   90 1    
   176   89  210 1    
   177   90   91 1    
   178   90   92 1    
   179   90  211 1    
   180   91  212 1    
   181   91  213 1    
   182   91  214 1    
   183   92   93 2    
   184   92   94 am   BACKBONE|DICT|INTERRES
   185   94   95 1    
   186   94  215 1    
   187   95   96 1    
   188   95   97 1    
   189   95  216 1    
   190   96  217 1    
   191   96  218 1    
   192   96  219 1    
   193   97   98 2    
   194   97   99 am   BACKBONE|DICT|INTERRES
   195   99  100 1    
   196   99  220 1    
   197  100  101 1    
   198  100  102 1    
   199  100  221 1    
   200  101  222 1    
   201  101  223 1    
   202  101  224 1    
   203  102  103 2    
   204  102  104 am   BACKBONE|DICT|INTERRES
   205  104  105 1    
   206  104  225 1    
   207  105  106 1    
   208  105  107 1    
   209  105  226 1    
   210  106  227 1    
   211  106  228 1    
   212  106  229 1    
   213  107  108 2    
   214  107  109 am   BACKBONE|DICT|INTERRES
   215  109  110 1    
   216  109  230 1    
   217  110  111 1    
   218  110  112 1    
   219  110  231 1    
   220  111  232 1    
   221  111  233 1    
   222  111  234 1    
   223  112  113 2    
   224  112  114 am   BACKBONE|DICT|INTERRES
   225  114  115 1    
   226  114  235 1    
   227  115  116 1    
   228  115  117 1    
   229  115  236 1    
   230  116  237 1    
   231  116  238 1    
   232  116  239 1    
   233  117  118 2    
   234  117  119 am   BACKBONE|DICT|INTERRES
   235  119  120 1    
   236  119  240 1    
   237  120  121 1    
   238  120  124 1    
   239  120  241 1    
   240  121  122 am   BACKBONE|DICT|INTERRES
   241  121  123 2    
   242  122  242 1    
   243  122  243 1    
   244  124  125 1    
   245  124  244 1    
   246  124  245 1    
   247  125  126 1    
   248  126  246 1    
   249  126  247 1    
@<TRIPOS>SUBSTRUCTURE
     1 UNK         1 GROUP             0       ****    0 ROOT    
