@<TRIPOS>MOLECULE
3R540
247   249    1
SMALL
USER_CHARGES


@<TRIPOS>ATOM
      1 CA          2.4867  -16.2941  -50.0195 C.3       0 UNK        -0.1800 
      2 C           1.4928  -15.4483  -49.2398 C.2       0 UNK         0.5000 
      3 O           1.8219  -14.3292  -48.8481 O.2       0 UNK        -0.5000 
      4 N           0.2734  -15.9639  -49.0360 N.am      1 UNK        -0.5000 
      5 CA         -0.8447  -15.3222  -48.3289 C.3       1 UNK         0.1400 
      6 C6         -2.0876  -16.2443  -48.2796 C.3       23 UNK        -0.0398 
      7 S7         -1.9282  -17.5482  -47.0155 S.3       23 UNK        -0.2404 
      8 C8         -1.8392  -19.0758  -48.0019 C.3       23 UNK        -0.0205 
      9 C9         -0.4634  -19.3343  -48.6068 C.ar      23 UNK        -0.0193 
     10 C10        -0.3577  -19.7120  -49.9470 C.ar      23 UNK        -0.1150 
     11 C11         0.8877  -19.9911  -50.5176 C.ar      23 UNK        -0.0193 
     12 C12         2.0399  -19.8672  -49.7376 C.ar      23 UNK        -0.1150 
     13 C13         1.9537  -19.4810  -48.3973 C.ar      23 UNK        -0.0193 
     14 C14         0.6985  -19.2360  -47.8329 C.ar      23 UNK        -0.1150 
     15 C15         3.2234  -19.2850  -47.5828 C.3       23 UNK        -0.0205 
     16 S16         3.9969  -20.8599  -47.1046 S.3       23 UNK        -0.2404 
     17 C17         3.0119  -21.3529  -45.6524 C.3       23 UNK        -0.0398 
     18 CA          2.5214  -22.8203  -45.7521 C.3       11 UNK         0.1400 
     19 N           2.4819  -23.4683  -44.4409 N.am      11 UNK        -0.5000 
     20 C           2.6000  -24.7876  -44.2382 C.2       10 UNK         0.5000 
     21 O           2.8307  -25.6002  -45.1335 O.2       10 UNK        -0.5000 
     22 CA          2.4165  -25.2888  -42.7921 C.3       10 UNK         0.1400 
     23 CB          3.7756  -25.3961  -42.0843 C.3       10 UNK        -0.1800 
     24 N           1.5291  -24.4394  -41.9948 N.am      10 UNK        -0.5000 
     25 C           0.2135  -24.3024  -42.2097 C.2       9 UNK         0.5000 
     26 O          -0.4006  -24.8999  -43.0919 O.2       9 UNK        -0.5000 
     27 CA         -0.5285  -23.2854  -41.3237 C.3       9 UNK         0.1400 
     28 CB         -1.0033  -23.9507  -40.0234 C.3       9 UNK        -0.1800 
     29 N           0.2623  -22.0933  -40.9990 N.am      9 UNK        -0.5000 
     30 C           0.7680  -21.2378  -41.8965 C.2       8 UNK         0.5000 
     31 O           0.6961  -21.3964  -43.1198 O.2       8 UNK        -0.5000 
     32 CA          1.5140  -20.0214  -41.3391 C.3       8 UNK         0.1400 
     33 CB          3.0090  -20.3315  -41.1598 C.3       8 UNK        -0.1800 
     34 N           1.3498  -18.9322  -42.2905 N.am      8 UNK        -0.5000 
     35 C           1.2253  -17.6364  -41.9900 C.2       7 UNK         0.5000 
     36 O           1.3368  -17.1866  -40.8474 O.2       7 UNK        -0.5000 
     37 CA          0.9308  -16.6680  -43.1571 C.3       7 UNK         0.1400 
     38 CB          0.7967  -17.3561  -44.5335 C.3       7 UNK        -0.1800 
     39 N          -0.2392  -15.8252  -42.9001 N.am      7 UNK        -0.5000 
     40 C          -1.4874  -16.2320  -42.6155 C.2       6 UNK         0.5000 
     41 O          -1.8283  -17.4126  -42.5307 O.2       6 UNK        -0.5000 
     42 CA         -2.5448  -15.1333  -42.3841 C.3       6 UNK         0.1400 
     43 CB         -2.7350  -14.8788  -40.8807 C.3       6 UNK        -0.1800 
     44 N          -2.2183  -13.8668  -43.0411 N.am      6 UNK        -0.5000 
     45 C          -2.2523  -13.6648  -44.3648 C.2       5 UNK         0.5000 
     46 O          -2.6301  -14.5119  -45.1733 O.2       5 UNK        -0.5000 
     47 CA         -1.7714  -12.2942  -44.8795 C.3       5 UNK         0.1400 
     48 CB         -1.8710  -11.1585  -43.8359 C.3       5 UNK        -0.1800 
     49 N          -0.4175  -12.3751  -45.4344 N.am      5 UNK        -0.5000 
     50 C           0.7068  -12.7367  -44.7981 C.2       4 UNK         0.5000 
     51 O           0.7430  -13.0656  -43.6107 O.2       4 UNK        -0.5000 
     52 CA          2.0166  -12.7488  -45.6116 C.3       4 UNK         0.1400 
     53 CB          2.6249  -14.1595  -45.6485 C.3       4 UNK        -0.1800 
     54 N           1.8692  -12.2753  -46.9891 N.am      4 UNK        -0.5000 
     55 C           1.9020  -10.9928  -47.3740 C.2       3 UNK         0.5000 
     56 O           1.9682  -10.0472  -46.5882 O.2       3 UNK        -0.5000 
     57 CA          1.8583  -10.7197  -48.8870 C.3       3 UNK         0.1400 
     58 CB          3.2500  -10.9219  -49.5068 C.3       3 UNK        -0.1800 
     59 N           0.9055  -11.6009  -49.5618 N.am      3 UNK        -0.5000 
     60 C          -0.2444  -11.2034  -50.1243 C.2       2 UNK         0.5000 
     61 O          -0.6112  -10.0284  -50.1741 O.2       2 UNK        -0.5000 
     62 CA         -1.1516  -12.2960  -50.7299 C.3       2 UNK         0.1400 
     63 CB         -0.9556  -12.3753  -52.2506 C.3       2 UNK        -0.1800 
     64 N          -0.9456  -13.6214  -50.1402 N.am      2 UNK        -0.5000 
     65 C          -1.2323  -13.9241  -48.8662 C.2       1 UNK         0.5000 
     66 O          -1.7511  -13.1174  -48.0948 O.2       1 UNK        -0.5000 
     67 C           1.1427  -22.9284  -46.4285 C.2       11 UNK         0.5000 
     68 O           1.0532  -23.3481  -47.5820 O.2       11 UNK        -0.5000 
     69 N           0.0845  -22.6088  -45.6682 N.am      12 UNK        -0.5000 
     70 CA         -1.3108  -22.6564  -46.1058 C.3       12 UNK         0.1400 
     71 CB         -2.2031  -22.0411  -45.0196 C.3       12 UNK        -0.1800 
     72 C          -1.8037  -24.0629  -46.4949 C.2       12 UNK         0.5000 
     73 O          -2.7000  -24.1721  -47.3296 O.2       12 UNK        -0.5000 
     74 N          -1.1826  -25.1141  -45.9422 N.am      13 UNK        -0.5000 
     75 CA         -1.4061  -26.5164  -46.3040 C.3       13 UNK         0.1400 
     76 CB         -0.5676  -27.4143  -45.3819 C.3       13 UNK        -0.1800 
     77 C          -1.1066  -26.8398  -47.7835 C.2       13 UNK         0.5000 
     78 O          -1.7203  -27.7540  -48.3341 O.2       13 UNK        -0.5000 
     79 N          -0.2046  -26.0734  -48.4150 N.am      14 UNK        -0.5000 
     80 CA          0.0997  -26.1645  -49.8460 C.3       14 UNK         0.1400 
     81 CB          1.5110  -25.6075  -50.0922 C.3       14 UNK        -0.1800 
     82 C          -0.9330  -25.4292  -50.7271 C.2       14 UNK         0.5000 
     83 O          -0.9002  -25.5828  -51.9483 O.2       14 UNK        -0.5000 
     84 N          -1.8223  -24.6464  -50.1042 N.am      15 UNK        -0.5000 
     85 CA         -2.8385  -23.8102  -50.7369 C.3       15 UNK         0.1400 
     86 CB         -2.5367  -22.3458  -50.3838 C.3       15 UNK        -0.1800 
     87 C          -4.2515  -24.2333  -50.2981 C.2       15 UNK         0.5000 
     88 O          -5.1574  -23.3982  -50.2686 O.2       15 UNK        -0.5000 
     89 N          -4.4231  -25.5275  -49.9849 N.am      16 UNK        -0.5000 
     90 CA         -5.6409  -26.1527  -49.4511 C.3       16 UNK         0.1400 
     91 CB         -5.3472  -27.6327  -49.1624 C.3       16 UNK        -0.1800 
     92 C          -6.9029  -26.0131  -50.3306 C.2       16 UNK         0.5000 
     93 O          -8.0135  -26.1787  -49.8257 O.2       16 UNK        -0.5000 
     94 N          -6.7193  -25.6678  -51.6117 N.am      17 UNK        -0.5000 
     95 CA         -7.7696  -25.2815  -52.5584 C.3       17 UNK         0.1400 
     96 CB         -7.2006  -25.4091  -53.9818 C.3       17 UNK        -0.1800 
     97 C          -8.3358  -23.8597  -52.3191 C.2       17 UNK         0.5000 
     98 O          -9.1764  -23.4145  -53.1011 O.2       17 UNK        -0.5000 
     99 N          -7.8557  -23.1725  -51.2707 N.am      18 UNK        -0.5000 
    100 CA        -8.1140  -21.7808  -50.8909 C.3       18 UNK         0.1400 
    101 CB        -9.6176  -21.4958  -50.6897 C.3       18 UNK        -0.1800 
    102 C         -7.4159  -20.7982  -51.8487 C.2       18 UNK         0.5000 
    103 O         -7.9849  -19.7693  -52.2198 O.2       18 UNK        -0.5000 
    104 N         -6.1716  -21.1283  -52.2218 N.am      19 UNK        -0.5000 
    105 CA        -5.3160  -20.3453  -53.1149 C.3       19 UNK         0.1400 
    106 CB        -4.3050  -21.2844  -53.7975 C.3       19 UNK        -0.1800 
    107 C         -4.6453  -19.1687  -52.3751 C.2       19 UNK         0.5000 
    108 O         -3.4188  -19.0668  -52.3381 O.2       19 UNK        -0.5000 
    109 N         -5.4699  -18.2875  -51.7951 N.am      20 UNK        -0.5000 
    110 CA        -5.0518  -17.1040  -51.0372 C.3       20 UNK         0.1400 
    111 CB        -6.2691  -16.5338  -50.2948 C.3       20 UNK        -0.1800 
    112 C         -4.3791  -16.0143  -51.8980 C.2       20 UNK         0.5000 
    113 O         -3.6811  -15.1608  -51.3532 O.2       20 UNK        -0.5000 
    114 N         -4.5854  -16.0734  -53.2217 N.am      21 UNK        -0.5000 
    115 CA        -3.9702  -15.2009  -54.2256 C.3       21 UNK         0.1400 
    116 CB        -4.7653  -15.3305  -55.5349 C.3       21 UNK        -0.1800 
    117 C         -2.4712  -15.4846  -54.4696 C.2       21 UNK         0.5000 
    118 O         -1.8181  -14.6975  -55.1556 O.2       21 UNK        -0.5000 
    119 N         -1.9595  -16.5957  -53.9231 N.am      22 UNK        -0.5000 
    120 CA        -0.5406  -16.9758  -53.8801 C.3       22 UNK         0.1400 
    121 C          0.3429  -15.8785  -53.2205 C.2       22 UNK         0.5000 
    122 N          1.4315  -15.4686  -53.8573 N.am      22 UNK        -0.7600 
    123 O          0.0587  -15.4223  -52.1179 O.2       22 UNK        -0.5000 
    124 C124       -0.4129  -18.3235  -53.1324 C.3       23 UNK        -0.0398 
    125 S125        1.2565  -19.0579  -53.1159 S.3       23 UNK        -0.2404 
    126 C126        0.9919  -20.4463  -51.9674 C.3       23 UNK        -0.0205 
    127 H127        3.2631  -16.6720  -49.3559 H         1 UNK         0.0600 
    128 H128        2.9599  -15.6932  -50.7958 H         1 UNK         0.0600 
    129 H129        1.9984  -17.1385  -50.5053 H         1 UNK         0.0600 
    130 H130        0.0803  -16.8892  -49.3912 H         1 UNK         0.3000 
    131 H131       -0.5049  -15.1522  -47.3048 H         1 UNK         0.0600 
    132 H132       -2.2824  -16.6789  -49.2607 H         1 UNK         0.0800 
    133 H133       -2.9857  -15.6815  -48.0162 H         1 UNK         0.0800 
    134 H134       -2.0917  -19.9093  -47.3487 H         1 UNK         0.0800 
    135 H135       -2.6111  -19.0518  -48.7730 H         1 UNK         0.0800 
    136 H136       -1.2522  -19.7999  -50.5473 H         1 UNK         0.1150 
    137 H137        3.0080  -20.0653  -50.1758 H         1 UNK         0.1150 
    138 H138        0.6238  -18.9514  -46.7948 H         1 UNK         0.1150 
    139 H139        3.9407  -18.7217  -48.1809 H         1 UNK         0.0800 
    140 H140        3.0334  -18.6784  -46.6968 H         1 UNK         0.0800 
    141 H141        2.1885  -20.6562  -45.4855 H         1 UNK         0.0800 
    142 H142        3.6688  -21.2352  -44.7894 H         1 UNK         0.0800 
    143 H143        3.2306  -23.3773  -46.3691 H         1 UNK         0.0600 
    144 H144        2.2257  -22.8807  -43.6594 H         1 UNK         0.3000 
    145 H145        1.9759  -26.2869  -42.8429 H         1 UNK         0.0600 
    146 H146        3.6683  -25.8213  -41.0863 H         1 UNK         0.0600 
    147 H147        4.4554  -26.0431  -42.6403 H         1 UNK         0.0600 
    148 H148        4.2564  -24.4220  -41.9856 H         1 UNK         0.0600 
    149 H149        1.9528  -23.9086  -41.2481 H         1 UNK         0.3000 
    150 H150       -1.4103  -22.9535  -41.8741 H         1 UNK         0.0600 
    151 H151       -0.1644  -24.2724  -39.4051 H         1 UNK         0.0600 
    152 H152       -1.6120  -24.8310  -40.2349 H         1 UNK         0.0600 
    153 H153       -1.6154  -23.2695  -39.4320 H         1 UNK         0.0600 
    154 H154        0.3838  -21.8955  -40.0161 H         1 UNK         0.3000 
    155 H155        1.0733  -19.7489  -40.3777 H         1 UNK         0.0600 
    156 H156        3.4773  -20.6164  -42.1029 H         1 UNK         0.0600 
    157 H157        3.1583  -21.1512  -40.4561 H         1 UNK         0.0600 
    158 H158        3.5454  -19.4666  -40.7691 H         1 UNK         0.0600 
    159 H159        1.1705  -19.2391  -43.2375 H         1 UNK         0.3000 
    160 H160        1.7848  -15.9929  -43.2049 H         1 UNK         0.0600 
    161 H161       -0.0106  -18.0897  -44.5465 H         1 UNK         0.0600 
    162 H162        1.7204  -17.8639  -44.8111 H         1 UNK         0.0600 
    163 H163        0.5829  -16.6287  -45.3159 H         1 UNK         0.0600 
    164 H164       -0.0644  -14.8263  -42.9405 H         1 UNK         0.3000 
    165 H165       -3.4908  -15.4963  -42.7914 H         1 UNK         0.0600 
    166 H166       -3.5296  -14.1547  -40.6998 H         1 UNK         0.0600 
    167 H167       -3.0095  -15.7978  -40.3611 H         1 UNK         0.0600 
    168 H168       -1.8223  -14.5008  -40.4184 H         1 UNK         0.0600 
    169 H169       -1.8663  -13.1259  -42.4524 H         1 UNK         0.3000 
    170 H170       -2.4314  -12.0301  -45.7068 H         1 UNK         0.0600 
    171 H171       -2.8832  -11.0822  -43.4368 H         1 UNK         0.0600 
    172 H172       -1.1925  -11.2991  -42.9943 H         1 UNK         0.0600 
    173 H173       -1.6325  -10.1964  -44.2896 H         1 UNK         0.0600 
    174 H174       -0.3552  -12.1957  -46.4275 H         1 UNK         0.3000 
    175 H175        2.7208  -12.0962  -45.0915 H         1 UNK         0.0600 
    176 H176        1.9433  -14.8783  -46.1028 H         1 UNK         0.0600 
    177 H177        3.5529  -14.1742  -46.2205 H         1 UNK         0.0600 
    178 H178        2.8624  -14.5104  -44.6447 H         1 UNK         0.0600 
    179 H179        1.8377  -13.0030  -47.7021 H         1 UNK         0.3000 
    180 H180        1.5796   -9.6728  -49.0232 H         1 UNK         0.0600 
    181 H181        3.5887  -11.9546  -49.4113 H         1 UNK         0.0600 
    182 H182        3.9911  -10.2854  -49.0217 H         1 UNK         0.0600 
    183 H183        3.2475  -10.6684  -50.5670 H         1 UNK         0.0600 
    184 H184        1.1167  -12.5936  -49.5425 H         1 UNK         0.3000 
    185 H185       -2.1867  -12.0052  -50.5395 H         1 UNK         0.0600 
    186 H186       -1.1534  -11.4124  -52.7229 H         1 UNK         0.0600 
    187 H187        0.0629  -12.6665  -52.5097 H         1 UNK         0.0600 
    188 H188       -1.6359  -13.1015  -52.6951 H         1 UNK         0.0600 
    189 H189       -0.5354  -14.3324  -50.7446 H         1 UNK         0.3000 
    190 H190        0.2482  -22.2675  -44.7246 H         1 UNK         0.3000 
    191 H191       -1.3839  -22.0411  -47.0031 H         1 UNK         0.0600 
    192 H192       -1.8932  -21.0227  -44.7826 H         1 UNK         0.0600 
    193 H193       -3.2427  -21.9979  -45.3466 H         1 UNK         0.0600 
    194 H194       -2.1712  -22.6254  -44.1003 H         1 UNK         0.0600 
    195 H195       -0.5233  -24.9402  -45.1925 H         1 UNK         0.3000 
    196 H196       -2.4613  -26.7369  -46.1307 H         1 UNK         0.0600 
    197 H197       -0.7083  -28.4681  -45.6259 H         1 UNK         0.0600 
    198 H198       -0.8531  -27.2845  -44.3381 H         1 UNK         0.0600 
    199 H199        0.4972  -27.1954  -45.4689 H         1 UNK         0.0600 
    200 H200        0.2405  -25.3140  -47.9111 H         1 UNK         0.3000 
    201 H201        0.0962  -27.2154  -50.1424 H         1 UNK         0.0600 
    202 H202        1.8132  -25.7571  -51.1294 H         1 UNK         0.0600 
    203 H203        2.2495  -26.1056  -49.4638 H         1 UNK         0.0600 
    204 H204        1.5636  -24.5374  -49.8899 H         1 UNK         0.0600 
    205 H205       -1.8214  -24.6150  -49.0900 H         1 UNK         0.3000 
    206 H206       -2.8041  -23.9152  -51.8227 H         1 UNK         0.0600 
    207 H207       -1.5559  -22.0692  -50.7652 H         1 UNK         0.0600 
    208 H208       -3.2628  -21.6589  -50.8173 H         1 UNK         0.0600 
    209 H209       -2.5373  -22.1812  -49.3062 H         1 UNK         0.0600 
    210 H210       -3.6128  -26.1272  -50.0445 H         1 UNK         0.3000 
    211 H211       -5.8629  -25.6596  -48.5028 H         1 UNK         0.0600 
    212 H212       -5.0650  -28.1701  -50.0685 H         1 UNK         0.0600 
    213 H213       -6.2204  -28.1330  -48.7414 H         1 UNK         0.0600 
    214 H214       -4.5367  -27.7402  -48.4413 H         1 UNK         0.0600 
    215 H215       -5.7686  -25.5605  -51.9326 H         1 UNK         0.3000 
    216 H216       -8.6016  -25.9812  -52.4580 H         1 UNK         0.0600 
    217 H217       -7.9639  -25.1992  -54.7322 H         1 UNK         0.0600 
    218 H218       -6.8335  -26.4180  -54.1716 H         1 UNK         0.0600 
    219 H219       -6.3767  -24.7139  -54.1484 H         1 UNK         0.0600 
    220 H220       -7.1108  -23.6110  -50.7406 H         1 UNK         0.3000 
    221 H221       -7.6304  -21.6452  -49.9224 H         1 UNK         0.0600 
    222 H222      -10.1672  -21.5045  -51.6310 H         1 UNK         0.0600 
    223 H223      -10.0732  -22.2305  -50.0260 H         1 UNK         0.0600 
    224 H224       -9.7674  -20.5141  -50.2390 H         1 UNK         0.0600 
    225 H225       -5.7601  -21.9553  -51.8071 H         1 UNK         0.3000 
    226 H226       -5.9359  -19.9123  -53.9028 H         1 UNK         0.0600 
    227 H227       -4.8142  -22.0693  -54.3571 H         1 UNK         0.0600 
    228 H228       -3.6805  -20.7369  -54.5046 H         1 UNK         0.0600 
    229 H229       -3.6408  -21.7644  -53.0807 H         1 UNK         0.0600 
    230 H230       -6.4673  -18.4610  -51.8669 H         1 UNK         0.3000 
    231 H231       -4.3214  -17.4275  -50.2936 H         1 UNK         0.0600 
    232 H232       -7.0475  -16.2122  -50.9878 H         1 UNK         0.0600 
    233 H233       -5.9894  -15.6703  -49.6897 H         1 UNK         0.0600 
    234 H234       -6.7028  -17.2737  -49.6218 H         1 UNK         0.0600 
    235 H235       -5.1871  -16.8040  -53.5711 H         1 UNK         0.3000 
    236 H236       -4.0499  -14.1693  -53.8763 H         1 UNK         0.0600 
    237 H237       -5.8130  -15.0670  -55.3886 H         1 UNK         0.0600 
    238 H238       -4.3695  -14.6635  -56.3020 H         1 UNK         0.0600 
    239 H239       -4.7250  -16.3460  -55.9307 H         1 UNK         0.0600 
    240 H240       -2.5794  -17.1778  -53.3759 H         1 UNK         0.3000 
    241 H241       -0.2135  -17.1188  -54.9113 H         1 UNK         0.0600 
    242 H242        1.6870  -15.8408  -54.7582 H         1 UNK         0.3800 
    243 H243        2.0110  -14.7657  -53.4289 H         1 UNK         0.3800 
    244 H244       -0.7544  -18.1897  -52.1069 H         1 UNK         0.0800 
    245 H245       -1.0800  -19.0590  -53.5840 H         1 UNK         0.0800 
    246 H246        0.0962  -20.9963  -52.2597 H         1 UNK         0.0800 
    247 H247        1.8214  -21.1475  -52.0695 H         1 UNK         0.0800 
@<TRIPOS>BOND
     1    1    2 1    
     2    1  127 1    
     3    1  128 1    
     4    1  129 1    
     5    2    3 2    
     6    2    4 am   BACKBONE|DICT|INTERRES
     7    4    5 1    
     8    4  130 1    
     9    5    6 1    
    10    5   65 1    
    11    5  131 1    
    12    6    7 1    
    13    6  132 1    
    14    6  133 1    
    15    7    8 1    
    16    8    9 1    
    17    8  134 1    
    18    8  135 1    
    19    9   10 ar   
    20    9   14 ar   
    21   10   11 ar   
    22   10  136 1    
    23   11   12 ar   
    24   11  126 1    
    25   12   13 ar   
    26   12  137 1    
    27   13   14 ar   
    28   13   15 1    
    29   14  138 1    
    30   15   16 1    
    31   15  139 1    
    32   15  140 1    
    33   16   17 1    
    34   17   18 1    
    35   17  141 1    
    36   17  142 1    
    37   18   19 1    
    38   18   67 1    
    39   18  143 1    
    40   19   20 am   BACKBONE|DICT|INTERRES
    41   19  144 1    
    42   20   21 2    
    43   20   22 1    
    44   22   23 1    
    45   22   24 1    
    46   22  145 1    
    47   23  146 1    
    48   23  147 1    
    49   23  148 1    
    50   24   25 am   BACKBONE|DICT|INTERRES
    51   24  149 1    
    52   25   26 2    
    53   25   27 1    
    54   27   28 1    
    55   27   29 1    
    56   27  150 1    
    57   28  151 1    
    58   28  152 1    
    59   28  153 1    
    60   29   30 am   BACKBONE|DICT|INTERRES
    61   29  154 1    
    62   30   31 2    
    63   30   32 1    
    64   32   33 1    
    65   32   34 1    
    66   32  155 1    
    67   33  156 1    
    68   33  157 1    
    69   33  158 1    
    70   34   35 am   BACKBONE|DICT|INTERRES
    71   34  159 1    
    72   35   36 2    
    73   35   37 1    
    74   37   38 1    
    75   37   39 1    
    76   37  160 1    
    77   38  161 1    
    78   38  162 1    
    79   38  163 1    
    80   39   40 am   BACKBONE|DICT|INTERRES
    81   39  164 1    
    82   40   41 2    
    83   40   42 1    
    84   42   43 1    
    85   42   44 1    
    86   42  165 1    
    87   43  166 1    
    88   43  167 1    
    89   43  168 1    
    90   44   45 am   BACKBONE|DICT|INTERRES
    91   44  169 1    
    92   45   46 2    
    93   45   47 1    
    94   47   48 1    
    95   47   49 1    
    96   47  170 1    
    97   48  171 1    
    98   48  172 1    
    99   48  173 1    
   100   49   50 am   BACKBONE|DICT|INTERRES
   101   49  174 1    
   102   50   51 2    
   103   50   52 1    
   104   52   53 1    
   105   52   54 1    
   106   52  175 1    
   107   53  176 1    
   108   53  177 1    
   109   53  178 1    
   110   54   55 am   BACKBONE|DICT|INTERRES
   111   54  179 1    
   112   55   56 2    
   113   55   57 1    
   114   57   58 1    
   115   57   59 1    
   116   57  180 1    
   117   58  181 1    
   118   58  182 1    
   119   58  183 1    
   120   59   60 am   BACKBONE|DICT|INTERRES
   121   59  184 1    
   122   60   61 2    
   123   60   62 1    
   124   62   63 1    
   125   62   64 1    
   126   62  185 1    
   127   63  186 1    
   128   63  187 1    
   129   63  188 1    
   130   64   65 am   BACKBONE|DICT|INTERRES
   131   64  189 1    
   132   65   66 2    
   133   67   68 2    
   134   67   69 am   BACKBONE|DICT|INTERRES
   135   69   70 1    
   136   69  190 1    
   137   70   71 1    
   138   70   72 1    
   139   70  191 1    
   140   71  192 1    
   141   71  193 1    
   142   71  194 1    
   143   72   73 2    
   144   72   74 am   BACKBONE|DICT|INTERRES
   145   74   75 1    
   146   74  195 1    
   147   75   76 1    
   148   75   77 1    
   149   75  196 1    
   150   76  197 1    
   151   76  198 1    
   152   76  199 1    
   153   77   78 2    
   154   77   79 am   BACKBONE|DICT|INTERRES
   155   79   80 1    
   156   79  200 1    
   157   80   81 1    
   158   80   82 1    
   159   80  201 1    
   160   81  202 1    
   161   81  203 1    
   162   81  204 1    
   163   82   83 2    
   164   82   84 am   BACKBONE|DICT|INTERRES
   165   84   85 1    
   166   84  205 1    
   167   85   86 1    
   168   85   87 1    
   169   85  206 1    
   170   86  207 1    
   171   86  208 1    
   172   86  209 1    
   173   87   88 2    
   174   87   89 am   BACKBONE|DICT|INTERRES
   175   89   90 1    
   176   89  210 1    
   177   90   91 1    
   178   90   92 1    
   179   90  211 1    
   180   91  212 1    
   181   91  213 1    
   182   91  214 1    
   183   92   93 2    
   184   92   94 am   BACKBONE|DICT|INTERRES
   185   94   95 1    
   186   94  215 1    
   187   95   96 1    
   188   95   97 1    
   189   95  216 1    
   190   96  217 1    
   191   96  218 1    
   192   96  219 1    
   193   97   98 2    
   194   97   99 am   BACKBONE|DICT|INTERRES
   195   99  100 1    
   196   99  220 1    
   197  100  101 1    
   198  100  102 1    
   199  100  221 1    
   200  101  222 1    
   201  101  223 1    
   202  101  224 1    
   203  102  103 2    
   204  102  104 am   BACKBONE|DICT|INTERRES
   205  104  105 1    
   206  104  225 1    
   207  105  106 1    
   208  105  107 1    
   209  105  226 1    
   210  106  227 1    
   211  106  228 1    
   212  106  229 1    
   213  107  108 2    
   214  107  109 am   BACKBONE|DICT|INTERRES
   215  109  110 1    
   216  109  230 1    
   217  110  111 1    
   218  110  112 1    
   219  110  231 1    
   220  111  232 1    
   221  111  233 1    
   222  111  234 1    
   223  112  113 2    
   224  112  114 am   BACKBONE|DICT|INTERRES
   225  114  115 1    
   226  114  235 1    
   227  115  116 1    
   228  115  117 1    
   229  115  236 1    
   230  116  237 1    
   231  116  238 1    
   232  116  239 1    
   233  117  118 2    
   234  117  119 am   BACKBONE|DICT|INTERRES
   235  119  120 1    
   236  119  240 1    
   237  120  121 1    
   238  120  124 1    
   239  120  241 1    
   240  121  122 am   BACKBONE|DICT|INTERRES
   241  121  123 2    
   242  122  242 1    
   243  122  243 1    
   244  124  125 1    
   245  124  244 1    
   246  124  245 1    
   247  125  126 1    
   248  126  246 1    
   249  126  247 1    
@<TRIPOS>SUBSTRUCTURE
     1 UNK         1 GROUP             0       ****    0 ROOT    
