@<TRIPOS>MOLECULE
3R540
247   249    1
SMALL
USER_CHARGES


@<TRIPOS>ATOM
      1 CA         -1.6009  -10.9743  -54.2927 C.3       0 UNK        -0.1800 
      2 C          -0.4954  -11.3325  -53.3097 C.2       0 UNK         0.5000 
      3 O           0.3642  -10.4987  -53.0229 O.2       0 UNK        -0.5000 
      4 N          -0.5110  -12.5686  -52.7993 N.am      1 UNK        -0.5000 
      5 CA          0.4059  -13.0674  -51.7721 C.3       1 UNK         0.1400 
      6 C6          0.3772  -14.6150  -51.7483 C.3       23 UNK        -0.0398 
      7 S7          1.8704  -15.3569  -50.9964 S.3       23 UNK        -0.2404 
      8 C8          1.8069  -17.0659  -51.6344 C.3       23 UNK        -0.0205 
      9 C9          1.1528  -18.0515  -50.6704 C.ar      23 UNK        -0.0193 
     10 C10        -0.1198  -17.8054  -50.1436 C.ar      23 UNK        -0.1150 
     11 C11        -0.7380  -18.7309  -49.3019 C.ar      23 UNK        -0.0193 
     12 C12        -0.0769  -19.9189  -48.9927 C.ar      23 UNK        -0.1150 
     13 C13         1.1974  -20.1791  -49.4969 C.ar      23 UNK        -0.0193 
     14 C14         1.8100  -19.2417  -50.3343 C.ar      23 UNK        -0.1150 
     15 C15         1.8869  -21.4836  -49.1351 C.3       23 UNK        -0.0205 
     16 S16         2.5194  -21.4216  -47.4318 S.3       23 UNK        -0.2404 
     17 C17         2.6813  -23.1887  -47.0273 C.3       23 UNK        -0.0398 
     18 CA          1.5497  -23.7750  -46.1458 C.3       11 UNK         0.1400 
     19 N           1.4013  -23.1327  -44.8334 N.am      11 UNK        -0.5000 
     20 C           0.8521  -23.7623  -43.7818 C.2       10 UNK         0.5000 
     21 O           0.4528  -24.9271  -43.8244 O.2       10 UNK        -0.5000 
     22 CA          0.6907  -22.9685  -42.4728 C.3       10 UNK         0.1400 
     23 CB          2.0359  -22.8118  -41.7479 C.3       10 UNK        -0.1800 
     24 N           0.0726  -21.6593  -42.6708 N.am      10 UNK        -0.5000 
     25 C          -1.1791  -21.4676  -43.1120 C.2       9 UNK         0.5000 
     26 O          -1.9596  -22.3842  -43.3738 O.2       9 UNK        -0.5000 
     27 CA         -1.6206  -20.0063  -43.3358 C.3       9 UNK         0.1400 
     28 CB         -2.1346  -19.3820  -42.0305 C.3       9 UNK        -0.1800 
     29 N          -0.5612  -19.1647  -43.8960 N.am      9 UNK        -0.5000 
     30 C           0.0338  -19.3898  -45.0755 C.2       8 UNK         0.5000 
     31 O          -0.2765  -20.3144  -45.8207 O.2       8 UNK        -0.5000 
     32 CA          1.2127  -18.4783  -45.4510 C.3       8 UNK         0.1400 
     33 CB          0.7288  -17.1299  -46.0011 C.3       8 UNK        -0.1800 
     34 N           2.1133  -18.2733  -44.3177 N.am      8 UNK        -0.5000 
     35 C           2.8839  -19.2339  -43.7848 C.2       7 UNK         0.5000 
     36 O           2.9535  -20.3831  -44.2202 O.2       7 UNK        -0.5000 
     37 CA          3.6771  -18.8561  -42.5208 C.3       7 UNK         0.1400 
     38 CB          4.9882  -18.1476  -42.8930 C.3       7 UNK        -0.1800 
     39 N           2.9062  -18.0059  -41.6132 N.am      7 UNK        -0.5000 
     40 C           1.8087  -18.4025  -40.9530 C.2       6 UNK         0.5000 
     41 O           1.3610  -19.5479  -40.9966 O.2       6 UNK        -0.5000 
     42 CA          1.0603  -17.3216  -40.1503 C.3       6 UNK         0.1400 
     43 CB          1.6397  -17.2017  -38.7330 C.3       6 UNK        -0.1800 
     44 N           1.0834  -16.0070  -40.8000 N.am      6 UNK        -0.5000 
     45 C           0.5174  -15.7408  -41.9846 C.2       5 UNK         0.5000 
     46 O          -0.0756  -16.5847  -42.6596 O.2       5 UNK        -0.5000 
     47 CA          0.7080  -14.3139  -42.5296 C.3       5 UNK         0.1400 
     48 CB          1.9921  -14.2378  -43.3701 C.3       5 UNK        -0.1800 
     49 N          -0.4261  -13.8750  -43.3442 N.am      5 UNK        -0.5000 
     50 C          -1.6466  -13.6066  -42.8545 C.2       4 UNK         0.5000 
     51 O          -1.9229  -13.6758  -41.6556 O.2       4 UNK        -0.5000 
     52 CA         -2.7431  -13.1519  -43.8411 C.3       4 UNK         0.1400 
     53 CB         -3.0216  -11.6490  -43.6775 C.3       4 UNK        -0.1800 
     54 N          -2.4224  -13.4131  -45.2433 N.am      4 UNK        -0.5000 
     55 C          -2.4854  -14.6113  -45.8370 C.2       3 UNK         0.5000 
     56 O          -2.8798  -15.6323  -45.2743 O.2       3 UNK        -0.5000 
     57 CA         -2.0275  -14.6876  -47.3074 C.3       3 UNK         0.1400 
     58 CB         -3.2372  -14.7599  -48.2528 C.3       3 UNK        -0.1800 
     59 N          -1.1604  -13.5925  -47.7499 N.am      3 UNK        -0.5000 
     60 C           0.0472  -13.2822  -47.2615 C.2       2 UNK         0.5000 
     61 O           0.5314  -13.8208  -46.2663 O.2       2 UNK        -0.5000 
     62 CA          0.8363  -12.1977  -48.0302 C.3       2 UNK         0.1400 
     63 CB          2.2232  -11.9337  -47.4169 C.3       2 UNK        -0.1800 
     64 N           1.0061  -12.5507  -49.4433 N.am      2 UNK        -0.5000 
     65 C           0.0572  -12.4770  -50.3852 C.2       1 UNK         0.5000 
     66 O          -1.0697  -12.0248  -50.1634 O.2       1 UNK        -0.5000 
     67 C           0.2043  -23.9151  -46.8889 C.2       11 UNK         0.5000 
     68 O           0.0291  -24.9019  -47.6024 O.2       11 UNK        -0.5000 
     69 N          -0.7449  -22.9884  -46.6764 N.am      12 UNK        -0.5000 
     70 CA         -2.1091  -23.0632  -47.2109 C.3       12 UNK         0.1400 
     71 CB         -2.9129  -21.8113  -46.8363 C.3       12 UNK        -0.1800 
     72 C          -2.8730  -24.3058  -46.7338 C.2       12 UNK         0.5000 
     73 O          -3.5777  -24.9179  -47.5350 O.2       12 UNK        -0.5000 
     74 N          -2.7003  -24.6694  -45.4558 N.am      13 UNK        -0.5000 
     75 CA         -3.2943  -25.8615  -44.8505 C.3       13 UNK         0.1400 
     76 CB         -3.0606  -25.8296  -43.3328 C.3       13 UNK        -0.1800 
     77 C          -2.7640  -27.1745  -45.4586 C.2       13 UNK         0.5000 
     78 O          -3.5205  -28.1401  -45.5654 O.2       13 UNK        -0.5000 
     79 N          -1.4865  -27.1808  -45.8625 N.am      14 UNK        -0.5000 
     80 CA         -0.8414  -28.3038  -46.5404 C.3       14 UNK         0.1400 
     81 CB          0.6814  -28.1989  -46.3604 C.3       14 UNK        -0.1800 
     82 C          -1.2149  -28.3683  -48.0328 C.2       14 UNK         0.5000 
     83 O          -1.5061  -29.4512  -48.5417 O.2       14 UNK        -0.5000 
     84 N          -1.1939  -27.2104  -48.7062 N.am      15 UNK        -0.5000 
     85 CA         -1.4439  -27.0708  -50.1421 C.3       15 UNK         0.1400 
     86 CB         -0.8869  -25.7146  -50.6068 C.3       15 UNK        -0.1800 
     87 C          -2.9273  -27.1899  -50.5400 C.2       15 UNK         0.5000 
     88 O          -3.2064  -27.4791  -51.7039 O.2       15 UNK        -0.5000 
     89 N          -3.8352  -26.9370  -49.5849 N.am      16 UNK        -0.5000 
     90 CA         -5.2711  -26.6906  -49.7665 C.3       16 UNK         0.1400 
     91 CB         -5.9983  -27.9095  -50.3734 C.3       16 UNK        -0.1800 
     92 C          -5.4953  -25.3732  -50.5400 C.2       16 UNK         0.5000 
     93 O          -6.1995  -25.3510  -51.5514 O.2       16 UNK        -0.5000 
     94 N          -4.8514  -24.3139  -50.0260 N.am      17 UNK        -0.5000 
     95 CA         -4.6725  -22.9658  -50.5781 C.3       17 UNK         0.1400 
     96 CB         -6.0174  -22.2943  -50.9180 C.3       17 UNK        -0.1800 
     97 C          -3.6959  -22.9258  -51.7718 C.2       17 UNK         0.5000 
     98 O          -3.5029  -23.9239  -52.4687 O.2       17 UNK        -0.5000 
     99 N          -3.0764  -21.7569  -51.9648 N.am      18 UNK        -0.5000 
    100 CA        -2.0929  -21.4837  -53.0108 C.3       18 UNK         0.1400 
    101 CB        -0.8340  -20.8856  -52.3546 C.3       18 UNK        -0.1800 
    102 C         -2.7080  -20.5956  -54.1134 C.2       18 UNK         0.5000 
    103 O         -3.8245  -20.8674  -54.5590 O.2       18 UNK        -0.5000 
    104 N         -1.9571  -19.5800  -54.5596 N.am      19 UNK        -0.5000 
    105 CA        -2.2851  -18.6912  -55.6736 C.3       19 UNK         0.1400 
    106 CB        -0.9747  -18.3472  -56.4128 C.3       19 UNK        -0.1800 
    107 C         -3.0862  -17.4499  -55.2168 C.2       19 UNK         0.5000 
    108 O         -4.0020  -17.5738  -54.3993 O.2       19 UNK        -0.5000 
    109 N         -2.7542  -16.2798  -55.7832 N.am      20 UNK        -0.5000 
    110 CA        -3.4146  -14.9888  -55.5791 C.3       20 UNK         0.1400 
    111 CB        -2.6893  -13.9217  -56.4127 C.3       20 UNK        -0.1800 
    112 C         -3.4714  -14.5646  -54.1014 C.2       20 UNK         0.5000 
    113 O         -2.4827  -14.7193  -53.3817 O.2       20 UNK        -0.5000 
    114 N         -4.6361  -14.0517  -53.6851 N.am      21 UNK        -0.5000 
    115 CA        -5.0508  -13.6872  -52.3212 C.3       21 UNK         0.1400 
    116 CB        -4.0755  -12.6953  -51.6597 C.3       21 UNK        -0.1800 
    117 C         -5.3237  -14.8959  -51.4023 C.2       21 UNK         0.5000 
    118 O         -6.1789  -14.7936  -50.5223 O.2       21 UNK        -0.5000 
    119 N         -4.6246  -16.0142  -51.6256 N.am      22 UNK        -0.5000 
    120 CA        -4.8553  -17.3001  -50.9582 C.3       22 UNK         0.1400 
    121 C         -6.1407  -18.0061  -51.4696 C.2       22 UNK         0.5000 
    122 N         -6.3163  -18.1306  -52.7795 N.am      22 UNK        -0.7600 
    123 O         -6.9818  -18.4294  -50.6821 O.2       22 UNK        -0.5000 
    124 C124       -3.6147  -18.2196  -51.0830 C.3       23 UNK        -0.0398 
    125 S125       -3.4226  -19.3179  -49.6411 S.3       23 UNK        -0.2404 
    126 C126       -2.1142  -18.4500  -48.7222 C.3       23 UNK        -0.0205 
    127 H127       -2.3866  -11.7285  -54.3067 H         1 UNK         0.0600 
    128 H128       -1.1946  -10.8828  -55.2999 H         1 UNK         0.0600 
    129 H129       -2.0552  -10.0225  -54.0175 H         1 UNK         0.0600 
    130 H130       -1.2582  -13.2089  -53.0511 H         1 UNK         0.3000 
    131 H131        1.4124  -12.7381  -52.0397 H         1 UNK         0.0600 
    132 H132        0.3130  -14.9895  -52.7713 H         1 UNK         0.0800 
    133 H133       -0.5250  -14.9671  -51.2493 H         1 UNK         0.0800 
    134 H134        1.2821  -17.0990  -52.5896 H         1 UNK         0.0800 
    135 H135        2.8315  -17.3759  -51.8450 H         1 UNK         0.0800 
    136 H136       -0.6406  -16.8964  -50.3891 H         1 UNK         0.1150 
    137 H137       -0.5482  -20.6469  -48.3516 H         1 UNK         0.1150 
    138 H138        2.7928  -19.4469  -50.7344 H         1 UNK         0.1150 
    139 H139        1.1736  -22.3023  -49.2410 H         1 UNK         0.0800 
    140 H140        2.7085  -21.6948  -49.8209 H         1 UNK         0.0800 
    141 H141        3.6313  -23.3100  -46.5054 H         1 UNK         0.0800 
    142 H142        2.7843  -23.7656  -47.9481 H         1 UNK         0.0800 
    143 H143        1.8652  -24.8024  -45.9484 H         1 UNK         0.0600 
    144 H144        1.7104  -22.1701  -44.7499 H         1 UNK         0.3000 
    145 H145        0.0299  -23.5447  -41.8216 H         1 UNK         0.0600 
    146 H146        2.4951  -23.7840  -41.5646 H         1 UNK         0.0600 
    147 H147        2.7437  -22.2198  -42.3272 H         1 UNK         0.0600 
    148 H148        1.9075  -22.3258  -40.7807 H         1 UNK         0.0600 
    149 H149        0.6309  -20.8490  -42.4257 H         1 UNK         0.3000 
    150 H150       -2.4433  -20.0149  -44.0530 H         1 UNK         0.0600 
    151 H151       -2.4891  -18.3638  -42.1932 H         1 UNK         0.0600 
    152 H152       -1.3576  -19.3477  -41.2672 H         1 UNK         0.0600 
    153 H153       -2.9676  -19.9576  -41.6253 H         1 UNK         0.0600 
    154 H154       -0.2853  -18.3478  -43.3573 H         1 UNK         0.3000 
    155 H155        1.7784  -18.9654  -46.2451 H         1 UNK         0.0600 
    156 H156        0.1282  -17.2799  -46.8975 H         1 UNK         0.0600 
    157 H157        1.5670  -16.4915  -46.2802 H         1 UNK         0.0600 
    158 H158        0.1155  -16.5860  -45.2829 H         1 UNK         0.0600 
    159 H159        2.0702  -17.3750  -43.8620 H         1 UNK         0.3000 
    160 H160        3.9248  -19.7800  -41.9936 H         1 UNK         0.0600 
    161 H161        5.5899  -18.7674  -43.5591 H         1 UNK         0.0600 
    162 H162        5.5910  -17.9435  -42.0079 H         1 UNK         0.0600 
    163 H163        4.8058  -17.2001  -43.4017 H         1 UNK         0.0600 
    164 H164        3.2081  -17.0482  -41.5145 H         1 UNK         0.3000 
    165 H165        0.0178  -17.6350  -40.0664 H         1 UNK         0.0600 
    166 H166        1.0643  -16.4994  -38.1297 H         1 UNK         0.0600 
    167 H167        1.6162  -18.1640  -38.2197 H         1 UNK         0.0600 
    168 H168        2.6763  -16.8627  -38.7475 H         1 UNK         0.0600 
    169 H169        1.5611  -15.2678  -40.3046 H         1 UNK         0.3000 
    170 H170        0.8050  -13.6264  -41.6867 H         1 UNK         0.0600 
    171 H171        2.1485  -13.2324  -43.7619 H         1 UNK         0.0600 
    172 H172        2.8690  -14.4940  -42.7744 H         1 UNK         0.0600 
    173 H173        1.9598  -14.9228  -44.2179 H         1 UNK         0.0600 
    174 H174       -0.2725  -13.8360  -44.3459 H         1 UNK         0.3000 
    175 H175       -3.6550  -13.6963  -43.5868 H         1 UNK         0.0600 
    176 H176       -2.1447  -11.0486  -43.9230 H         1 UNK         0.0600 
    177 H177       -3.8411  -11.3269  -44.3202 H         1 UNK         0.0600 
    178 H178       -3.3045  -11.4121  -42.6509 H         1 UNK         0.0600 
    179 H179       -2.0838  -12.6323  -45.7857 H         1 UNK         0.3000 
    180 H180       -1.4558  -15.6098  -47.4119 H         1 UNK         0.0600 
    181 H181       -2.9230  -14.9344  -49.2822 H         1 UNK         0.0600 
    182 H182       -3.8186  -13.8373  -48.2331 H         1 UNK         0.0600 
    183 H183       -3.9078  -15.5747  -47.9763 H         1 UNK         0.0600 
    184 H184       -1.4637  -13.0786  -48.5720 H         1 UNK         0.3000 
    185 H185        0.2616  -11.2716  -47.9646 H         1 UNK         0.0600 
    186 H186        2.8532  -12.8235  -47.4486 H         1 UNK         0.0600 
    187 H187        2.7430  -11.1348  -47.9459 H         1 UNK         0.0600 
    188 H188        2.1382  -11.6283  -46.3731 H         1 UNK         0.0600 
    189 H189        1.8829  -12.9925  -49.6828 H         1 UNK         0.3000 
    190 H190       -0.5140  -22.1561  -46.1379 H         1 UNK         0.3000 
    191 H191       -2.0342  -23.1098  -48.2992 H         1 UNK         0.0600 
    192 H192       -3.0149  -21.7034  -45.7572 H         1 UNK         0.0600 
    193 H193       -3.9182  -21.8485  -47.2578 H         1 UNK         0.0600 
    194 H194       -2.4430  -20.9105  -47.2151 H         1 UNK         0.0600 
    195 H195       -2.1345  -24.0827  -44.8537 H         1 UNK         0.3000 
    196 H196       -4.3709  -25.8257  -45.0300 H         1 UNK         0.0600 
    197 H197       -3.5290  -26.6865  -42.8472 H         1 UNK         0.0600 
    198 H198       -3.4856  -24.9298  -42.8874 H         1 UNK         0.0600 
    199 H199       -1.9984  -25.8532  -43.0882 H         1 UNK         0.0600 
    200 H200       -0.9386  -26.3400  -45.7437 H         1 UNK         0.3000 
    201 H201       -1.1700  -29.2337  -46.0711 H         1 UNK         0.0600 
    202 H202        0.9538  -28.2007  -45.3048 H         1 UNK         0.0600 
    203 H203        1.0827  -27.2886  -46.8067 H         1 UNK         0.0600 
    204 H204        1.1877  -29.0438  -46.8287 H         1 UNK         0.0600 
    205 H205       -0.8870  -26.3692  -48.2221 H         1 UNK         0.3000 
    206 H206       -0.8985  -27.8599  -50.6641 H         1 UNK         0.0600 
    207 H207       -1.0237  -25.5802  -51.6807 H         1 UNK         0.0600 
    208 H208       -1.3879  -24.8838  -50.1081 H         1 UNK         0.0600 
    209 H209        0.1808  -25.6336  -50.4019 H         1 UNK         0.0600 
    210 H210       -3.4760  -26.6638  -48.6775 H         1 UNK         0.3000 
    211 H211       -5.6806  -26.5354  -48.7671 H         1 UNK         0.0600 
    212 H212       -5.7129  -28.0874  -51.4101 H         1 UNK         0.0600 
    213 H213       -7.0783  -27.7593  -50.3583 H         1 UNK         0.0600 
    214 H214       -5.7878  -28.8161  -49.8061 H         1 UNK         0.0600 
    215 H215       -4.3246  -24.4936  -49.1747 H         1 UNK         0.3000 
    216 H216       -4.2145  -22.3908  -49.7720 H         1 UNK         0.0600 
    217 H217       -5.8742  -21.2407  -51.1611 H         1 UNK         0.0600 
    218 H218       -6.7074  -22.3405  -50.0756 H         1 UNK         0.0600 
    219 H219       -6.5007  -22.7584  -51.7778 H         1 UNK         0.0600 
    220 H220       -3.3020  -20.9799  -51.3585 H         1 UNK         0.3000 
    221 H221       -1.7924  -22.4129  -53.4988 H         1 UNK         0.0600 
    222 H222       -1.0347  -19.9085  -51.9162 H         1 UNK         0.0600 
    223 H223       -0.4662  -21.5349  -51.5599 H         1 UNK         0.0600 
    224 H224       -0.0193  -20.7741  -53.0709 H         1 UNK         0.0600 
    225 H225       -1.0700  -19.4120  -54.1087 H         1 UNK         0.3000 
    226 H226       -2.9247  -19.2281  -56.3771 H         1 UNK         0.0600 
    227 H227       -0.4383  -19.2533  -56.6961 H         1 UNK         0.0600 
    228 H228       -1.1657  -17.7983  -57.3357 H         1 UNK         0.0600 
    229 H229       -0.3047  -17.7479  -55.7943 H         1 UNK         0.0600 
    230 H230       -1.9733  -16.2747  -56.4222 H         1 UNK         0.3000 
    231 H231       -4.4346  -15.0876  -55.9559 H         1 UNK         0.0600 
    232 H232       -2.6735  -14.1878  -57.4698 H         1 UNK         0.0600 
    233 H233       -3.1892  -12.9557  -56.3322 H         1 UNK         0.0600 
    234 H234       -1.6576  -13.7874  -56.0843 H         1 UNK         0.0600 
    235 H235       -5.3776  -13.9817  -54.3686 H         1 UNK         0.3000 
    236 H236       -6.0049  -13.1710  -52.4383 H         1 UNK         0.0600 
    237 H237       -4.4827  -12.3213  -50.7197 H         1 UNK         0.0600 
    238 H238       -3.1188  -13.1610  -51.4271 H         1 UNK         0.0600 
    239 H239       -3.8880  -11.8325  -52.2981 H         1 UNK         0.0600 
    240 H240       -3.9477  -16.0082  -52.3777 H         1 UNK         0.3000 
    241 H241       -5.0069  -17.0771  -49.8998 H         1 UNK         0.0600 
    242 H242       -7.1459  -18.5797  -53.1319 H         1 UNK         0.3800 
    243 H243       -5.5844  -17.8419  -53.4252 H         1 UNK         0.3800 
    244 H244       -3.6571  -18.8238  -51.9889 H         1 UNK         0.0800 
    245 H245       -2.7113  -17.6208  -51.1897 H         1 UNK         0.0800 
    246 H246       -2.3214  -17.3817  -48.7302 H         1 UNK         0.0800 
    247 H247       -2.1369  -18.7469  -47.6736 H         1 UNK         0.0800 
@<TRIPOS>BOND
     1    1    2 1    
     2    1  127 1    
     3    1  128 1    
     4    1  129 1    
     5    2    3 2    
     6    2    4 am   BACKBONE|DICT|INTERRES
     7    4    5 1    
     8    4  130 1    
     9    5    6 1    
    10    5   65 1    
    11    5  131 1    
    12    6    7 1    
    13    6  132 1    
    14    6  133 1    
    15    7    8 1    
    16    8    9 1    
    17    8  134 1    
    18    8  135 1    
    19    9   10 ar   
    20    9   14 ar   
    21   10   11 ar   
    22   10  136 1    
    23   11   12 ar   
    24   11  126 1    
    25   12   13 ar   
    26   12  137 1    
    27   13   14 ar   
    28   13   15 1    
    29   14  138 1    
    30   15   16 1    
    31   15  139 1    
    32   15  140 1    
    33   16   17 1    
    34   17   18 1    
    35   17  141 1    
    36   17  142 1    
    37   18   19 1    
    38   18   67 1    
    39   18  143 1    
    40   19   20 am   BACKBONE|DICT|INTERRES
    41   19  144 1    
    42   20   21 2    
    43   20   22 1    
    44   22   23 1    
    45   22   24 1    
    46   22  145 1    
    47   23  146 1    
    48   23  147 1    
    49   23  148 1    
    50   24   25 am   BACKBONE|DICT|INTERRES
    51   24  149 1    
    52   25   26 2    
    53   25   27 1    
    54   27   28 1    
    55   27   29 1    
    56   27  150 1    
    57   28  151 1    
    58   28  152 1    
    59   28  153 1    
    60   29   30 am   BACKBONE|DICT|INTERRES
    61   29  154 1    
    62   30   31 2    
    63   30   32 1    
    64   32   33 1    
    65   32   34 1    
    66   32  155 1    
    67   33  156 1    
    68   33  157 1    
    69   33  158 1    
    70   34   35 am   BACKBONE|DICT|INTERRES
    71   34  159 1    
    72   35   36 2    
    73   35   37 1    
    74   37   38 1    
    75   37   39 1    
    76   37  160 1    
    77   38  161 1    
    78   38  162 1    
    79   38  163 1    
    80   39   40 am   BACKBONE|DICT|INTERRES
    81   39  164 1    
    82   40   41 2    
    83   40   42 1    
    84   42   43 1    
    85   42   44 1    
    86   42  165 1    
    87   43  166 1    
    88   43  167 1    
    89   43  168 1    
    90   44   45 am   BACKBONE|DICT|INTERRES
    91   44  169 1    
    92   45   46 2    
    93   45   47 1    
    94   47   48 1    
    95   47   49 1    
    96   47  170 1    
    97   48  171 1    
    98   48  172 1    
    99   48  173 1    
   100   49   50 am   BACKBONE|DICT|INTERRES
   101   49  174 1    
   102   50   51 2    
   103   50   52 1    
   104   52   53 1    
   105   52   54 1    
   106   52  175 1    
   107   53  176 1    
   108   53  177 1    
   109   53  178 1    
   110   54   55 am   BACKBONE|DICT|INTERRES
   111   54  179 1    
   112   55   56 2    
   113   55   57 1    
   114   57   58 1    
   115   57   59 1    
   116   57  180 1    
   117   58  181 1    
   118   58  182 1    
   119   58  183 1    
   120   59   60 am   BACKBONE|DICT|INTERRES
   121   59  184 1    
   122   60   61 2    
   123   60   62 1    
   124   62   63 1    
   125   62   64 1    
   126   62  185 1    
   127   63  186 1    
   128   63  187 1    
   129   63  188 1    
   130   64   65 am   BACKBONE|DICT|INTERRES
   131   64  189 1    
   132   65   66 2    
   133   67   68 2    
   134   67   69 am   BACKBONE|DICT|INTERRES
   135   69   70 1    
   136   69  190 1    
   137   70   71 1    
   138   70   72 1    
   139   70  191 1    
   140   71  192 1    
   141   71  193 1    
   142   71  194 1    
   143   72   73 2    
   144   72   74 am   BACKBONE|DICT|INTERRES
   145   74   75 1    
   146   74  195 1    
   147   75   76 1    
   148   75   77 1    
   149   75  196 1    
   150   76  197 1    
   151   76  198 1    
   152   76  199 1    
   153   77   78 2    
   154   77   79 am   BACKBONE|DICT|INTERRES
   155   79   80 1    
   156   79  200 1    
   157   80   81 1    
   158   80   82 1    
   159   80  201 1    
   160   81  202 1    
   161   81  203 1    
   162   81  204 1    
   163   82   83 2    
   164   82   84 am   BACKBONE|DICT|INTERRES
   165   84   85 1    
   166   84  205 1    
   167   85   86 1    
   168   85   87 1    
   169   85  206 1    
   170   86  207 1    
   171   86  208 1    
   172   86  209 1    
   173   87   88 2    
   174   87   89 am   BACKBONE|DICT|INTERRES
   175   89   90 1    
   176   89  210 1    
   177   90   91 1    
   178   90   92 1    
   179   90  211 1    
   180   91  212 1    
   181   91  213 1    
   182   91  214 1    
   183   92   93 2    
   184   92   94 am   BACKBONE|DICT|INTERRES
   185   94   95 1    
   186   94  215 1    
   187   95   96 1    
   188   95   97 1    
   189   95  216 1    
   190   96  217 1    
   191   96  218 1    
   192   96  219 1    
   193   97   98 2    
   194   97   99 am   BACKBONE|DICT|INTERRES
   195   99  100 1    
   196   99  220 1    
   197  100  101 1    
   198  100  102 1    
   199  100  221 1    
   200  101  222 1    
   201  101  223 1    
   202  101  224 1    
   203  102  103 2    
   204  102  104 am   BACKBONE|DICT|INTERRES
   205  104  105 1    
   206  104  225 1    
   207  105  106 1    
   208  105  107 1    
   209  105  226 1    
   210  106  227 1    
   211  106  228 1    
   212  106  229 1    
   213  107  108 2    
   214  107  109 am   BACKBONE|DICT|INTERRES
   215  109  110 1    
   216  109  230 1    
   217  110  111 1    
   218  110  112 1    
   219  110  231 1    
   220  111  232 1    
   221  111  233 1    
   222  111  234 1    
   223  112  113 2    
   224  112  114 am   BACKBONE|DICT|INTERRES
   225  114  115 1    
   226  114  235 1    
   227  115  116 1    
   228  115  117 1    
   229  115  236 1    
   230  116  237 1    
   231  116  238 1    
   232  116  239 1    
   233  117  118 2    
   234  117  119 am   BACKBONE|DICT|INTERRES
   235  119  120 1    
   236  119  240 1    
   237  120  121 1    
   238  120  124 1    
   239  120  241 1    
   240  121  122 am   BACKBONE|DICT|INTERRES
   241  121  123 2    
   242  122  242 1    
   243  122  243 1    
   244  124  125 1    
   245  124  244 1    
   246  124  245 1    
   247  125  126 1    
   248  126  246 1    
   249  126  247 1    
@<TRIPOS>SUBSTRUCTURE
     1 UNK         1 GROUP             0       ****    0 ROOT    
