@<TRIPOS>MOLECULE
3R540
247   249    1
SMALL
USER_CHARGES


@<TRIPOS>ATOM
      1 CA          4.2313  -14.0686  -46.7619 C.3       0 UNK        -0.1800 
      2 C           2.7615  -14.4439  -46.8778 C.2       0 UNK         0.5000 
      3 O           2.3116  -15.3599  -46.1949 O.2       0 UNK        -0.5000 
      4 N           2.0170  -13.7462  -47.7457 N.am      1 UNK        -0.5000 
      5 CA          0.5855  -13.9730  -47.9899 C.3       1 UNK         0.1400 
      6 C6          0.1667  -13.4446  -49.3887 C.3       23 UNK        -0.0398 
      7 S7         -1.1275  -14.4637  -50.1819 S.3       23 UNK        -0.2404 
      8 C8         -0.2607  -15.1406  -51.6376 C.3       23 UNK        -0.0205 
      9 C9          0.4547  -16.4519  -51.3379 C.ar      23 UNK        -0.0193 
     10 C10        -0.0490  -17.6569  -51.8368 C.ar      23 UNK        -0.1150 
     11 C11         0.6156  -18.8697  -51.6026 C.ar      23 UNK        -0.0193 
     12 C12         1.7858  -18.8585  -50.8368 C.ar      23 UNK        -0.1150 
     13 C13         2.2852  -17.6651  -50.3052 C.ar      23 UNK        -0.0193 
     14 C14         1.6263  -16.4641  -50.5785 C.ar      23 UNK        -0.1150 
     15 C15         3.5136  -17.6609  -49.4023 C.3       23 UNK        -0.0205 
     16 S16         3.3962  -18.8079  -47.9837 S.3       23 UNK        -0.2404 
     17 C17         1.7072  -18.5355  -47.3369 C.3       23 UNK        -0.0398 
     18 CA          0.9949  -19.8818  -47.0684 C.3       11 UNK         0.1400 
     19 N           1.6064  -20.5973  -45.9435 N.am      11 UNK        -0.5000 
     20 C           1.3860  -21.8724  -45.5969 C.2       10 UNK         0.5000 
     21 O           0.6469  -22.6247  -46.2324 O.2       10 UNK        -0.5000 
     22 CA          2.0298  -22.3588  -44.2810 C.3       10 UNK         0.1400 
     23 CB          2.6172  -23.7802  -44.3954 C.3       10 UNK        -0.1800 
     24 N           2.9899  -21.4032  -43.7110 N.am      10 UNK        -0.5000 
     25 C           4.2188  -21.0948  -44.1526 C.2       9 UNK         0.5000 
     26 O           4.7726  -21.6545  -45.0985 O.2       9 UNK        -0.5000 
     27 CA          4.9413  -19.9307  -43.4453 C.3       9 UNK         0.1400 
     28 CB          4.9532  -18.6871  -44.3500 C.3       9 UNK        -0.1800 
     29 N           4.3519  -19.5606  -42.1563 N.am      9 UNK        -0.5000 
     30 C           4.4646  -20.2667  -41.0230 C.2       8 UNK         0.5000 
     31 O           5.0680  -21.3367  -40.9403 O.2       8 UNK        -0.5000 
     32 CA          3.7766  -19.6822  -39.7780 C.3       8 UNK         0.1400 
     33 CB          4.6488  -18.5908  -39.1377 C.3       8 UNK        -0.1800 
     34 N           2.4652  -19.1217  -40.1046 N.am      8 UNK        -0.5000 
     35 C           1.3147  -19.8083  -40.0682 C.2       7 UNK         0.5000 
     36 O           1.2352  -20.9896  -39.7300 O.2       7 UNK        -0.5000 
     37 CA          0.0336  -19.0565  -40.4837 C.3       7 UNK         0.1400 
     38 CB         -0.6393  -18.4207  -39.2584 C.3       7 UNK        -0.1800 
     39 N           0.2724  -18.0181  -41.4850 N.am      7 UNK        -0.5000 
     40 C           0.6546  -18.2576  -42.7454 C.2       6 UNK         0.5000 
     41 O           0.7834  -19.3851  -43.2241 O.2       6 UNK        -0.5000 
     42 CA          0.9726  -17.0359  -43.6174 C.3       6 UNK         0.1400 
     43 CB         -0.2830  -16.5743  -44.3686 C.3       6 UNK        -0.1800 
     44 N           1.5393  -15.9042  -42.8889 N.am      6 UNK        -0.5000 
     45 C           2.6874  -15.9089  -42.2000 C.2       5 UNK         0.5000 
     46 O           3.3532  -16.9210  -41.9846 O.2       5 UNK        -0.5000 
     47 CA          3.1535  -14.5575  -41.6405 C.3       5 UNK         0.1400 
     48 CB          3.8144  -13.7167  -42.7438 C.3       5 UNK        -0.1800 
     49 N           2.0271  -13.8188  -41.0753 N.am      5 UNK        -0.5000 
     50 C           1.6136  -13.9284  -39.8066 C.2       4 UNK         0.5000 
     51 O           2.1963  -14.5956  -38.9510 O.2       4 UNK        -0.5000 
     52 CA          0.3220  -13.1775  -39.4280 C.3       4 UNK         0.1400 
     53 CB          0.6499  -11.7636  -38.9246 C.3       4 UNK        -0.1800 
     54 N          -0.6458  -13.0822  -40.5232 N.am      4 UNK        -0.5000 
     55 C          -1.2780  -14.1259  -41.0769 C.2       3 UNK         0.5000 
     56 O          -1.1024  -15.2971  -40.7372 O.2       3 UNK        -0.5000 
     57 CA         -2.2498  -13.8071  -42.2299 C.3       3 UNK         0.1400 
     58 CB         -3.6155  -13.3805  -41.6701 C.3       3 UNK        -0.1800 
     59 N          -1.7925  -12.8006  -43.1991 N.am      3 UNK        -0.5000 
     60 C          -0.6005  -12.7625  -43.8113 C.2       2 UNK         0.5000 
     61 O           0.3655  -13.4553  -43.4913 O.2       2 UNK        -0.5000 
     62 CA         -0.4463  -11.7699  -44.9755 C.3       2 UNK         0.1400 
     63 CB          0.3719  -10.5482  -44.5312 C.3       2 UNK        -0.1800 
     64 N           0.2177  -12.4007  -46.1185 N.am      2 UNK        -0.5000 
     65 C          -0.3071  -13.3801  -46.8721 C.2       1 UNK         0.5000 
     66 O          -1.4508  -13.8104  -46.7179 O.2       1 UNK        -0.5000 
     67 C          -0.5270  -19.6912  -46.8872 C.2       11 UNK         0.5000 
     68 O          -1.2227  -19.4546  -47.8730 O.2       11 UNK        -0.5000 
     69 N          -1.0376  -19.8657  -45.6567 N.am      12 UNK        -0.5000 
     70 CA         -2.4652  -19.8994  -45.3215 C.3       12 UNK         0.1400 
     71 CB         -2.6168  -20.0339  -43.7987 C.3       12 UNK        -0.1800 
     72 C          -3.2525  -21.0113  -46.0502 C.2       12 UNK         0.5000 
     73 O          -4.4696  -20.8939  -46.1997 O.2       12 UNK        -0.5000 
     74 N          -2.5431  -22.0387  -46.5442 N.am      13 UNK        -0.5000 
     75 CA         -3.0622  -23.0912  -47.4183 C.3       13 UNK         0.1400 
     76 CB         -1.9789  -24.1626  -47.6089 C.3       13 UNK        -0.1800 
     77 C          -3.5618  -22.5885  -48.7893 C.2       13 UNK         0.5000 
     78 O          -4.2786  -23.3308  -49.4596 O.2       13 UNK        -0.5000 
     79 N          -3.2218  -21.3470  -49.1780 N.am      14 UNK        -0.5000 
     80 CA         -3.6904  -20.6781  -50.3965 C.3       14 UNK         0.1400 
     81 CB         -3.1329  -19.2486  -50.4472 C.3       14 UNK        -0.1800 
     82 C          -5.2228  -20.6329  -50.5346 C.2       14 UNK         0.5000 
     83 O          -5.7279  -20.7464  -51.6507 O.2       14 UNK        -0.5000 
     84 N          -5.9280  -20.4976  -49.4020 N.am      15 UNK        -0.5000 
     85 CA         -7.3883  -20.5044  -49.3277 C.3       15 UNK         0.1400 
     86 CB         -7.8266  -20.0160  -47.9389 C.3       15 UNK        -0.1800 
     87 C          -7.9890  -21.8884  -49.6343 C.2       15 UNK         0.5000 
     88 O          -8.9781  -21.9723  -50.3619 O.2       15 UNK        -0.5000 
     89 N          -7.3631  -22.9487  -49.1039 N.am      16 UNK        -0.5000 
     90 CA         -7.7464  -24.3443  -49.3364 C.3       16 UNK         0.1400 
     91 CB         -7.0626  -25.2410  -48.2926 C.3       16 UNK        -0.1800 
     92 C          -7.4044  -24.8067  -50.7645 C.2       16 UNK         0.5000 
     93 O          -8.1809  -25.5389  -51.3778 O.2       16 UNK        -0.5000 
     94 N          -6.2635  -24.3294  -51.2765 N.am      17 UNK        -0.5000 
     95 CA         -5.7882  -24.5209  -52.6467 C.3       17 UNK         0.1400 
     96 CB         -4.2877  -24.1967  -52.6670 C.3       17 UNK        -0.1800 
     97 C          -6.5410  -23.6665  -53.6906 C.2       17 UNK         0.5000 
     98 O          -6.3100  -23.8420  -54.8891 O.2       17 UNK        -0.5000 
     99 N          -7.3915  -22.7399  -53.2190 N.am      18 UNK        -0.5000 
    100 CA        -8.2040  -21.7815  -53.9766 C.3       18 UNK         0.1400 
    101 CB        -9.3415  -22.5181  -54.7125 C.3       18 UNK        -0.1800 
    102 C         -7.3657  -20.8887  -54.9158 C.2       18 UNK         0.5000 
    103 O         -7.8116  -20.5626  -56.0176 O.2       18 UNK        -0.5000 
    104 N         -6.1388  -20.5630  -54.4813 N.am      19 UNK        -0.5000 
    105 CA        -5.0367  -19.8988  -55.1905 C.3       19 UNK         0.1400 
    106 CB        -5.4089  -18.4556  -55.5739 C.3       19 UNK        -0.1800 
    107 C         -4.4898  -20.6727  -56.4111 C.2       19 UNK         0.5000 
    108 O         -3.2742  -20.7184  -56.5985 O.2       19 UNK        -0.5000 
    109 N         -5.3774  -21.2799  -57.2071 N.am      20 UNK        -0.5000 
    110 CA        -5.1002  -21.9932  -58.4534 C.3       20 UNK         0.1400 
    111 CB        -6.4276  -22.4779  -59.0559 C.3       20 UNK        -0.1800 
    112 C         -4.1132  -23.1646  -58.3093 C.2       20 UNK         0.5000 
    113 O         -3.2397  -23.3201  -59.1636 O.2       20 UNK        -0.5000 
    114 N         -4.2488  -23.9510  -57.2320 N.am      21 UNK        -0.5000 
    115 CA        -3.3357  -25.0558  -56.9220 C.3       21 UNK         0.1400 
    116 CB        -4.1113  -26.1676  -56.1968 C.3       21 UNK        -0.1800 
    117 C         -2.1070  -24.6028  -56.1062 C.2       21 UNK         0.5000 
    118 O         -1.1611  -25.3790  -55.9656 O.2       21 UNK        -0.5000 
    119 N         -2.1409  -23.3725  -55.5779 N.am      22 UNK        -0.5000 
    120 CA        -1.0493  -22.7378  -54.8241 C.3       22 UNK         0.1400 
    121 C         -0.0278  -22.0426  -55.7708 C.2       22 UNK         0.5000 
    122 N         -0.4771  -21.3600  -56.8171 N.am      22 UNK        -0.7600 
    123 O          1.1792  -22.1466  -55.5690 O.2       22 UNK        -0.5000 
    124 C124       -1.6165  -21.8607  -53.6573 C.3       23 UNK        -0.0398 
    125 S125       -1.0929  -20.1141  -53.5001 S.3       23 UNK        -0.2404 
    126 C126        0.0868  -20.2147  -52.1088 C.3       23 UNK        -0.0205 
    127 H127        4.5116  -13.2974  -47.4796 H         1 UNK         0.0600 
    128 H128        4.4460  -13.6972  -45.7603 H         1 UNK         0.0600 
    129 H129        4.8549  -14.9442  -46.9424 H         1 UNK         0.0600 
    130 H130        2.4458  -13.0019  -48.2774 H         1 UNK         0.3000 
    131 H131        0.4298  -15.0546  -47.9743 H         1 UNK         0.0600 
    132 H132        1.0295  -13.4118  -50.0541 H         1 UNK         0.0800 
    133 H133       -0.1831  -12.4115  -49.3394 H         1 UNK         0.0800 
    134 H134        0.4472  -14.4131  -52.0366 H         1 UNK         0.0800 
    135 H135       -0.9989  -15.2932  -52.4264 H         1 UNK         0.0800 
    136 H136       -0.9656  -17.6395  -52.4074 H         1 UNK         0.1150 
    137 H137        2.2966  -19.7877  -50.6254 H         1 UNK         0.1150 
    138 H138        2.0171  -15.5386  -50.1828 H         1 UNK         0.1150 
    139 H139        4.3900  -17.9227  -49.9961 H         1 UNK         0.0800 
    140 H140        3.6971  -16.6593  -49.0105 H         1 UNK         0.0800 
    141 H141        1.1293  -17.9232  -48.0289 H         1 UNK         0.0800 
    142 H142        1.7795  -17.9463  -46.4271 H         1 UNK         0.0800 
    143 H143        1.1105  -20.5082  -47.9558 H         1 UNK         0.0600 
    144 H144        2.2058  -20.0538  -45.3417 H         1 UNK         0.3000 
    145 H145        1.2129  -22.4066  -43.5595 H         1 UNK         0.0600 
    146 H146        3.0789  -24.0936  -43.4591 H         1 UNK         0.0600 
    147 H147        1.8363  -24.5045  -44.6301 H         1 UNK         0.0600 
    148 H148        3.3674  -23.8508  -45.1829 H         1 UNK         0.0600 
    149 H149        2.6210  -20.8365  -42.9582 H         1 UNK         0.3000 
    150 H150        5.9742  -20.2410  -43.2753 H         1 UNK         0.0600 
    151 H151        5.4235  -18.9028  -45.3103 H         1 UNK         0.0600 
    152 H152        5.5117  -17.8706  -43.8918 H         1 UNK         0.0600 
    153 H153        3.9446  -18.3266  -44.5539 H         1 UNK         0.0600 
    154 H154        3.8884  -18.6549  -42.1176 H         1 UNK         0.3000 
    155 H155        3.6611  -20.4867  -39.0484 H         1 UNK         0.0600 
    156 H156        4.8100  -17.7498  -39.8130 H         1 UNK         0.0600 
    157 H157        5.6286  -18.9850  -38.8651 H         1 UNK         0.0600 
    158 H158        4.1893  -18.2043  -38.2278 H         1 UNK         0.0600 
    159 H159        2.4552  -18.1708  -40.4512 H         1 UNK         0.3000 
    160 H160       -0.6551  -19.7878  -40.9123 H         1 UNK         0.0600 
    161 H161       -1.5888  -17.9574  -39.5275 H         1 UNK         0.0600 
    162 H162       -0.0092  -17.6525  -38.8079 H         1 UNK         0.0600 
    163 H163       -0.8476  -19.1688  -38.4925 H         1 UNK         0.0600 
    164 H164        0.1359  -17.0571  -41.1922 H         1 UNK         0.3000 
    165 H165        1.7256  -17.3421  -44.3406 H         1 UNK         0.0600 
    166 H166       -0.0794  -15.6971  -44.9804 H         1 UNK         0.0600 
    167 H167       -0.6531  -17.3446  -45.0395 H         1 UNK         0.0600 
    168 H168       -1.0896  -16.3269  -43.6810 H         1 UNK         0.0600 
    169 H169        1.0806  -15.0082  -43.0442 H         1 UNK         0.3000 
    170 H170        3.9008  -14.7488  -40.8673 H         1 UNK         0.0600 
    171 H171        4.6631  -14.2454  -43.1796 H         1 UNK         0.0600 
    172 H172        3.1188  -13.4898  -43.5528 H         1 UNK         0.0600 
    173 H173        4.1869  -12.7717  -42.3484 H         1 UNK         0.0600 
    174 H174        1.4460  -13.3142  -41.7346 H         1 UNK         0.3000 
    175 H175       -0.1504  -13.7293  -38.6126 H         1 UNK         0.0600 
    176 H176       -0.2460  -11.2523  -38.5718 H         1 UNK         0.0600 
    177 H177        1.3519  -11.7990  -38.0904 H         1 UNK         0.0600 
    178 H178        1.1006  -11.1522  -39.7074 H         1 UNK         0.0600 
    179 H179       -0.8399  -12.1590  -40.8821 H         1 UNK         0.3000 
    180 H180       -2.4021  -14.7319  -42.7862 H         1 UNK         0.0600 
    181 H181       -3.5568  -12.4224  -41.1522 H         1 UNK         0.0600 
    182 H182       -3.9948  -14.1157  -40.9588 H         1 UNK         0.0600 
    183 H183       -4.3571  -13.2885  -42.4638 H         1 UNK         0.0600 
    184 H184       -2.5053  -12.1621  -43.5212 H         1 UNK         0.3000 
    185 H185       -1.4343  -11.4328  -45.2957 H         1 UNK         0.0600 
    186 H186        1.3770  -10.8301  -44.2142 H         1 UNK         0.0600 
    187 H187        0.4657   -9.8211  -45.3381 H         1 UNK         0.0600 
    188 H188       -0.1067  -10.0416  -43.6921 H         1 UNK         0.0600 
    189 H189        1.1788  -12.1406  -46.2800 H         1 UNK         0.3000 
    190 H190       -0.3932  -20.0274  -44.8913 H         1 UNK         0.3000 
    191 H191       -2.8995  -18.9455  -45.6272 H         1 UNK         0.0600 
    192 H192       -2.1876  -19.1755  -43.2826 H         1 UNK         0.0600 
    193 H193       -2.1252  -20.9323  -43.4234 H         1 UNK         0.0600 
    194 H194       -3.6677  -20.0883  -43.5115 H         1 UNK         0.0600 
    195 H195       -1.5449  -22.0588  -46.3751 H         1 UNK         0.3000 
    196 H196       -3.9142  -23.5517  -46.9145 H         1 UNK         0.0600 
    197 H197       -2.3508  -24.9941  -48.2092 H         1 UNK         0.0600 
    198 H198       -1.6548  -24.5725  -46.6521 H         1 UNK         0.0600 
    199 H199       -1.1010  -23.7590  -48.1151 H         1 UNK         0.0600 
    200 H200       -2.6095  -20.7995  -48.5824 H         1 UNK         0.3000 
    201 H201       -3.2930  -21.2316  -51.2475 H         1 UNK         0.0600 
    202 H202       -3.5005  -18.6424  -49.6183 H         1 UNK         0.0600 
    203 H203       -3.4160  -18.7491  -51.3747 H         1 UNK         0.0600 
    204 H204       -2.0461  -19.2445  -50.3986 H         1 UNK         0.0600 
    205 H205       -5.4265  -20.4250  -48.5269 H         1 UNK         0.3000 
    206 H206       -7.7704  -19.8026  -50.0722 H         1 UNK         0.0600 
    207 H207       -7.4747  -19.0017  -47.7496 H         1 UNK         0.0600 
    208 H208       -8.9140  -20.0037  -47.8538 H         1 UNK         0.0600 
    209 H209       -7.4409  -20.6570  -47.1449 H         1 UNK         0.0600 
    210 H210       -6.5254  -22.7942  -48.5621 H         1 UNK         0.3000 
    211 H211       -8.8271  -24.4315  -49.2055 H         1 UNK         0.0600 
    212 H212       -5.9756  -25.1942  -48.3672 H         1 UNK         0.0600 
    213 H213       -7.3552  -26.2835  -48.4241 H         1 UNK         0.0600 
    214 H214       -7.3422  -24.9506  -47.2798 H         1 UNK         0.0600 
    215 H215       -5.6519  -23.7963  -50.6628 H         1 UNK         0.3000 
    216 H216       -5.9224  -25.5686  -52.9224 H         1 UNK         0.0600 
    217 H217       -3.8658  -24.3176  -53.6618 H         1 UNK         0.0600 
    218 H218       -3.7324  -24.8534  -51.9970 H         1 UNK         0.0600 
    219 H219       -4.1037  -23.1701  -52.3545 H         1 UNK         0.0600 
    220 H220       -7.4637  -22.6569  -52.2145 H         1 UNK         0.3000 
    221 H221       -8.6562  -21.1136  -53.2423 H         1 UNK         0.0600 
    222 H222       -8.9576  -23.1696  -55.4984 H         1 UNK         0.0600 
    223 H223       -9.9230  -23.1307  -54.0235 H         1 UNK         0.0600 
    224 H224      -10.0304  -21.8124  -55.1780 H         1 UNK         0.0600 
    225 H225       -5.9180  -20.8423  -53.5277 H         1 UNK         0.3000 
    226 H226       -4.2201  -19.8426  -54.4690 H         1 UNK         0.0600 
    227 H227       -5.7260  -17.8864  -54.7001 H         1 UNK         0.0600 
    228 H228       -6.2146  -18.4221  -56.3076 H         1 UNK         0.0600 
    229 H229       -4.5528  -17.9367  -56.0068 H         1 UNK         0.0600 
    230 H230       -6.3570  -21.1695  -56.9569 H         1 UNK         0.3000 
    231 H231       -4.6553  -21.2740  -59.1439 H         1 UNK         0.0600 
    232 H232       -7.0953  -21.6413  -59.2627 H         1 UNK         0.0600 
    233 H233       -6.9472  -23.1617  -58.3831 H         1 UNK         0.0600 
    234 H234       -6.2629  -23.0029  -59.9978 H         1 UNK         0.0600 
    235 H235       -4.9984  -23.7733  -56.5705 H         1 UNK         0.3000 
    236 H236       -2.9563  -25.4841  -57.8522 H         1 UNK         0.0600 
    237 H237       -3.4645  -27.0186  -55.9799 H         1 UNK         0.0600 
    238 H238       -4.5302  -25.8275  -55.2518 H         1 UNK         0.0600 
    239 H239       -4.9338  -26.5350  -56.8105 H         1 UNK         0.0600 
    240 H240       -2.9123  -22.7703  -55.8289 H         1 UNK         0.3000 
    241 H241       -0.4833  -23.5369  -54.3404 H         1 UNK         0.0600 
    242 H242        0.1755  -20.9142  -57.4411 H         1 UNK         0.3800 
    243 H243       -1.4743  -21.1927  -56.9220 H         1 UNK         0.3800 
    244 H244       -2.7037  -21.8176  -53.7240 H         1 UNK         0.0800 
    245 H245       -1.4271  -22.3675  -52.7102 H         1 UNK         0.0800 
    246 H246        0.9253  -20.8379  -52.4238 H         1 UNK         0.0800 
    247 H247       -0.3874  -20.7292  -51.2722 H         1 UNK         0.0800 
@<TRIPOS>BOND
     1    1    2 1    
     2    1  127 1    
     3    1  128 1    
     4    1  129 1    
     5    2    3 2    
     6    2    4 am   BACKBONE|DICT|INTERRES
     7    4    5 1    
     8    4  130 1    
     9    5    6 1    
    10    5   65 1    
    11    5  131 1    
    12    6    7 1    
    13    6  132 1    
    14    6  133 1    
    15    7    8 1    
    16    8    9 1    
    17    8  134 1    
    18    8  135 1    
    19    9   10 ar   
    20    9   14 ar   
    21   10   11 ar   
    22   10  136 1    
    23   11   12 ar   
    24   11  126 1    
    25   12   13 ar   
    26   12  137 1    
    27   13   14 ar   
    28   13   15 1    
    29   14  138 1    
    30   15   16 1    
    31   15  139 1    
    32   15  140 1    
    33   16   17 1    
    34   17   18 1    
    35   17  141 1    
    36   17  142 1    
    37   18   19 1    
    38   18   67 1    
    39   18  143 1    
    40   19   20 am   BACKBONE|DICT|INTERRES
    41   19  144 1    
    42   20   21 2    
    43   20   22 1    
    44   22   23 1    
    45   22   24 1    
    46   22  145 1    
    47   23  146 1    
    48   23  147 1    
    49   23  148 1    
    50   24   25 am   BACKBONE|DICT|INTERRES
    51   24  149 1    
    52   25   26 2    
    53   25   27 1    
    54   27   28 1    
    55   27   29 1    
    56   27  150 1    
    57   28  151 1    
    58   28  152 1    
    59   28  153 1    
    60   29   30 am   BACKBONE|DICT|INTERRES
    61   29  154 1    
    62   30   31 2    
    63   30   32 1    
    64   32   33 1    
    65   32   34 1    
    66   32  155 1    
    67   33  156 1    
    68   33  157 1    
    69   33  158 1    
    70   34   35 am   BACKBONE|DICT|INTERRES
    71   34  159 1    
    72   35   36 2    
    73   35   37 1    
    74   37   38 1    
    75   37   39 1    
    76   37  160 1    
    77   38  161 1    
    78   38  162 1    
    79   38  163 1    
    80   39   40 am   BACKBONE|DICT|INTERRES
    81   39  164 1    
    82   40   41 2    
    83   40   42 1    
    84   42   43 1    
    85   42   44 1    
    86   42  165 1    
    87   43  166 1    
    88   43  167 1    
    89   43  168 1    
    90   44   45 am   BACKBONE|DICT|INTERRES
    91   44  169 1    
    92   45   46 2    
    93   45   47 1    
    94   47   48 1    
    95   47   49 1    
    96   47  170 1    
    97   48  171 1    
    98   48  172 1    
    99   48  173 1    
   100   49   50 am   BACKBONE|DICT|INTERRES
   101   49  174 1    
   102   50   51 2    
   103   50   52 1    
   104   52   53 1    
   105   52   54 1    
   106   52  175 1    
   107   53  176 1    
   108   53  177 1    
   109   53  178 1    
   110   54   55 am   BACKBONE|DICT|INTERRES
   111   54  179 1    
   112   55   56 2    
   113   55   57 1    
   114   57   58 1    
   115   57   59 1    
   116   57  180 1    
   117   58  181 1    
   118   58  182 1    
   119   58  183 1    
   120   59   60 am   BACKBONE|DICT|INTERRES
   121   59  184 1    
   122   60   61 2    
   123   60   62 1    
   124   62   63 1    
   125   62   64 1    
   126   62  185 1    
   127   63  186 1    
   128   63  187 1    
   129   63  188 1    
   130   64   65 am   BACKBONE|DICT|INTERRES
   131   64  189 1    
   132   65   66 2    
   133   67   68 2    
   134   67   69 am   BACKBONE|DICT|INTERRES
   135   69   70 1    
   136   69  190 1    
   137   70   71 1    
   138   70   72 1    
   139   70  191 1    
   140   71  192 1    
   141   71  193 1    
   142   71  194 1    
   143   72   73 2    
   144   72   74 am   BACKBONE|DICT|INTERRES
   145   74   75 1    
   146   74  195 1    
   147   75   76 1    
   148   75   77 1    
   149   75  196 1    
   150   76  197 1    
   151   76  198 1    
   152   76  199 1    
   153   77   78 2    
   154   77   79 am   BACKBONE|DICT|INTERRES
   155   79   80 1    
   156   79  200 1    
   157   80   81 1    
   158   80   82 1    
   159   80  201 1    
   160   81  202 1    
   161   81  203 1    
   162   81  204 1    
   163   82   83 2    
   164   82   84 am   BACKBONE|DICT|INTERRES
   165   84   85 1    
   166   84  205 1    
   167   85   86 1    
   168   85   87 1    
   169   85  206 1    
   170   86  207 1    
   171   86  208 1    
   172   86  209 1    
   173   87   88 2    
   174   87   89 am   BACKBONE|DICT|INTERRES
   175   89   90 1    
   176   89  210 1    
   177   90   91 1    
   178   90   92 1    
   179   90  211 1    
   180   91  212 1    
   181   91  213 1    
   182   91  214 1    
   183   92   93 2    
   184   92   94 am   BACKBONE|DICT|INTERRES
   185   94   95 1    
   186   94  215 1    
   187   95   96 1    
   188   95   97 1    
   189   95  216 1    
   190   96  217 1    
   191   96  218 1    
   192   96  219 1    
   193   97   98 2    
   194   97   99 am   BACKBONE|DICT|INTERRES
   195   99  100 1    
   196   99  220 1    
   197  100  101 1    
   198  100  102 1    
   199  100  221 1    
   200  101  222 1    
   201  101  223 1    
   202  101  224 1    
   203  102  103 2    
   204  102  104 am   BACKBONE|DICT|INTERRES
   205  104  105 1    
   206  104  225 1    
   207  105  106 1    
   208  105  107 1    
   209  105  226 1    
   210  106  227 1    
   211  106  228 1    
   212  106  229 1    
   213  107  108 2    
   214  107  109 am   BACKBONE|DICT|INTERRES
   215  109  110 1    
   216  109  230 1    
   217  110  111 1    
   218  110  112 1    
   219  110  231 1    
   220  111  232 1    
   221  111  233 1    
   222  111  234 1    
   223  112  113 2    
   224  112  114 am   BACKBONE|DICT|INTERRES
   225  114  115 1    
   226  114  235 1    
   227  115  116 1    
   228  115  117 1    
   229  115  236 1    
   230  116  237 1    
   231  116  238 1    
   232  116  239 1    
   233  117  118 2    
   234  117  119 am   BACKBONE|DICT|INTERRES
   235  119  120 1    
   236  119  240 1    
   237  120  121 1    
   238  120  124 1    
   239  120  241 1    
   240  121  122 am   BACKBONE|DICT|INTERRES
   241  121  123 2    
   242  122  242 1    
   243  122  243 1    
   244  124  125 1    
   245  124  244 1    
   246  124  245 1    
   247  125  126 1    
   248  126  246 1    
   249  126  247 1    
@<TRIPOS>SUBSTRUCTURE
     1 UNK         1 GROUP             0       ****    0 ROOT    
