@<TRIPOS>MOLECULE
3R540
247   249    1
SMALL
USER_CHARGES


@<TRIPOS>ATOM
      1 CA          2.8244  -14.7323  -50.0183 C.3       0 UNK        -0.1800 
      2 C           1.9201  -14.0910  -48.9753 C.2       0 UNK         0.5000 
      3 O           1.3302  -13.0439  -49.2390 O.2       0 UNK        -0.5000 
      4 N           1.8139  -14.7187  -47.7945 N.am      1 UNK        -0.5000 
      5 CA          0.9843  -14.2986  -46.6516 C.3       1 UNK         0.1400 
      6 C6         -0.5441  -14.3234  -46.9304 C.3       23 UNK        -0.0398 
      7 S7         -1.1263  -15.9889  -47.4130 S.3       23 UNK        -0.2404 
      8 C8         -1.3488  -15.7984  -49.2126 C.3       23 UNK        -0.0205 
      9 C9         -0.8557  -17.0046  -50.0032 C.ar      23 UNK        -0.0193 
     10 C10        -1.6766  -17.5915  -50.9709 C.ar      23 UNK        -0.1150 
     11 C11        -1.2084  -18.6517  -51.7532 C.ar      23 UNK        -0.0193 
     12 C12         0.0930  -19.1247  -51.5633 C.ar      23 UNK        -0.1150 
     13 C13         0.9265  -18.5459  -50.6024 C.ar      23 UNK        -0.0193 
     14 C14         0.4424  -17.4939  -49.8214 C.ar      23 UNK        -0.1150 
     15 C15         2.3693  -19.0098  -50.4586 C.3       23 UNK        -0.0205 
     16 S16         2.5060  -20.6807  -49.7547 S.3       23 UNK        -0.2404 
     17 C17         2.1870  -20.3725  -47.9852 C.3       23 UNK        -0.0398 
     18 CA          1.6557  -21.6427  -47.2715 C.3       11 UNK         0.1400 
     19 N           1.8321  -21.5645  -45.8212 N.am      11 UNK        -0.5000 
     20 C           2.5613  -22.4240  -45.0961 C.2       10 UNK         0.5000 
     21 O           3.0999  -23.4297  -45.5592 O.2       10 UNK        -0.5000 
     22 CA          2.7636  -22.1015  -43.6038 C.3       10 UNK         0.1400 
     23 CB          3.9967  -21.2051  -43.4143 C.3       10 UNK        -0.1800 
     24 N           1.6071  -21.4641  -42.9787 N.am      10 UNK        -0.5000 
     25 C           0.4733  -22.1007  -42.6563 C.2       9 UNK         0.5000 
     26 O           0.2757  -23.2989  -42.8584 O.2       9 UNK        -0.5000 
     27 CA         -0.6294  -21.2472  -42.0014 C.3       9 UNK         0.1400 
     28 CB         -0.3981  -21.1362  -40.4871 C.3       9 UNK        -0.1800 
     29 N          -0.7332  -19.9096  -42.5867 N.am      9 UNK        -0.5000 
     30 C          -1.0753  -19.6702  -43.8606 C.2       8 UNK         0.5000 
     31 O          -1.3997  -20.5531  -44.6516 O.2       8 UNK        -0.5000 
     32 CA         -0.9807  -18.2161  -44.3556 C.3       8 UNK         0.1400 
     33 CB         -2.2347  -17.4210  -43.9701 C.3       8 UNK        -0.1800 
     34 N           0.2173  -17.5381  -43.8591 N.am      8 UNK        -0.5000 
     35 C           1.4676  -17.8977  -44.1816 C.2       7 UNK         0.5000 
     36 O           1.7290  -18.7820  -44.9968 O.2       7 UNK        -0.5000 
     37 CA          2.6179  -17.1977  -43.4376 C.3       7 UNK         0.1400 
     38 CB          3.0940  -15.9390  -44.1728 C.3       7 UNK        -0.1800 
     39 N           2.2589  -16.8587  -42.0616 N.am      7 UNK        -0.5000 
     40 C           2.2338  -17.7467  -41.0598 C.2       6 UNK         0.5000 
     41 O           2.5306  -18.9344  -41.1914 O.2       6 UNK        -0.5000 
     42 CA          1.7622  -17.2215  -39.6923 C.3       6 UNK         0.1400 
     43 CB          2.8955  -16.4719  -38.9761 C.3       6 UNK        -0.1800 
     44 N           0.5907  -16.3494  -39.7988 N.am      6 UNK        -0.5000 
     45 C          -0.6234  -16.7706  -40.1811 C.2       5 UNK         0.5000 
     46 O          -0.8739  -17.9342  -40.4887 O.2       5 UNK        -0.5000 
     47 CA         -1.7442  -15.7188  -40.2696 C.3       5 UNK         0.1400 
     48 CB         -2.4643  -15.5910  -38.9191 C.3       5 UNK        -0.1800 
     49 N          -1.2998  -14.3939  -40.7030 N.am      5 UNK        -0.5000 
     50 C          -0.6428  -14.1139  -41.8364 C.2       4 UNK         0.5000 
     51 O          -0.2729  -14.9678  -42.6459 O.2       4 UNK        -0.5000 
     52 CA         -0.3176  -12.6335  -42.1128 C.3       4 UNK         0.1400 
     53 CB         -0.8232  -11.6480  -41.0343 C.3       4 UNK        -0.1800 
     54 N           1.1131  -12.4460  -42.3502 N.am      4 UNK        -0.5000 
     55 C           2.1237  -12.7329  -41.5147 C.2       3 UNK         0.5000 
     56 O           1.9603  -13.2009  -40.3865 O.2       3 UNK        -0.5000 
     57 CA          3.5570  -12.4834  -42.0328 C.3       3 UNK         0.1400 
     58 CB          4.5337  -13.5701  -41.5485 C.3       3 UNK        -0.1800 
     59 N           3.6092  -12.4031  -43.4965 N.am      3 UNK        -0.5000 
     60 C           3.4891  -11.2762  -44.2112 C.2       2 UNK         0.5000 
     61 O           3.3878  -10.1555  -43.7124 O.2       2 UNK        -0.5000 
     62 CA          3.4282  -11.4345  -45.7419 C.3       2 UNK         0.1400 
     63 CB          4.8385  -11.3690  -46.3471 C.3       2 UNK        -0.1800 
     64 N           2.7760  -12.6720  -46.1822 N.am      2 UNK        -0.5000 
     65 C           1.4758  -12.9694  -46.0232 C.2       1 UNK         0.5000 
     66 O           0.6947  -12.2512  -45.3982 O.2       1 UNK        -0.5000 
     67 C           0.1946  -21.9807  -47.6194 C.2       11 UNK         0.5000 
     68 O          -0.0938  -23.1417  -47.9068 O.2       11 UNK        -0.5000 
     69 N          -0.6923  -20.9752  -47.5945 N.am      12 UNK        -0.5000 
     70 CA         -2.0753  -21.0272  -48.0833 C.3       12 UNK         0.1400 
     71 CB         -2.7470  -19.6718  -47.8086 C.3       12 UNK        -0.1800 
     72 C          -2.9380  -22.1680  -47.5103 C.2       12 UNK         0.5000 
     73 O          -3.7039  -22.7859  -48.2500 O.2       12 UNK        -0.5000 
     74 N          -2.8015  -22.4254  -46.2049 N.am      13 UNK        -0.5000 
     75 CA         -3.5086  -23.4935  -45.5000 C.3       13 UNK         0.1400 
     76 CB         -3.5694  -23.1471  -44.0061 C.3       13 UNK        -0.1800 
     77 C          -2.8531  -24.8735  -45.6927 C.2       13 UNK         0.5000 
     78 O          -3.5316  -25.8877  -45.5246 O.2       13 UNK        -0.5000 
     79 N          -1.5527  -24.8971  -46.0133 N.am      14 UNK        -0.5000 
     80 CA         -0.7698  -26.1174  -46.1940 C.3       14 UNK         0.1400 
     81 CB          0.7091  -25.8281  -45.8972 C.3       14 UNK        -0.1800 
     82 C          -0.9401  -26.7084  -47.6027 C.2       14 UNK         0.5000 
     83 O          -0.9992  -27.9318  -47.7361 O.2       14 UNK        -0.5000 
     84 N          -1.0277  -25.8453  -48.6220 N.am      15 UNK        -0.5000 
     85 CA         -1.2200  -26.2288  -50.0155 C.3       15 UNK         0.1400 
     86 CB          0.1428  -26.4965  -50.6778 C.3       15 UNK        -0.1800 
     87 C          -1.9878  -25.1285  -50.7582 C.2       15 UNK         0.5000 
     88 O          -1.6387  -23.9529  -50.6446 O.2       15 UNK        -0.5000 
     89 N          -2.9983  -25.5428  -51.5296 N.am      16 UNK        -0.5000 
     90 CA         -3.7553  -24.6907  -52.4443 C.3       16 UNK         0.1400 
     91 CB         -5.1214  -25.3502  -52.6963 C.3       16 UNK        -0.1800 
     92 C          -2.9974  -24.4894  -53.7717 C.2       16 UNK         0.5000 
     93 O          -2.0874  -25.2596  -54.0922 O.2       16 UNK        -0.5000 
     94 N          -3.4168  -23.4807  -54.5390 N.am      17 UNK        -0.5000 
     95 CA         -2.8967  -23.1413  -55.8595 C.3       17 UNK         0.1400 
     96 CB         -1.7690  -22.1038  -55.7110 C.3       17 UNK        -0.1800 
     97 C          -4.0434  -22.5982  -56.7256 C.2       17 UNK         0.5000 
     98 O          -5.1563  -22.4055  -56.2291 O.2       17 UNK        -0.5000 
     99 N          -3.7464  -22.3256  -58.0032 N.am      18 UNK        -0.5000 
    100 CA        -4.6848  -21.7880  -58.9972 C.3       18 UNK         0.1400 
    101 CB        -3.9949  -21.7653  -60.3698 C.3       18 UNK        -0.1800 
    102 C         -5.2511  -20.3925  -58.6567 C.2       18 UNK         0.5000 
    103 O         -6.2976  -20.0166  -59.1876 O.2       18 UNK        -0.5000 
    104 N         -4.5729  -19.6602  -57.7631 N.am      19 UNK        -0.5000 
    105 CA        -4.9885  -18.3795  -57.1940 C.3       19 UNK         0.1400 
    106 CB        -3.7538  -17.7048  -56.5684 C.3       19 UNK        -0.1800 
    107 C         -6.1435  -18.5484  -56.1820 C.2       19 UNK         0.5000 
    108 O         -5.9550  -18.3228  -54.9855 O.2       19 UNK        -0.5000 
    109 N         -7.3130  -18.9721  -56.6832 N.am      20 UNK        -0.5000 
    110 CA        -8.5883  -19.1411  -55.9729 C.3       20 UNK         0.1400 
    111 CB        -9.1840  -17.7610  -55.6263 C.3       20 UNK        -0.1800 
    112 C         -8.4945  -20.0733  -54.7451 C.2       20 UNK         0.5000 
    113 O         -9.0496  -19.7653  -53.6875 O.2       20 UNK        -0.5000 
    114 N         -7.7397  -21.1740  -54.8922 N.am      21 UNK        -0.5000 
    115 CA        -7.4154  -22.1682  -53.8586 C.3       21 UNK         0.1400 
    116 CB        -8.6806  -22.9315  -53.4147 C.3       21 UNK        -0.1800 
    117 C         -6.6253  -21.5888  -52.6626 C.2       21 UNK         0.5000 
    118 O         -6.5962  -22.2061  -51.5979 O.2       21 UNK        -0.5000 
    119 N         -6.0144  -20.4119  -52.8571 N.am      22 UNK        -0.5000 
    120 CA        -5.3903  -19.5652  -51.8296 C.3       22 UNK         0.1400 
    121 C         -6.3996  -18.9597  -50.8054 C.2       22 UNK         0.5000 
    122 N         -7.6951  -18.9091  -51.0991 N.am      22 UNK        -0.7600 
    123 O         -6.0058  -18.4968  -49.7386 O.2       22 UNK        -0.5000 
    124 C124       -4.1477  -20.2061  -51.1510 C.3       23 UNK        -0.0398 
    125 S125       -2.8886  -20.7977  -52.3311 S.3       23 UNK        -0.2404 
    126 C126       -2.0832  -19.2485  -52.8451 C.3       23 UNK        -0.0205 
    127 H127        2.2372  -15.0369  -50.8847 H         1 UNK         0.0600 
    128 H128        3.3352  -15.6127  -49.6279 H         1 UNK         0.0600 
    129 H129        3.5803  -14.0203  -50.3496 H         1 UNK         0.0600 
    130 H130        2.3322  -15.5735  -47.6527 H         1 UNK         0.3000 
    131 H131        1.1474  -15.0516  -45.8840 H         1 UNK         0.0600 
    132 H132       -1.0952  -14.0515  -46.0284 H         1 UNK         0.0800 
    133 H133       -0.8215  -13.5846  -47.6830 H         1 UNK         0.0800 
    134 H134       -2.4059  -15.6123  -49.4073 H         1 UNK         0.0800 
    135 H135       -0.8144  -14.9208  -49.5749 H         1 UNK         0.0800 
    136 H136       -2.6751  -17.2096  -51.1313 H         1 UNK         0.1150 
    137 H137        0.4648  -19.9331  -52.1773 H         1 UNK         0.1150 
    138 H138        1.0855  -17.0376  -49.0852 H         1 UNK         0.1150 
    139 H139        2.8357  -19.0097  -51.4448 H         1 UNK         0.0800 
    140 H140        2.9482  -18.3124  -49.8513 H         1 UNK         0.0800 
    141 H141        1.5222  -19.5177  -47.8549 H         1 UNK         0.0800 
    142 H142        3.1371  -20.0734  -47.5400 H         1 UNK         0.0800 
    143 H143        2.2465  -22.4790  -47.6517 H         1 UNK         0.0600 
    144 H144        1.4702  -20.7321  -45.3675 H         1 UNK         0.3000 
    145 H145        2.9522  -23.0441  -43.0853 H         1 UNK         0.0600 
    146 H146        4.1833  -21.0066  -42.3587 H         1 UNK         0.0600 
    147 H147        3.8788  -20.2470  -43.9204 H         1 UNK         0.0600 
    148 H148        4.8907  -21.6810  -43.8189 H         1 UNK         0.0600 
    149 H149        1.6980  -20.4853  -42.7405 H         1 UNK         0.3000 
    150 H150       -1.5835  -21.7515  -42.1532 H         1 UNK         0.0600 
    151 H151       -0.3095  -22.1230  -40.0310 H         1 UNK         0.0600 
    152 H152       -1.2295  -20.6277  -39.9988 H         1 UNK         0.0600 
    153 H153        0.5134  -20.5839  -40.2572 H         1 UNK         0.0600 
    154 H154       -0.5454  -19.1277  -41.9657 H         1 UNK         0.3000 
    155 H155       -0.9186  -18.2425  -45.4448 H         1 UNK         0.0600 
    156 H156       -3.1267  -17.8662  -44.4124 H         1 UNK         0.0600 
    157 H157       -2.1744  -16.3915  -44.3238 H         1 UNK         0.0600 
    158 H158       -2.3794  -17.4000  -42.8910 H         1 UNK         0.0600 
    159 H159        0.0731  -16.7513  -43.2323 H         1 UNK         0.3000 
    160 H160        3.4557  -17.8978  -43.4195 H         1 UNK         0.0600 
    161 H161        2.4131  -15.1041  -44.0115 H         1 UNK         0.0600 
    162 H162        3.1797  -16.1156  -45.2456 H         1 UNK         0.0600 
    163 H163        4.0825  -15.6404  -43.8265 H         1 UNK         0.0600 
    164 H164        1.9248  -15.9221  -41.8857 H         1 UNK         0.3000 
    165 H165        1.4878  -18.0851  -39.0826 H         1 UNK         0.0600 
    166 H166        2.5941  -16.1669  -37.9740 H         1 UNK         0.0600 
    167 H167        3.7775  -17.1051  -38.8716 H         1 UNK         0.0600 
    168 H168        3.1965  -15.5770  -39.5214 H         1 UNK         0.0600 
    169 H169        0.7269  -15.3675  -39.5993 H         1 UNK         0.3000 
    170 H170       -2.4695  -16.0718  -41.0036 H         1 UNK         0.0600 
    171 H171       -1.8026  -15.1988  -38.1457 H         1 UNK         0.0600 
    172 H172       -3.3268  -14.9282  -38.9920 H         1 UNK         0.0600 
    173 H173       -2.8300  -16.5605  -38.5778 H         1 UNK         0.0600 
    174 H174       -1.5320  -13.6253  -40.0912 H         1 UNK         0.3000 
    175 H175       -0.8210  -12.3853  -43.0480 H         1 UNK         0.0600 
    176 H176       -0.3764  -11.8365  -40.0575 H         1 UNK         0.0600 
    177 H177       -0.5854  -10.6202  -41.3092 H         1 UNK         0.0600 
    178 H178       -1.9070  -11.7030  -40.9247 H         1 UNK         0.0600 
    179 H179        1.3436  -12.1173  -43.2791 H         1 UNK         0.3000 
    180 H180        3.8866  -11.5339  -41.6065 H         1 UNK         0.0600 
    181 H181        5.5246  -13.4367  -41.9827 H         1 UNK         0.0600 
    182 H182        4.1866  -14.5717  -41.7975 H         1 UNK         0.0600 
    183 H183        4.6503  -13.5310  -40.4648 H         1 UNK         0.0600 
    184 H184        3.6848  -13.2759  -43.9962 H         1 UNK         0.3000 
    185 H185        2.8498  -10.5959  -46.1352 H         1 UNK         0.0600 
    186 H186        4.8016  -11.3917  -47.4365 H         1 UNK         0.0600 
    187 H187        5.3445  -10.4462  -46.0600 H         1 UNK         0.0600 
    188 H188        5.4597  -12.2013  -46.0139 H         1 UNK         0.0600 
    189 H189        3.3438  -13.3114  -46.7186 H         1 UNK         0.3000 
    190 H190       -0.3769  -20.0679  -47.2894 H         1 UNK         0.3000 
    191 H191       -2.0237  -21.1731  -49.1643 H         1 UNK         0.0600 
    192 H192       -2.2391  -18.8652  -48.3351 H         1 UNK         0.0600 
    193 H193       -2.7475  -19.4290  -46.7462 H         1 UNK         0.0600 
    194 H194       -3.7870  -19.6717  -48.1366 H         1 UNK         0.0600 
    195 H195       -2.1838  -21.8310  -45.6529 H         1 UNK         0.3000 
    196 H196       -4.5317  -23.5494  -45.8776 H         1 UNK         0.0600 
    197 H197       -3.9742  -22.1482  -43.8417 H         1 UNK         0.0600 
    198 H198       -2.5788  -23.1914  -43.5554 H         1 UNK         0.0600 
    199 H199       -4.2044  -23.8520  -43.4682 H         1 UNK         0.0600 
    200 H200       -1.0857  -24.0239  -46.2229 H         1 UNK         0.3000 
    201 H201       -1.1104  -26.8643  -45.4736 H         1 UNK         0.0600 
    202 H202        0.8385  -25.4137  -44.8970 H         1 UNK         0.0600 
    203 H203        1.1351  -25.1212  -46.6092 H         1 UNK         0.0600 
    204 H204        1.3025  -26.7415  -45.9512 H         1 UNK         0.0600 
    205 H205       -0.9461  -24.8456  -48.4472 H         1 UNK         0.3000 
    206 H206       -1.8132  -27.1452  -50.0568 H         1 UNK         0.0600 
    207 H207        0.7890  -25.6190  -50.6290 H         1 UNK         0.0600 
    208 H208        0.6630  -27.3236  -50.1946 H         1 UNK         0.0600 
    209 H209        0.0206  -26.7576  -51.7298 H         1 UNK         0.0600 
    210 H210       -3.1822  -26.5328  -51.5985 H         1 UNK         0.3000 
    211 H211       -3.9159  -23.7148  -51.9801 H         1 UNK         0.0600 
    212 H212       -5.0152  -26.3453  -53.1302 H         1 UNK         0.0600 
    213 H213       -5.7270  -24.7601  -53.3828 H         1 UNK         0.0600 
    214 H214       -5.6878  -25.4452  -51.7695 H         1 UNK         0.0600 
    215 H215       -4.2062  -22.9195  -54.2504 H         1 UNK         0.3000 
    216 H216       -2.5085  -24.0380  -56.3470 H         1 UNK         0.0600 
    217 H217       -1.2832  -21.9044  -56.6664 H         1 UNK         0.0600 
    218 H218       -0.9973  -22.4529  -55.0245 H         1 UNK         0.0600 
    219 H219       -2.1483  -21.1551  -55.3307 H         1 UNK         0.0600 
    220 H220       -2.8088  -22.5060  -58.3327 H         1 UNK         0.3000 
    221 H221       -5.5340  -22.4721  -59.0529 H         1 UNK         0.0600 
    222 H222       -3.6737  -22.7636  -60.6673 H         1 UNK         0.0600 
    223 H223       -4.6725  -21.4008  -61.1432 H         1 UNK         0.0600 
    224 H224       -3.1188  -21.1156  -60.3684 H         1 UNK         0.0600 
    225 H225       -3.7361  -20.0663  -57.3732 H         1 UNK         0.3000 
    226 H226       -5.3496  -17.7374  -58.0000 H         1 UNK         0.0600 
    227 H227       -2.9781  -17.5328  -57.3147 H         1 UNK         0.0600 
    228 H228       -4.0121  -16.7350  -56.1412 H         1 UNK         0.0600 
    229 H229       -3.3228  -18.3115  -55.7709 H         1 UNK         0.0600 
    230 H230       -7.3237  -19.2067  -57.6714 H         1 UNK         0.3000 
    231 H231       -9.2688  -19.6291  -56.6719 H         1 UNK         0.0600 
    232 H232      -10.1838  -17.8598  -55.2017 H         1 UNK         0.0600 
    233 H233       -9.2714  -17.1350  -56.5143 H         1 UNK         0.0600 
    234 H234       -8.5701  -17.2278  -54.8994 H         1 UNK         0.0600 
    235 H235       -7.2697  -21.3158  -55.7774 H         1 UNK         0.3000 
    236 H236       -6.7573  -22.8947  -54.3311 H         1 UNK         0.0600 
    237 H237       -9.3637  -22.2946  -52.8523 H         1 UNK         0.0600 
    238 H238       -9.2217  -23.3307  -54.2725 H         1 UNK         0.0600 
    239 H239       -8.4229  -23.7764  -52.7749 H         1 UNK         0.0600 
    240 H240       -6.1054  -19.9642  -53.7622 H         1 UNK         0.3000 
    241 H241       -5.0328  -18.6927  -52.3753 H         1 UNK         0.0600 
    242 H242       -8.0498  -19.2611  -51.9821 H         1 UNK         0.3800 
    243 H243       -8.3346  -18.5055  -50.4335 H         1 UNK         0.3800 
    244 H244       -4.4465  -21.0471  -50.5238 H         1 UNK         0.0800 
    245 H245       -3.6716  -19.4899  -50.4836 H         1 UNK         0.0800 
    246 H246       -1.4660  -19.4534  -53.7206 H         1 UNK         0.0800 
    247 H247       -2.8345  -18.5302  -53.1746 H         1 UNK         0.0800 
@<TRIPOS>BOND
     1    1    2 1    
     2    1  127 1    
     3    1  128 1    
     4    1  129 1    
     5    2    3 2    
     6    2    4 am   BACKBONE|DICT|INTERRES
     7    4    5 1    
     8    4  130 1    
     9    5    6 1    
    10    5   65 1    
    11    5  131 1    
    12    6    7 1    
    13    6  132 1    
    14    6  133 1    
    15    7    8 1    
    16    8    9 1    
    17    8  134 1    
    18    8  135 1    
    19    9   10 ar   
    20    9   14 ar   
    21   10   11 ar   
    22   10  136 1    
    23   11   12 ar   
    24   11  126 1    
    25   12   13 ar   
    26   12  137 1    
    27   13   14 ar   
    28   13   15 1    
    29   14  138 1    
    30   15   16 1    
    31   15  139 1    
    32   15  140 1    
    33   16   17 1    
    34   17   18 1    
    35   17  141 1    
    36   17  142 1    
    37   18   19 1    
    38   18   67 1    
    39   18  143 1    
    40   19   20 am   BACKBONE|DICT|INTERRES
    41   19  144 1    
    42   20   21 2    
    43   20   22 1    
    44   22   23 1    
    45   22   24 1    
    46   22  145 1    
    47   23  146 1    
    48   23  147 1    
    49   23  148 1    
    50   24   25 am   BACKBONE|DICT|INTERRES
    51   24  149 1    
    52   25   26 2    
    53   25   27 1    
    54   27   28 1    
    55   27   29 1    
    56   27  150 1    
    57   28  151 1    
    58   28  152 1    
    59   28  153 1    
    60   29   30 am   BACKBONE|DICT|INTERRES
    61   29  154 1    
    62   30   31 2    
    63   30   32 1    
    64   32   33 1    
    65   32   34 1    
    66   32  155 1    
    67   33  156 1    
    68   33  157 1    
    69   33  158 1    
    70   34   35 am   BACKBONE|DICT|INTERRES
    71   34  159 1    
    72   35   36 2    
    73   35   37 1    
    74   37   38 1    
    75   37   39 1    
    76   37  160 1    
    77   38  161 1    
    78   38  162 1    
    79   38  163 1    
    80   39   40 am   BACKBONE|DICT|INTERRES
    81   39  164 1    
    82   40   41 2    
    83   40   42 1    
    84   42   43 1    
    85   42   44 1    
    86   42  165 1    
    87   43  166 1    
    88   43  167 1    
    89   43  168 1    
    90   44   45 am   BACKBONE|DICT|INTERRES
    91   44  169 1    
    92   45   46 2    
    93   45   47 1    
    94   47   48 1    
    95   47   49 1    
    96   47  170 1    
    97   48  171 1    
    98   48  172 1    
    99   48  173 1    
   100   49   50 am   BACKBONE|DICT|INTERRES
   101   49  174 1    
   102   50   51 2    
   103   50   52 1    
   104   52   53 1    
   105   52   54 1    
   106   52  175 1    
   107   53  176 1    
   108   53  177 1    
   109   53  178 1    
   110   54   55 am   BACKBONE|DICT|INTERRES
   111   54  179 1    
   112   55   56 2    
   113   55   57 1    
   114   57   58 1    
   115   57   59 1    
   116   57  180 1    
   117   58  181 1    
   118   58  182 1    
   119   58  183 1    
   120   59   60 am   BACKBONE|DICT|INTERRES
   121   59  184 1    
   122   60   61 2    
   123   60   62 1    
   124   62   63 1    
   125   62   64 1    
   126   62  185 1    
   127   63  186 1    
   128   63  187 1    
   129   63  188 1    
   130   64   65 am   BACKBONE|DICT|INTERRES
   131   64  189 1    
   132   65   66 2    
   133   67   68 2    
   134   67   69 am   BACKBONE|DICT|INTERRES
   135   69   70 1    
   136   69  190 1    
   137   70   71 1    
   138   70   72 1    
   139   70  191 1    
   140   71  192 1    
   141   71  193 1    
   142   71  194 1    
   143   72   73 2    
   144   72   74 am   BACKBONE|DICT|INTERRES
   145   74   75 1    
   146   74  195 1    
   147   75   76 1    
   148   75   77 1    
   149   75  196 1    
   150   76  197 1    
   151   76  198 1    
   152   76  199 1    
   153   77   78 2    
   154   77   79 am   BACKBONE|DICT|INTERRES
   155   79   80 1    
   156   79  200 1    
   157   80   81 1    
   158   80   82 1    
   159   80  201 1    
   160   81  202 1    
   161   81  203 1    
   162   81  204 1    
   163   82   83 2    
   164   82   84 am   BACKBONE|DICT|INTERRES
   165   84   85 1    
   166   84  205 1    
   167   85   86 1    
   168   85   87 1    
   169   85  206 1    
   170   86  207 1    
   171   86  208 1    
   172   86  209 1    
   173   87   88 2    
   174   87   89 am   BACKBONE|DICT|INTERRES
   175   89   90 1    
   176   89  210 1    
   177   90   91 1    
   178   90   92 1    
   179   90  211 1    
   180   91  212 1    
   181   91  213 1    
   182   91  214 1    
   183   92   93 2    
   184   92   94 am   BACKBONE|DICT|INTERRES
   185   94   95 1    
   186   94  215 1    
   187   95   96 1    
   188   95   97 1    
   189   95  216 1    
   190   96  217 1    
   191   96  218 1    
   192   96  219 1    
   193   97   98 2    
   194   97   99 am   BACKBONE|DICT|INTERRES
   195   99  100 1    
   196   99  220 1    
   197  100  101 1    
   198  100  102 1    
   199  100  221 1    
   200  101  222 1    
   201  101  223 1    
   202  101  224 1    
   203  102  103 2    
   204  102  104 am   BACKBONE|DICT|INTERRES
   205  104  105 1    
   206  104  225 1    
   207  105  106 1    
   208  105  107 1    
   209  105  226 1    
   210  106  227 1    
   211  106  228 1    
   212  106  229 1    
   213  107  108 2    
   214  107  109 am   BACKBONE|DICT|INTERRES
   215  109  110 1    
   216  109  230 1    
   217  110  111 1    
   218  110  112 1    
   219  110  231 1    
   220  111  232 1    
   221  111  233 1    
   222  111  234 1    
   223  112  113 2    
   224  112  114 am   BACKBONE|DICT|INTERRES
   225  114  115 1    
   226  114  235 1    
   227  115  116 1    
   228  115  117 1    
   229  115  236 1    
   230  116  237 1    
   231  116  238 1    
   232  116  239 1    
   233  117  118 2    
   234  117  119 am   BACKBONE|DICT|INTERRES
   235  119  120 1    
   236  119  240 1    
   237  120  121 1    
   238  120  124 1    
   239  120  241 1    
   240  121  122 am   BACKBONE|DICT|INTERRES
   241  121  123 2    
   242  122  242 1    
   243  122  243 1    
   244  124  125 1    
   245  124  244 1    
   246  124  245 1    
   247  125  126 1    
   248  126  246 1    
   249  126  247 1    
@<TRIPOS>SUBSTRUCTURE
     1 UNK         1 GROUP             0       ****    0 ROOT    
