@<TRIPOS>MOLECULE
3R540
247   249    1
SMALL
USER_CHARGES


@<TRIPOS>ATOM
      1 CA          0.8552   -8.9846  -45.0039 C.3       0 UNK        -0.1800 
      2 C           0.8539  -10.5047  -44.9668 C.2       0 UNK         0.5000 
      3 O           1.8373  -11.1056  -44.5324 O.2       0 UNK        -0.5000 
      4 N          -0.2443  -11.1309  -45.4108 N.am      1 UNK        -0.5000 
      5 CA         -0.4195  -12.5877  -45.5157 C.3       1 UNK         0.1400 
      6 C6         -1.7543  -12.9720  -46.1969 C.3       23 UNK        -0.0398 
      7 S7         -1.9112  -12.2709  -47.8745 S.3       23 UNK        -0.2404 
      8 C8         -3.5490  -12.8923  -48.3732 C.3       23 UNK        -0.0205 
      9 C9         -3.4615  -14.2631  -49.0283 C.ar      23 UNK        -0.0193 
     10 C10        -3.4112  -14.3755  -50.4213 C.ar      23 UNK        -0.1150 
     11 C11        -3.3451  -15.6320  -51.0319 C.ar      23 UNK        -0.0193 
     12 C12        -3.3051  -16.7820  -50.2374 C.ar      23 UNK        -0.1150 
     13 C13        -3.3658  -16.6814  -48.8449 C.ar      23 UNK        -0.0193 
     14 C14        -3.4526  -15.4213  -48.2470 C.ar      23 UNK        -0.1150 
     15 C15        -3.3317  -17.9281  -47.9799 C.3       23 UNK        -0.0205 
     16 S16        -4.9612  -18.7162  -47.8712 S.3       23 UNK        -0.2404 
     17 C17        -4.8185  -19.6390  -46.3041 C.3       23 UNK        -0.0398 
     18 CA         -4.2662  -21.0691  -46.5088 C.3       11 UNK         0.1400 
     19 N          -2.7991  -21.1098  -46.6348 N.am      11 UNK        -0.5000 
     20 C          -2.0922  -22.2084  -46.9451 C.2       10 UNK         0.5000 
     21 O          -2.6079  -23.2993  -47.1824 O.2       10 UNK        -0.5000 
     22 CA         -0.5626  -22.0938  -46.9526 C.3       10 UNK         0.1400 
     23 CB         -0.0687  -21.4592  -48.2608 C.3       10 UNK        -0.1800 
     24 N          -0.0920  -21.3321  -45.7981 N.am      10 UNK        -0.5000 
     25 C           0.0064  -21.8428  -44.5610 C.2       9 UNK         0.5000 
     26 O          -0.2041  -23.0268  -44.2975 O.2       9 UNK        -0.5000 
     27 CA          0.3746  -20.8762  -43.4171 C.3       9 UNK         0.1400 
     28 CB          1.8910  -20.8835  -43.1743 C.3       9 UNK        -0.1800 
     29 N          -0.0652  -19.5005  -43.6501 N.am      9 UNK        -0.5000 
     30 C          -1.3451  -19.1101  -43.7390 C.2       8 UNK         0.5000 
     31 O          -2.3029  -19.8695  -43.5893 O.2       8 UNK        -0.5000 
     32 CA         -1.6002  -17.6398  -44.1289 C.3       8 UNK         0.1400 
     33 CB         -1.7578  -16.7719  -42.8727 C.3       8 UNK        -0.1800 
     34 N          -0.5697  -17.0567  -44.9960 N.am      8 UNK        -0.5000 
     35 C          -0.1465  -17.5683  -46.1627 C.2       7 UNK         0.5000 
     36 O          -0.5980  -18.6047  -46.6479 O.2       7 UNK        -0.5000 
     37 CA          0.9970  -16.8406  -46.8918 C.3       7 UNK         0.1400 
     38 CB          0.4382  -15.9168  -47.9843 C.3       7 UNK        -0.1800 
     39 N           1.8691  -16.0697  -46.0053 N.am      7 UNK        -0.5000 
     40 C           2.6257  -16.5703  -45.0183 C.2       6 UNK         0.5000 
     41 O           2.6510  -17.7683  -44.7295 O.2       6 UNK        -0.5000 
     42 CA          3.4657  -15.5631  -44.1992 C.3       6 UNK         0.1400 
     43 CB          4.7935  -16.1736  -43.7072 C.3       6 UNK        -0.1800 
     44 N           3.7128  -14.2759  -44.8644 N.am      6 UNK        -0.5000 
     45 C           4.3450  -14.0580  -46.0286 C.2       5 UNK         0.5000 
     46 O           4.7749  -14.9497  -46.7604 O.2       5 UNK        -0.5000 
     47 CA          4.5305  -12.5883  -46.4467 C.3       5 UNK         0.1400 
     48 CB          3.3893  -12.1333  -47.3685 C.3       5 UNK        -0.1800 
     49 N           4.6255  -11.6920  -45.2905 N.am      5 UNK        -0.5000 
     50 C           5.7585  -11.5168  -44.5953 C.2       4 UNK         0.5000 
     51 O           6.8233  -12.0658  -44.8835 O.2       4 UNK        -0.5000 
     52 CA          5.7214  -10.5678  -43.3828 C.3       4 UNK         0.1400 
     53 CB          6.0959   -9.1411  -43.8135 C.3       4 UNK        -0.1800 
     54 N           4.4532  -10.5209  -42.6536 N.am      4 UNK        -0.5000 
     55 C           3.8680  -11.5463  -42.0205 C.2       3 UNK         0.5000 
     56 O           4.2595  -12.7115  -42.0952 O.2       3 UNK        -0.5000 
     57 CA          2.6542  -11.2219  -41.1330 C.3       3 UNK         0.1400 
     58 CB          2.3559   -9.7157  -40.9792 C.3       3 UNK        -0.1800 
     59 N           1.4747  -11.8841  -41.6750 N.am      3 UNK        -0.5000 
     60 C           0.6118  -12.6297  -40.9731 C.2       2 UNK         0.5000 
     61 O           0.7544  -12.8859  -39.7765 O.2       2 UNK        -0.5000 
     62 CA         -0.6378  -13.1598  -41.7076 C.3       2 UNK         0.1400 
     63 CB         -1.9255  -12.7718  -40.9612 C.3       2 UNK        -0.1800 
     64 N          -0.7369  -12.6644  -43.0817 N.am      2 UNK        -0.5000 
     65 C          -0.2898  -13.3144  -44.1618 C.2       1 UNK         0.5000 
     66 O           0.2277  -14.4291  -44.1223 O.2       1 UNK        -0.5000 
     67 C          -4.7845  -22.0253  -45.4136 C.2       11 UNK         0.5000 
     68 O          -5.8046  -22.6824  -45.6237 O.2       11 UNK        -0.5000 
     69 N          -4.0322  -22.1568  -44.3118 N.am      12 UNK        -0.5000 
     70 CA         -4.2624  -23.1354  -43.2438 C.3       12 UNK         0.1400 
     71 CB         -3.2762  -22.8585  -42.0990 C.3       12 UNK        -0.1800 
     72 C          -4.1615  -24.6094  -43.7008 C.2       12 UNK         0.5000 
     73 O          -4.7046  -25.4857  -43.0278 O.2       12 UNK        -0.5000 
     74 N          -3.4968  -24.8530  -44.8378 N.am      13 UNK        -0.5000 
     75 CA         -3.3528  -26.1487  -45.4987 C.3       13 UNK         0.1400 
     76 CB         -1.8558  -26.3966  -45.7610 C.3       13 UNK        -0.1800 
     77 C          -4.1846  -26.2104  -46.7985 C.2       13 UNK         0.5000 
     78 O          -3.8207  -26.9472  -47.7158 O.2       13 UNK        -0.5000 
     79 N          -5.2731  -25.4267  -46.8734 N.am      14 UNK        -0.5000 
     80 CA         -6.2079  -25.3145  -48.0018 C.3       14 UNK         0.1400 
     81 CB         -6.9730  -26.6375  -48.2171 C.3       14 UNK        -0.1800 
     82 C          -5.5225  -24.7983  -49.2835 C.2       14 UNK         0.5000 
     83 O          -5.6622  -25.3929  -50.3538 O.2       14 UNK        -0.5000 
     84 N          -4.7490  -23.7156  -49.1244 N.am      15 UNK        -0.5000 
     85 CA         -3.8801  -23.0882  -50.1270 C.3       15 UNK         0.1400 
     86 CB         -4.7073  -22.4641  -51.2675 C.3       15 UNK        -0.1800 
     87 C          -2.7882  -24.0611  -50.6139 C.2       15 UNK         0.5000 
     88 O          -2.5397  -24.1631  -51.8147 O.2       15 UNK        -0.5000 
     89 N          -2.1950  -24.7904  -49.6562 N.am      16 UNK        -0.5000 
     90 CA         -1.2461  -25.8955  -49.8299 C.3       16 UNK         0.1400 
     91 CB          0.1164  -25.3615  -50.3158 C.3       16 UNK        -0.1800 
     92 C          -1.8168  -27.0050  -50.7385 C.2       16 UNK         0.5000 
     93 O          -1.1825  -27.3882  -51.7208 O.2       16 UNK        -0.5000 
     94 N          -3.0427  -27.4507  -50.4270 N.am      17 UNK        -0.5000 
     95 CA         -3.8783  -28.3592  -51.2233 C.3       17 UNK         0.1400 
     96 CB         -3.3101  -29.7925  -51.1821 C.3       17 UNK        -0.1800 
     97 C          -4.1076  -27.8365  -52.6607 C.2       17 UNK         0.5000 
     98 O          -3.9748  -28.5857  -53.6298 O.2       17 UNK        -0.5000 
     99 N          -4.4072  -26.5338  -52.7538 N.am      18 UNK        -0.5000 
    100 CA        -4.5883  -25.7147  -53.9567 C.3       18 UNK         0.1400 
    101 CB        -5.7774  -26.2232  -54.7968 C.3       18 UNK        -0.1800 
    102 C         -3.3207  -25.4976  -54.8153 C.2       18 UNK         0.5000 
    103 O         -3.4255  -24.8774  -55.8749 O.2       18 UNK        -0.5000 
    104 N         -2.1438  -25.9600  -54.3661 N.am      19 UNK        -0.5000 
    105 CA        -0.8718  -25.7758  -55.0732 C.3       19 UNK         0.1400 
    106 CB         0.1568  -26.7966  -54.5652 C.3       19 UNK        -0.1800 
    107 C         -0.3098  -24.3459  -54.9500 C.2       19 UNK         0.5000 
    108 O          0.4741  -23.9340  -55.8059 O.2       19 UNK        -0.5000 
    109 N         -0.7180  -23.6172  -53.9043 N.am      20 UNK        -0.5000 
    110 CA        -0.3306  -22.2378  -53.6152 C.3       20 UNK         0.1400 
    111 CB         0.3987  -22.1945  -52.2605 C.3       20 UNK        -0.1800 
    112 C         -1.5618  -21.3124  -53.6504 C.2       20 UNK         0.5000 
    113 O         -1.6242  -20.3402  -52.8954 O.2       20 UNK        -0.5000 
    114 N         -2.5269  -21.6279  -54.5264 N.am      21 UNK        -0.5000 
    115 CA        -3.6953  -20.7964  -54.8170 C.3       21 UNK         0.1400 
    116 CB        -4.6590  -21.5862  -55.7151 C.3       21 UNK        -0.1800 
    117 C         -3.2968  -19.4598  -55.4740 C.2       21 UNK         0.5000 
    118 O         -2.3029  -19.4047  -56.2039 O.2       21 UNK        -0.5000 
    119 N         -4.0757  -18.4112  -55.1886 N.am      22 UNK        -0.5000 
    120 CA        -3.8347  -17.0299  -55.6331 C.3       22 UNK         0.1400 
    121 C         -3.8772  -16.8575  -57.1783 C.2       22 UNK         0.5000 
    122 N         -3.0239  -16.0115  -57.7395 N.am      22 UNK        -0.7600 
    123 O         -4.7082  -17.4475  -57.8656 O.2       22 UNK        -0.5000 
    124 C124       -4.8086  -16.0258  -54.9607 C.3       23 UNK        -0.0398 
    125 S125       -4.9912  -16.2209  -53.1536 S.3       23 UNK        -0.2404 
    126 C126       -3.3415  -15.7497  -52.5480 C.3       23 UNK        -0.0205 
    127 H127        1.7380   -8.6251  -45.5324 H         1 UNK         0.0600 
    128 H128        0.8756   -8.5843  -43.9908 H         1 UNK         0.0600 
    129 H129       -0.0272   -8.5917  -45.5093 H         1 UNK         0.0600 
    130 H130       -1.0112  -10.5794  -45.7692 H         1 UNK         0.3000 
    131 H131        0.3888  -12.9632  -46.1442 H         1 UNK         0.0600 
    132 H132       -2.6016  -12.6329  -45.5979 H         1 UNK         0.0800 
    133 H133       -1.8412  -14.0564  -46.2677 H         1 UNK         0.0800 
    134 H134       -4.2186  -12.9255  -47.5125 H         1 UNK         0.0800 
    135 H135       -3.9924  -12.1788  -49.0696 H         1 UNK         0.0800 
    136 H136       -3.4367  -13.4835  -51.0315 H         1 UNK         0.1150 
    137 H137       -3.2515  -17.7561  -50.7039 H         1 UNK         0.1150 
    138 H138       -3.5137  -15.3440  -47.1712 H         1 UNK         0.1150 
    139 H139       -2.6096  -18.6412  -48.3797 H         1 UNK         0.0800 
    140 H140       -2.9959  -17.6605  -46.9801 H         1 UNK         0.0800 
    141 H141       -5.8289  -19.6688  -45.8909 H         1 UNK         0.0800 
    142 H142       -4.2242  -19.0846  -45.5778 H         1 UNK         0.0800 
    143 H143       -4.6742  -21.4478  -47.4474 H         1 UNK         0.0600 
    144 H144       -2.2959  -20.2526  -46.4492 H         1 UNK         0.3000 
    145 H145       -0.1499  -23.1039  -46.9005 H         1 UNK         0.0600 
    146 H146       -0.5008  -20.4735  -48.4322 H         1 UNK         0.0600 
    147 H147        1.0164  -21.3566  -48.2658 H         1 UNK         0.0600 
    148 H148       -0.3400  -22.0828  -49.1125 H         1 UNK         0.0600 
    149 H149        0.0356  -20.3353  -45.9377 H         1 UNK         0.3000 
    150 H150       -0.1190  -21.2357  -42.5118 H         1 UNK         0.0600 
    151 H151        2.2477  -21.8914  -42.9585 H         1 UNK         0.0600 
    152 H152        2.1583  -20.2551  -42.3245 H         1 UNK         0.0600 
    153 H153        2.4385  -20.5201  -44.0450 H         1 UNK         0.0600 
    154 H154        0.6609  -18.8188  -43.8289 H         1 UNK         0.3000 
    155 H155       -2.5429  -17.6090  -44.6753 H         1 UNK         0.0600 
    156 H156       -2.5065  -17.1885  -42.1976 H         1 UNK         0.0600 
    157 H157       -2.0821  -15.7636  -43.1301 H         1 UNK         0.0600 
    158 H158       -0.8209  -16.6946  -42.3198 H         1 UNK         0.0600 
    159 H159       -0.1442  -16.1923  -44.6695 H         1 UNK         0.3000 
    160 H160        1.6099  -17.6055  -47.3726 H         1 UNK         0.0600 
    161 H161       -0.1589  -15.1084  -47.5647 H         1 UNK         0.0600 
    162 H162       -0.2010  -16.4689  -48.6751 H         1 UNK         0.0600 
    163 H163        1.2403  -15.4703  -48.5722 H         1 UNK         0.0600 
    164 H164        1.8911  -15.0715  -46.1433 H         1 UNK         0.3000 
    165 H165        2.8671  -15.3290  -43.3176 H         1 UNK         0.0600 
    166 H166        5.4275  -16.4839  -44.5383 H         1 UNK         0.0600 
    167 H167        5.3544  -15.4580  -43.1055 H         1 UNK         0.0600 
    168 H168        4.6174  -17.0508  -43.0837 H         1 UNK         0.0600 
    169 H169        3.4276  -13.4621  -44.3362 H         1 UNK         0.3000 
    170 H170        5.4570  -12.5241  -47.0216 H         1 UNK         0.0600 
    171 H171        2.4189  -12.2212  -46.8857 H         1 UNK         0.0600 
    172 H172        3.5188  -11.0953  -47.6753 H         1 UNK         0.0600 
    173 H173        3.3570  -12.7394  -48.2747 H         1 UNK         0.0600 
    174 H174        3.7680  -11.2475  -44.9759 H         1 UNK         0.3000 
    175 H175        6.4813  -10.9180  -42.6812 H         1 UNK         0.0600 
    176 H176        5.3483   -8.7156  -44.4842 H         1 UNK         0.0600 
    177 H177        6.1913   -8.4797  -42.9522 H         1 UNK         0.0600 
    178 H178        7.0526   -9.1281  -44.3377 H         1 UNK         0.0600 
    179 H179        4.0344   -9.6079  -42.5561 H         1 UNK         0.3000 
    180 H180        2.8946  -11.6183  -40.1445 H         1 UNK         0.0600 
    181 H181        2.0928   -9.2518  -41.9302 H         1 UNK         0.0600 
    182 H182        3.2120   -9.1811  -40.5653 H         1 UNK         0.0600 
    183 H183        1.5217   -9.5552  -40.2959 H         1 UNK         0.0600 
    184 H184        1.3359  -11.7707  -42.6729 H         1 UNK         0.3000 
    185 H185       -0.5659  -14.2488  -41.7074 H         1 UNK         0.0600 
    186 H186       -2.8064  -13.1712  -41.4642 H         1 UNK         0.0600 
    187 H187       -1.9282  -13.1690  -39.9454 H         1 UNK         0.0600 
    188 H188       -2.0396  -11.6894  -40.8918 H         1 UNK         0.0600 
    189 H189       -1.1281  -11.7409  -43.2010 H         1 UNK         0.3000 
    190 H190       -3.2412  -21.5322  -44.1871 H         1 UNK         0.3000 
    191 H191       -5.2756  -22.9817  -42.8672 H         1 UNK         0.0600 
    192 H192       -2.2424  -22.9855  -42.4214 H         1 UNK         0.0600 
    193 H193       -3.3860  -21.8422  -41.7198 H         1 UNK         0.0600 
    194 H194       -3.4454  -23.5376  -41.2625 H         1 UNK         0.0600 
    195 H195       -3.1064  -24.0700  -45.3487 H         1 UNK         0.3000 
    196 H196       -3.7195  -26.9486  -44.8530 H         1 UNK         0.0600 
    197 H197       -1.2848  -26.3605  -44.8331 H         1 UNK         0.0600 
    198 H198       -1.4362  -25.6509  -46.4366 H         1 UNK         0.0600 
    199 H199       -1.6878  -27.3784  -46.2051 H         1 UNK         0.0600 
    200 H200       -5.4645  -24.8085  -46.0942 H         1 UNK         0.3000 
    201 H201       -6.9389  -24.5551  -47.7203 H         1 UNK         0.0600 
    202 H202       -7.7479  -26.5194  -48.9753 H         1 UNK         0.0600 
    203 H203       -7.4639  -26.9621  -47.2998 H         1 UNK         0.0600 
    204 H204       -6.3150  -27.4415  -48.5480 H         1 UNK         0.0600 
    205 H205       -4.6205  -23.3822  -48.1792 H         1 UNK         0.3000 
    206 H206       -3.3575  -22.2707  -49.6300 H         1 UNK         0.0600 
    207 H207       -5.4277  -21.7437  -50.8805 H         1 UNK         0.0600 
    208 H208       -5.2561  -23.2133  -51.8364 H         1 UNK         0.0600 
    209 H209       -4.0602  -21.9320  -51.9630 H         1 UNK         0.0600 
    210 H210       -2.4724  -24.5980  -48.6995 H         1 UNK         0.3000 
    211 H211       -1.0995  -26.3421  -48.8458 H         1 UNK         0.0600 
    212 H212        0.4855  -24.5677  -49.6666 H         1 UNK         0.0600 
    213 H213        0.8650  -26.1544  -50.3200 H         1 UNK         0.0600 
    214 H214        0.0566  -24.9675  -51.3301 H         1 UNK         0.0600 
    215 H215       -3.4648  -27.1075  -49.5668 H         1 UNK         0.3000 
    216 H216       -4.8575  -28.3755  -50.7425 H         1 UNK         0.0600 
    217 H217       -3.9829  -30.4935  -51.6772 H         1 UNK         0.0600 
    218 H218       -2.3425  -29.8598  -51.6805 H         1 UNK         0.0600 
    219 H219       -3.1829  -30.1353  -50.1553 H         1 UNK         0.0600 
    220 H220       -4.5269  -26.0292  -51.8802 H         1 UNK         0.3000 
    221 H221       -4.8559  -24.7240  -53.5899 H         1 UNK         0.0600 
    222 H222       -5.5636  -27.1853  -55.2627 H         1 UNK         0.0600 
    223 H223       -6.6724  -26.3362  -54.1849 H         1 UNK         0.0600 
    224 H224       -6.0203  -25.5224  -55.5963 H         1 UNK         0.0600 
    225 H225       -2.1044  -26.4338  -53.4711 H         1 UNK         0.3000 
    226 H226       -1.0403  -25.9746  -56.1337 H         1 UNK         0.0600 
    227 H227       -0.2439  -27.8103  -54.5842 H         1 UNK         0.0600 
    228 H228        1.0516  -26.7871  -55.1887 H         1 UNK         0.0600 
    229 H229        0.4725  -26.5762  -53.5453 H         1 UNK         0.0600 
    230 H230       -1.3946  -24.0178  -53.2558 H         1 UNK         0.3000 
    231 H231        0.3559  -21.8652  -54.3776 H         1 UNK         0.0600 
    232 H232        0.7657  -21.1913  -52.0408 H         1 UNK         0.0600 
    233 H233        1.2600  -22.8625  -52.2544 H         1 UNK         0.0600 
    234 H234       -0.2611  -22.4893  -51.4455 H         1 UNK         0.0600 
    235 H235       -2.3931  -22.4391  -55.1127 H         1 UNK         0.3000 
    236 H236       -4.2005  -20.5783  -53.8745 H         1 UNK         0.0600 
    237 H237       -4.9947  -22.5002  -55.2246 H         1 UNK         0.0600 
    238 H238       -5.5474  -20.9987  -55.9499 H         1 UNK         0.0600 
    239 H239       -4.1900  -21.8656  -56.6595 H         1 UNK         0.0600 
    240 H240       -4.8803  -18.5403  -54.5930 H         1 UNK         0.3000 
    241 H241       -2.8239  -16.7787  -55.3064 H         1 UNK         0.0600 
    242 H242       -3.0529  -15.8791  -58.7389 H         1 UNK         0.3800 
    243 H243       -2.3378  -15.5097  -57.1966 H         1 UNK         0.3800 
    244 H244       -4.4959  -15.0004  -55.1655 H         1 UNK         0.0800 
    245 H245       -5.8063  -16.1258  -55.3923 H         1 UNK         0.0800 
    246 H246       -3.0380  -14.8061  -53.0041 H         1 UNK         0.0800 
    247 H247       -2.6099  -16.4982  -52.8559 H         1 UNK         0.0800 
@<TRIPOS>BOND
     1    1    2 1    
     2    1  127 1    
     3    1  128 1    
     4    1  129 1    
     5    2    3 2    
     6    2    4 am   BACKBONE|DICT|INTERRES
     7    4    5 1    
     8    4  130 1    
     9    5    6 1    
    10    5   65 1    
    11    5  131 1    
    12    6    7 1    
    13    6  132 1    
    14    6  133 1    
    15    7    8 1    
    16    8    9 1    
    17    8  134 1    
    18    8  135 1    
    19    9   10 ar   
    20    9   14 ar   
    21   10   11 ar   
    22   10  136 1    
    23   11   12 ar   
    24   11  126 1    
    25   12   13 ar   
    26   12  137 1    
    27   13   14 ar   
    28   13   15 1    
    29   14  138 1    
    30   15   16 1    
    31   15  139 1    
    32   15  140 1    
    33   16   17 1    
    34   17   18 1    
    35   17  141 1    
    36   17  142 1    
    37   18   19 1    
    38   18   67 1    
    39   18  143 1    
    40   19   20 am   BACKBONE|DICT|INTERRES
    41   19  144 1    
    42   20   21 2    
    43   20   22 1    
    44   22   23 1    
    45   22   24 1    
    46   22  145 1    
    47   23  146 1    
    48   23  147 1    
    49   23  148 1    
    50   24   25 am   BACKBONE|DICT|INTERRES
    51   24  149 1    
    52   25   26 2    
    53   25   27 1    
    54   27   28 1    
    55   27   29 1    
    56   27  150 1    
    57   28  151 1    
    58   28  152 1    
    59   28  153 1    
    60   29   30 am   BACKBONE|DICT|INTERRES
    61   29  154 1    
    62   30   31 2    
    63   30   32 1    
    64   32   33 1    
    65   32   34 1    
    66   32  155 1    
    67   33  156 1    
    68   33  157 1    
    69   33  158 1    
    70   34   35 am   BACKBONE|DICT|INTERRES
    71   34  159 1    
    72   35   36 2    
    73   35   37 1    
    74   37   38 1    
    75   37   39 1    
    76   37  160 1    
    77   38  161 1    
    78   38  162 1    
    79   38  163 1    
    80   39   40 am   BACKBONE|DICT|INTERRES
    81   39  164 1    
    82   40   41 2    
    83   40   42 1    
    84   42   43 1    
    85   42   44 1    
    86   42  165 1    
    87   43  166 1    
    88   43  167 1    
    89   43  168 1    
    90   44   45 am   BACKBONE|DICT|INTERRES
    91   44  169 1    
    92   45   46 2    
    93   45   47 1    
    94   47   48 1    
    95   47   49 1    
    96   47  170 1    
    97   48  171 1    
    98   48  172 1    
    99   48  173 1    
   100   49   50 am   BACKBONE|DICT|INTERRES
   101   49  174 1    
   102   50   51 2    
   103   50   52 1    
   104   52   53 1    
   105   52   54 1    
   106   52  175 1    
   107   53  176 1    
   108   53  177 1    
   109   53  178 1    
   110   54   55 am   BACKBONE|DICT|INTERRES
   111   54  179 1    
   112   55   56 2    
   113   55   57 1    
   114   57   58 1    
   115   57   59 1    
   116   57  180 1    
   117   58  181 1    
   118   58  182 1    
   119   58  183 1    
   120   59   60 am   BACKBONE|DICT|INTERRES
   121   59  184 1    
   122   60   61 2    
   123   60   62 1    
   124   62   63 1    
   125   62   64 1    
   126   62  185 1    
   127   63  186 1    
   128   63  187 1    
   129   63  188 1    
   130   64   65 am   BACKBONE|DICT|INTERRES
   131   64  189 1    
   132   65   66 2    
   133   67   68 2    
   134   67   69 am   BACKBONE|DICT|INTERRES
   135   69   70 1    
   136   69  190 1    
   137   70   71 1    
   138   70   72 1    
   139   70  191 1    
   140   71  192 1    
   141   71  193 1    
   142   71  194 1    
   143   72   73 2    
   144   72   74 am   BACKBONE|DICT|INTERRES
   145   74   75 1    
   146   74  195 1    
   147   75   76 1    
   148   75   77 1    
   149   75  196 1    
   150   76  197 1    
   151   76  198 1    
   152   76  199 1    
   153   77   78 2    
   154   77   79 am   BACKBONE|DICT|INTERRES
   155   79   80 1    
   156   79  200 1    
   157   80   81 1    
   158   80   82 1    
   159   80  201 1    
   160   81  202 1    
   161   81  203 1    
   162   81  204 1    
   163   82   83 2    
   164   82   84 am   BACKBONE|DICT|INTERRES
   165   84   85 1    
   166   84  205 1    
   167   85   86 1    
   168   85   87 1    
   169   85  206 1    
   170   86  207 1    
   171   86  208 1    
   172   86  209 1    
   173   87   88 2    
   174   87   89 am   BACKBONE|DICT|INTERRES
   175   89   90 1    
   176   89  210 1    
   177   90   91 1    
   178   90   92 1    
   179   90  211 1    
   180   91  212 1    
   181   91  213 1    
   182   91  214 1    
   183   92   93 2    
   184   92   94 am   BACKBONE|DICT|INTERRES
   185   94   95 1    
   186   94  215 1    
   187   95   96 1    
   188   95   97 1    
   189   95  216 1    
   190   96  217 1    
   191   96  218 1    
   192   96  219 1    
   193   97   98 2    
   194   97   99 am   BACKBONE|DICT|INTERRES
   195   99  100 1    
   196   99  220 1    
   197  100  101 1    
   198  100  102 1    
   199  100  221 1    
   200  101  222 1    
   201  101  223 1    
   202  101  224 1    
   203  102  103 2    
   204  102  104 am   BACKBONE|DICT|INTERRES
   205  104  105 1    
   206  104  225 1    
   207  105  106 1    
   208  105  107 1    
   209  105  226 1    
   210  106  227 1    
   211  106  228 1    
   212  106  229 1    
   213  107  108 2    
   214  107  109 am   BACKBONE|DICT|INTERRES
   215  109  110 1    
   216  109  230 1    
   217  110  111 1    
   218  110  112 1    
   219  110  231 1    
   220  111  232 1    
   221  111  233 1    
   222  111  234 1    
   223  112  113 2    
   224  112  114 am   BACKBONE|DICT|INTERRES
   225  114  115 1    
   226  114  235 1    
   227  115  116 1    
   228  115  117 1    
   229  115  236 1    
   230  116  237 1    
   231  116  238 1    
   232  116  239 1    
   233  117  118 2    
   234  117  119 am   BACKBONE|DICT|INTERRES
   235  119  120 1    
   236  119  240 1    
   237  120  121 1    
   238  120  124 1    
   239  120  241 1    
   240  121  122 am   BACKBONE|DICT|INTERRES
   241  121  123 2    
   242  122  242 1    
   243  122  243 1    
   244  124  125 1    
   245  124  244 1    
   246  124  245 1    
   247  125  126 1    
   248  126  246 1    
   249  126  247 1    
@<TRIPOS>SUBSTRUCTURE
     1 UNK         1 GROUP             0       ****    0 ROOT    
