@<TRIPOS>MOLECULE
3R540
247   249    1
SMALL
USER_CHARGES


@<TRIPOS>ATOM
      1 CA          0.6184  -11.2262  -50.6717 C.3       0 UNK        -0.1800 
      2 C           0.9011  -12.2518  -49.5839 C.2       0 UNK         0.5000 
      3 O           1.9957  -12.8134  -49.5385 O.2       0 UNK        -0.5000 
      4 N          -0.0722  -12.4852  -48.6923 N.am      1 UNK        -0.5000 
      5 CA         -0.0140  -13.4882  -47.6169 C.3       1 UNK         0.1400 
      6 C6         -1.3884  -13.7080  -46.9364 C.3       23 UNK        -0.0398 
      7 S7         -2.7220  -14.1366  -48.1115 S.3       23 UNK        -0.2404 
      8 C8         -2.8005  -15.9493  -47.9569 C.3       23 UNK        -0.0205 
      9 C9         -1.6530  -16.6245  -48.6899 C.ar      23 UNK        -0.0193 
     10 C10        -1.7614  -16.9287  -50.0508 C.ar      23 UNK        -0.1150 
     11 C11        -0.6904  -17.5164  -50.7411 C.ar      23 UNK        -0.0193 
     12 C12         0.4890  -17.7924  -50.0424 C.ar      23 UNK        -0.1150 
     13 C13         0.6068  -17.4950  -48.6828 C.ar      23 UNK        -0.0193 
     14 C14        -0.4741  -16.9270  -48.0080 C.ar      23 UNK        -0.1150 
     15 C15         1.9152  -17.7526  -47.9555 C.3       23 UNK        -0.0205 
     16 S16         2.0548  -19.4776  -47.3978 S.3       23 UNK        -0.2404 
     17 C17         0.9192  -19.5003  -45.9710 C.3       23 UNK        -0.0398 
     18 CA         -0.0825  -20.6768  -46.0269 C.3       11 UNK         0.1400 
     19 N          -0.5209  -21.0616  -44.6850 N.am      11 UNK        -0.5000 
     20 C          -1.2392  -22.1525  -44.3902 C.2       10 UNK         0.5000 
     21 O          -1.5985  -22.9805  -45.2268 O.2       10 UNK        -0.5000 
     22 CA         -1.6737  -22.3061  -42.9245 C.3       10 UNK         0.1400 
     23 CB         -0.5397  -22.8960  -42.0727 C.3       10 UNK        -0.1800 
     24 N          -2.0939  -21.0197  -42.3679 N.am      10 UNK        -0.5000 
     25 C          -3.2767  -20.4439  -42.6248 C.2       9 UNK         0.5000 
     26 O          -4.1635  -20.9783  -43.2908 O.2       9 UNK        -0.5000 
     27 CA         -3.4989  -19.0253  -42.0650 C.3       9 UNK         0.1400 
     28 CB         -4.0650  -19.0911  -40.6388 C.3       9 UNK        -0.1800 
     29 N          -2.2833  -18.2080  -42.0640 N.am      9 UNK        -0.5000 
     30 C          -1.6715  -17.7584  -43.1684 C.2       8 UNK         0.5000 
     31 O          -2.0724  -17.9772  -44.3090 O.2       8 UNK        -0.5000 
     32 CA         -0.3635  -16.9726  -42.9746 C.3       8 UNK         0.1400 
     33 CB         -0.6536  -15.4758  -42.7990 C.3       8 UNK        -0.1800 
     34 N           0.4662  -17.4484  -41.8644 N.am      8 UNK        -0.5000 
     35 C           0.9593  -18.6910  -41.7518 C.2       7 UNK         0.5000 
     36 O           0.6446  -19.6139  -42.5052 O.2       7 UNK        -0.5000 
     37 CA          1.9730  -18.9372  -40.6216 C.3       7 UNK         0.1400 
     38 CB          2.9087  -20.1251  -40.9138 C.3       7 UNK        -0.1800 
     39 N           2.7747  -17.7385  -40.3798 N.am      7 UNK        -0.5000 
     40 C           3.1499  -17.2929  -39.1740 C.2       6 UNK         0.5000 
     41 O           2.8356  -17.8453  -38.1187 O.2       6 UNK        -0.5000 
     42 CA          4.0326  -16.0278  -39.1180 C.3       6 UNK         0.1400 
     43 CB          5.4864  -16.4053  -38.7923 C.3       6 UNK        -0.1800 
     44 N           4.0232  -15.2278  -40.3442 N.am      6 UNK        -0.5000 
     45 C           2.9798  -14.5219  -40.7990 C.2       5 UNK         0.5000 
     46 O           1.8898  -14.4664  -40.2292 O.2       5 UNK        -0.5000 
     47 CA          3.1830  -13.7703  -42.1303 C.3       5 UNK         0.1400 
     48 CB          3.7559  -12.3725  -41.8453 C.3       5 UNK        -0.1800 
     49 N           4.0358  -14.4489  -43.1178 N.am      5 UNK        -0.5000 
     50 C           3.9265  -15.7230  -43.5285 C.2       4 UNK         0.5000 
     51 O           3.1359  -16.5329  -43.0467 O.2       4 UNK        -0.5000 
     52 CA          4.8463  -16.1461  -44.6830 C.3       4 UNK         0.1400 
     53 CB          4.5977  -17.5887  -45.1597 C.3       4 UNK        -0.1800 
     54 N           4.6610  -15.2125  -45.7889 N.am      4 UNK        -0.5000 
     55 C           5.6403  -14.7478  -46.5751 C.2       3 UNK         0.5000 
     56 O           6.8022  -15.1541  -46.5309 O.2       3 UNK        -0.5000 
     57 CA          5.2762  -13.6142  -47.5587 C.3       3 UNK         0.1400 
     58 CB          5.0089  -14.1912  -48.9570 C.3       3 UNK        -0.1800 
     59 N           4.1202  -12.8107  -47.1475 N.am      3 UNK        -0.5000 
     60 C           4.0144  -12.1225  -45.9990 C.2       2 UNK         0.5000 
     61 O           4.9327  -12.0207  -45.1852 O.2       2 UNK        -0.5000 
     62 CA          2.6523  -11.4726  -45.6714 C.3       2 UNK         0.1400 
     63 CB          2.7415   -9.9437  -45.7887 C.3       2 UNK        -0.1800 
     64 N           1.5421  -11.9450  -46.4997 N.am      2 UNK        -0.5000 
     65 C           1.0729  -13.2002  -46.5565 C.2       1 UNK         0.5000 
     66 O           1.4950  -14.1173  -45.8497 O.2       1 UNK        -0.5000 
     67 C          -1.2758  -20.4176  -46.9768 C.2       11 UNK         0.5000 
     68 O          -1.2336  -20.8408  -48.1305 O.2       11 UNK        -0.5000 
     69 N          -2.3541  -19.8149  -46.4523 N.am      12 UNK        -0.5000 
     70 CA         -3.6304  -19.6165  -47.1427 C.3       12 UNK         0.1400 
     71 CB         -4.5676  -18.7746  -46.2622 C.3       12 UNK        -0.1800 
     72 C          -4.3388  -20.9264  -47.5354 C.2       12 UNK         0.5000 
     73 O          -5.0511  -20.9368  -48.5365 O.2       12 UNK        -0.5000 
     74 N          -4.1432  -21.9987  -46.7552 N.am      13 UNK        -0.5000 
     75 CA         -4.6534  -23.3347  -47.0648 C.3       13 UNK         0.1400 
     76 CB         -4.8077  -24.1467  -45.7698 C.3       13 UNK        -0.1800 
     77 C          -3.7433  -24.0588  -48.0712 C.2       13 UNK         0.5000 
     78 O          -4.2433  -24.6923  -49.0017 O.2       13 UNK        -0.5000 
     79 N          -2.4226  -23.9269  -47.8793 N.am      14 UNK        -0.5000 
     80 CA         -1.3810  -24.4974  -48.7364 C.3       14 UNK         0.1400 
     81 CB         -0.0163  -24.3240  -48.0546 C.3       14 UNK        -0.1800 
     82 C          -1.3492  -23.9062  -50.1594 C.2       14 UNK         0.5000 
     83 O          -0.8649  -24.5770  -51.0715 O.2       14 UNK        -0.5000 
     84 N          -1.8708  -22.6824  -50.3242 N.am      15 UNK        -0.5000 
     85 CA         -2.0711  -21.9564  -51.5781 C.3       15 UNK         0.1400 
     86 CB         -2.8377  -20.6620  -51.2675 C.3       15 UNK        -0.1800 
     87 C          -2.8228  -22.7992  -52.6258 C.2       15 UNK         0.5000 
     88 O          -4.0391  -22.9660  -52.5237 O.2       15 UNK        -0.5000 
     89 N          -2.0704  -23.3643  -53.5801 N.am      16 UNK        -0.5000 
     90 CA         -2.5282  -24.3202  -54.5968 C.3       16 UNK         0.1400 
     91 CB         -3.4389  -23.6219  -55.6264 C.3       16 UNK        -0.1800 
     92 C          -3.1369  -25.6137  -54.0007 C.2       16 UNK         0.5000 
     93 O          -4.0066  -26.2305  -54.6160 O.2       16 UNK        -0.5000 
     94 N          -2.6571  -25.9932  -52.8061 N.am      17 UNK        -0.5000 
     95 CA         -2.9496  -27.1999  -52.0232 C.3       17 UNK         0.1400 
     96 CB         -2.5296  -28.4623  -52.8036 C.3       17 UNK        -0.1800 
     97 C          -4.3866  -27.3289  -51.4718 C.2       17 UNK         0.5000 
     98 O          -4.6628  -28.3108  -50.7798 O.2       17 UNK        -0.5000 
     99 N          -5.2751  -26.3707  -51.7609 N.am      18 UNK        -0.5000 
    100 CA        -6.6890  -26.4162  -51.3785 C.3       18 UNK         0.1400 
    101 CB        -7.4581  -27.3481  -52.3394 C.3       18 UNK        -0.1800 
    102 C         -7.3129  -25.0112  -51.3005 C.2       18 UNK         0.5000 
    103 O         -8.5135  -24.8679  -51.5378 O.2       18 UNK        -0.5000 
    104 N         -6.4923  -23.9953  -50.9923 N.am      19 UNK        -0.5000 
    105 CA        -6.8369  -22.5660  -50.9381 C.3       19 UNK         0.1400 
    106 CB        -7.8039  -22.2847  -49.7683 C.3       19 UNK        -0.1800 
    107 C         -7.3687  -22.0056  -52.2778 C.2       19 UNK         0.5000 
    108 O         -8.1666  -21.0657  -52.2857 O.2       19 UNK        -0.5000 
    109 N         -6.9311  -22.5945  -53.3977 N.am      20 UNK        -0.5000 
    110 CA        -7.4647  -22.3677  -54.7409 C.3       20 UNK         0.1400 
    111 CB        -7.3593  -23.6742  -55.5495 C.3       20 UNK        -0.1800 
    112 C         -6.8196  -21.1523  -55.4378 C.2       20 UNK         0.5000 
    113 O         -6.3598  -21.2619  -56.5747 O.2       20 UNK        -0.5000 
    114 N         -6.8204  -20.0101  -54.7357 N.am      21 UNK        -0.5000 
    115 CA        -6.4068  -18.6753  -55.1883 C.3       21 UNK         0.1400 
    116 CB        -7.3611  -18.1608  -56.2872 C.3       21 UNK        -0.1800 
    117 C         -4.9179  -18.5552  -55.5854 C.2       21 UNK         0.5000 
    118 O         -4.5776  -17.7139  -56.4199 O.2       21 UNK        -0.5000 
    119 N         -4.0611  -19.3660  -54.9491 N.am      22 UNK        -0.5000 
    120 CA        -2.5967  -19.4175  -55.1274 C.3       22 UNK         0.1400 
    121 C         -2.1365  -19.9869  -56.5048 C.2       22 UNK         0.5000 
    122 N         -0.8435  -20.2298  -56.6790 N.am      22 UNK        -0.7600 
    123 O         -2.9220  -20.2390  -57.4148 O.2       22 UNK        -0.5000 
    124 C124       -1.8865  -18.0699  -54.7937 C.3       23 UNK        -0.0398 
    125 S125       -2.2666  -17.4345  -53.1230 S.3       23 UNK        -0.2404 
    126 C126       -0.7321  -17.8668  -52.2313 C.3       23 UNK        -0.0205 
    127 H127        0.7045  -11.6902  -51.6542 H         1 UNK         0.0600 
    128 H128       -0.3828  -10.8044  -50.5810 H         1 UNK         0.0600 
    129 H129        1.3388  -10.4103  -50.6142 H         1 UNK         0.0600 
    130 H130       -0.9548  -12.0022  -48.7859 H         1 UNK         0.3000 
    131 H131        0.2836  -14.4201  -48.0954 H         1 UNK         0.0600 
    132 H132       -1.3210  -14.4878  -46.1759 H         1 UNK         0.0800 
    133 H133       -1.6938  -12.8034  -46.4077 H         1 UNK         0.0800 
    134 H134       -3.7517  -16.3002  -48.3597 H         1 UNK         0.0800 
    135 H135       -2.7929  -16.2253  -46.9022 H         1 UNK         0.0800 
    136 H136       -2.6820  -16.6893  -50.5614 H         1 UNK         0.1150 
    137 H137        1.3270  -18.2363  -50.5615 H         1 UNK         0.1150 
    138 H138       -0.3876  -16.6843  -46.9586 H         1 UNK         0.1150 
    139 H139        2.7508  -17.5310  -48.6210 H         1 UNK         0.0800 
    140 H140        2.0197  -17.0741  -47.1073 H         1 UNK         0.0800 
    141 H141        1.5530  -19.5924  -45.0876 H         1 UNK         0.0800 
    142 H142        0.4017  -18.5488  -45.8571 H         1 UNK         0.0800 
    143 H143        0.4508  -21.5450  -46.4177 H         1 UNK         0.0600 
    144 H144       -0.2293  -20.4569  -43.9209 H         1 UNK         0.3000 
    145 H145       -2.5167  -22.9999  -42.8928 H         1 UNK         0.0600 
    146 H146       -0.8548  -23.0332  -41.0382 H         1 UNK         0.0600 
    147 H147       -0.2371  -23.8725  -42.4528 H         1 UNK         0.0600 
    148 H148        0.3440  -22.2578  -42.0720 H         1 UNK         0.0600 
    149 H149       -1.3925  -20.4912  -41.8681 H         1 UNK         0.3000 
    150 H150       -4.2368  -18.5324  -42.7019 H         1 UNK         0.0600 
    151 H151       -4.9852  -19.6763  -40.6109 H         1 UNK         0.0600 
    152 H152       -4.3029  -18.0959  -40.2626 H         1 UNK         0.0600 
    153 H153       -3.3607  -19.5533  -39.9460 H         1 UNK         0.0600 
    154 H154       -1.8780  -17.9876  -41.1662 H         1 UNK         0.3000 
    155 H155        0.2242  -17.0917  -43.8870 H         1 UNK         0.0600 
    156 H156        0.2680  -14.8965  -42.8145 H         1 UNK         0.0600 
    157 H157       -1.2823  -15.1000  -43.6073 H         1 UNK         0.0600 
    158 H158       -1.1657  -15.2710  -41.8582 H         1 UNK         0.0600 
    159 H159        0.7826  -16.7494  -41.2072 H         1 UNK         0.3000 
    160 H160        1.3807  -19.1756  -39.7361 H         1 UNK         0.0600 
    161 H161        3.6082  -20.2875  -40.0937 H         1 UNK         0.0600 
    162 H162        3.4890  -19.9599  -41.8224 H         1 UNK         0.0600 
    163 H163        2.3454  -21.0496  -41.0443 H         1 UNK         0.0600 
    164 H164        3.0429  -17.2200  -41.2130 H         1 UNK         0.3000 
    165 H165        3.6521  -15.4043  -38.3062 H         1 UNK         0.0600 
    166 H166        6.1070  -15.5176  -38.6684 H         1 UNK         0.0600 
    167 H167        5.5455  -16.9725  -37.8624 H         1 UNK         0.0600 
    168 H168        5.9278  -17.0183  -39.5791 H         1 UNK         0.0600 
    169 H169        4.8731  -15.2249  -40.8886 H         1 UNK         0.3000 
    170 H170        2.2022  -13.6455  -42.5907 H         1 UNK         0.0600 
    171 H171        3.1324  -11.8316  -41.1319 H         1 UNK         0.0600 
    172 H172        4.7606  -12.4296  -41.4246 H         1 UNK         0.0600 
    173 H173        3.8089  -11.7651  -42.7468 H         1 UNK         0.0600 
    174 H174        4.7108  -13.8604  -43.5882 H         1 UNK         0.3000 
    175 H175        5.8691  -16.0798  -44.3064 H         1 UNK         0.0600 
    176 H176        3.5603  -17.7368  -45.4551 H         1 UNK         0.0600 
    177 H177        5.2305  -17.8433  -46.0098 H         1 UNK         0.0600 
    178 H178        4.8139  -18.3037  -44.3652 H         1 UNK         0.0600 
    179 H179        3.7331  -14.8142  -45.8773 H         1 UNK         0.3000 
    180 H180        6.1373  -12.9459  -47.6197 H         1 UNK         0.0600 
    181 H181        4.1313  -14.8393  -48.9621 H         1 UNK         0.0600 
    182 H182        5.8567  -14.7811  -49.3078 H         1 UNK         0.0600 
    183 H183        4.8424  -13.3977  -49.6859 H         1 UNK         0.0600 
    184 H184        3.3256  -12.8235  -47.7764 H         1 UNK         0.3000 
    185 H185        2.4137  -11.7249  -44.6372 H         1 UNK         0.0600 
    186 H186        3.5337   -9.5474  -45.1519 H         1 UNK         0.0600 
    187 H187        2.9552   -9.6314  -46.8117 H         1 UNK         0.0600 
    188 H188        1.8108   -9.4684  -45.4786 H         1 UNK         0.0600 
    189 H189        1.1408  -11.2702  -47.1347 H         1 UNK         0.3000 
    190 H190       -2.2868  -19.4201  -45.5184 H         1 UNK         0.3000 
    191 H191       -3.4254  -19.0630  -48.0613 H         1 UNK         0.0600 
    192 H192       -4.8152  -19.2899  -45.3341 H         1 UNK         0.0600 
    193 H193       -5.5043  -18.5645  -46.7799 H         1 UNK         0.0600 
    194 H194       -4.1247  -17.8169  -45.9979 H         1 UNK         0.0600 
    195 H195       -3.5359  -21.9153  -45.9514 H         1 UNK         0.3000 
    196 H196       -5.6429  -23.2434  -47.5141 H         1 UNK         0.0600 
    197 H197       -5.2447  -25.1244  -45.9762 H         1 UNK         0.0600 
    198 H198       -5.4645  -23.6388  -45.0632 H         1 UNK         0.0600 
    199 H199       -3.8519  -24.3155  -45.2744 H         1 UNK         0.0600 
    200 H200       -2.1038  -23.4232  -47.0569 H         1 UNK         0.3000 
    201 H201       -1.5822  -25.5662  -48.8316 H         1 UNK         0.0600 
    202 H202        0.2596  -23.2727  -47.9774 H         1 UNK         0.0600 
    203 H203       -0.0164  -24.7477  -47.0500 H         1 UNK         0.0600 
    204 H204        0.7687  -24.8266  -48.6209 H         1 UNK         0.0600 
    205 H205       -2.1404  -22.1843  -49.4842 H         1 UNK         0.3000 
    206 H206       -1.0897  -21.6881  -51.9727 H         1 UNK         0.0600 
    207 H207       -3.8031  -20.8683  -50.8087 H         1 UNK         0.0600 
    208 H208       -2.2773  -20.0210  -50.5870 H         1 UNK         0.0600 
    209 H209       -3.0325  -20.0903  -52.1723 H         1 UNK         0.0600 
    210 H210       -1.0708  -23.2187  -53.5462 H         1 UNK         0.3000 
    211 H211       -1.6347  -24.6476  -55.1301 H         1 UNK         0.0600 
    212 H212       -4.3014  -23.1543  -55.1553 H         1 UNK         0.0600 
    213 H213       -3.8065  -24.3195  -56.3795 H         1 UNK         0.0600 
    214 H214       -2.8941  -22.8425  -56.1569 H         1 UNK         0.0600 
    215 H215       -1.9690  -25.3829  -52.3707 H         1 UNK         0.3000 
    216 H216       -2.3074  -27.1335  -51.1439 H         1 UNK         0.0600 
    217 H217       -3.1616  -28.6279  -53.6764 H         1 UNK         0.0600 
    218 H218       -2.6000  -29.3531  -52.1783 H         1 UNK         0.0600 
    219 H219       -1.4968  -28.3900  -53.1447 H         1 UNK         0.0600 
    220 H220       -4.9802  -25.5950  -52.3376 H         1 UNK         0.3000 
    221 H221       -6.7656  -26.8253  -50.3690 H         1 UNK         0.0600 
    222 H222       -7.4283  -26.9734  -53.3632 H         1 UNK         0.0600 
    223 H223       -7.0408  -28.3550  -52.3403 H         1 UNK         0.0600 
    224 H224       -8.5056  -27.4400  -52.0504 H         1 UNK         0.0600 
    225 H225       -5.5290  -24.2127  -50.7623 H         1 UNK         0.3000 
    226 H226       -5.9048  -22.0394  -50.7385 H         1 UNK         0.0600 
    227 H227       -7.4423  -22.7213  -48.8391 H         1 UNK         0.0600 
    228 H228       -7.9079  -21.2123  -49.5999 H         1 UNK         0.0600 
    229 H229       -8.8000  -22.6847  -49.9592 H         1 UNK         0.0600 
    230 H230       -6.1827  -23.2683  -53.3079 H         1 UNK         0.3000 
    231 H231       -8.5293  -22.1388  -54.6568 H         1 UNK         0.0600 
    232 H232       -7.9029  -24.4815  -55.0580 H         1 UNK         0.0600 
    233 H233       -6.3287  -24.0005  -55.6758 H         1 UNK         0.0600 
    234 H234       -7.7905  -23.5557  -56.5442 H         1 UNK         0.0600 
    235 H235       -7.2278  -20.0533  -53.8070 H         1 UNK         0.3000 
    236 H236       -6.5295  -18.0210  -54.3240 H         1 UNK         0.0600 
    237 H237       -7.1661  -17.1132  -56.5193 H         1 UNK         0.0600 
    238 H238       -7.2522  -18.7264  -57.2131 H         1 UNK         0.0600 
    239 H239       -8.4019  -18.2310  -55.9710 H         1 UNK         0.0600 
    240 H240       -4.4508  -20.0413  -54.3091 H         1 UNK         0.3000 
    241 H241       -2.2566  -20.1551  -54.4009 H         1 UNK         0.0600 
    242 H242       -0.5387  -20.6041  -57.5643 H         1 UNK         0.3800 
    243 H243       -0.1600  -20.0597  -55.9584 H         1 UNK         0.3800 
    244 H244       -2.1648  -17.3021  -55.5163 H         1 UNK         0.0800 
    245 H245       -0.8044  -18.1699  -54.8848 H         1 UNK         0.0800 
    246 H246       -0.5596  -18.9386  -52.3384 H         1 UNK         0.0800 
    247 H247        0.1021  -17.3655  -52.7246 H         1 UNK         0.0800 
@<TRIPOS>BOND
     1    1    2 1    
     2    1  127 1    
     3    1  128 1    
     4    1  129 1    
     5    2    3 2    
     6    2    4 am   BACKBONE|DICT|INTERRES
     7    4    5 1    
     8    4  130 1    
     9    5    6 1    
    10    5   65 1    
    11    5  131 1    
    12    6    7 1    
    13    6  132 1    
    14    6  133 1    
    15    7    8 1    
    16    8    9 1    
    17    8  134 1    
    18    8  135 1    
    19    9   10 ar   
    20    9   14 ar   
    21   10   11 ar   
    22   10  136 1    
    23   11   12 ar   
    24   11  126 1    
    25   12   13 ar   
    26   12  137 1    
    27   13   14 ar   
    28   13   15 1    
    29   14  138 1    
    30   15   16 1    
    31   15  139 1    
    32   15  140 1    
    33   16   17 1    
    34   17   18 1    
    35   17  141 1    
    36   17  142 1    
    37   18   19 1    
    38   18   67 1    
    39   18  143 1    
    40   19   20 am   BACKBONE|DICT|INTERRES
    41   19  144 1    
    42   20   21 2    
    43   20   22 1    
    44   22   23 1    
    45   22   24 1    
    46   22  145 1    
    47   23  146 1    
    48   23  147 1    
    49   23  148 1    
    50   24   25 am   BACKBONE|DICT|INTERRES
    51   24  149 1    
    52   25   26 2    
    53   25   27 1    
    54   27   28 1    
    55   27   29 1    
    56   27  150 1    
    57   28  151 1    
    58   28  152 1    
    59   28  153 1    
    60   29   30 am   BACKBONE|DICT|INTERRES
    61   29  154 1    
    62   30   31 2    
    63   30   32 1    
    64   32   33 1    
    65   32   34 1    
    66   32  155 1    
    67   33  156 1    
    68   33  157 1    
    69   33  158 1    
    70   34   35 am   BACKBONE|DICT|INTERRES
    71   34  159 1    
    72   35   36 2    
    73   35   37 1    
    74   37   38 1    
    75   37   39 1    
    76   37  160 1    
    77   38  161 1    
    78   38  162 1    
    79   38  163 1    
    80   39   40 am   BACKBONE|DICT|INTERRES
    81   39  164 1    
    82   40   41 2    
    83   40   42 1    
    84   42   43 1    
    85   42   44 1    
    86   42  165 1    
    87   43  166 1    
    88   43  167 1    
    89   43  168 1    
    90   44   45 am   BACKBONE|DICT|INTERRES
    91   44  169 1    
    92   45   46 2    
    93   45   47 1    
    94   47   48 1    
    95   47   49 1    
    96   47  170 1    
    97   48  171 1    
    98   48  172 1    
    99   48  173 1    
   100   49   50 am   BACKBONE|DICT|INTERRES
   101   49  174 1    
   102   50   51 2    
   103   50   52 1    
   104   52   53 1    
   105   52   54 1    
   106   52  175 1    
   107   53  176 1    
   108   53  177 1    
   109   53  178 1    
   110   54   55 am   BACKBONE|DICT|INTERRES
   111   54  179 1    
   112   55   56 2    
   113   55   57 1    
   114   57   58 1    
   115   57   59 1    
   116   57  180 1    
   117   58  181 1    
   118   58  182 1    
   119   58  183 1    
   120   59   60 am   BACKBONE|DICT|INTERRES
   121   59  184 1    
   122   60   61 2    
   123   60   62 1    
   124   62   63 1    
   125   62   64 1    
   126   62  185 1    
   127   63  186 1    
   128   63  187 1    
   129   63  188 1    
   130   64   65 am   BACKBONE|DICT|INTERRES
   131   64  189 1    
   132   65   66 2    
   133   67   68 2    
   134   67   69 am   BACKBONE|DICT|INTERRES
   135   69   70 1    
   136   69  190 1    
   137   70   71 1    
   138   70   72 1    
   139   70  191 1    
   140   71  192 1    
   141   71  193 1    
   142   71  194 1    
   143   72   73 2    
   144   72   74 am   BACKBONE|DICT|INTERRES
   145   74   75 1    
   146   74  195 1    
   147   75   76 1    
   148   75   77 1    
   149   75  196 1    
   150   76  197 1    
   151   76  198 1    
   152   76  199 1    
   153   77   78 2    
   154   77   79 am   BACKBONE|DICT|INTERRES
   155   79   80 1    
   156   79  200 1    
   157   80   81 1    
   158   80   82 1    
   159   80  201 1    
   160   81  202 1    
   161   81  203 1    
   162   81  204 1    
   163   82   83 2    
   164   82   84 am   BACKBONE|DICT|INTERRES
   165   84   85 1    
   166   84  205 1    
   167   85   86 1    
   168   85   87 1    
   169   85  206 1    
   170   86  207 1    
   171   86  208 1    
   172   86  209 1    
   173   87   88 2    
   174   87   89 am   BACKBONE|DICT|INTERRES
   175   89   90 1    
   176   89  210 1    
   177   90   91 1    
   178   90   92 1    
   179   90  211 1    
   180   91  212 1    
   181   91  213 1    
   182   91  214 1    
   183   92   93 2    
   184   92   94 am   BACKBONE|DICT|INTERRES
   185   94   95 1    
   186   94  215 1    
   187   95   96 1    
   188   95   97 1    
   189   95  216 1    
   190   96  217 1    
   191   96  218 1    
   192   96  219 1    
   193   97   98 2    
   194   97   99 am   BACKBONE|DICT|INTERRES
   195   99  100 1    
   196   99  220 1    
   197  100  101 1    
   198  100  102 1    
   199  100  221 1    
   200  101  222 1    
   201  101  223 1    
   202  101  224 1    
   203  102  103 2    
   204  102  104 am   BACKBONE|DICT|INTERRES
   205  104  105 1    
   206  104  225 1    
   207  105  106 1    
   208  105  107 1    
   209  105  226 1    
   210  106  227 1    
   211  106  228 1    
   212  106  229 1    
   213  107  108 2    
   214  107  109 am   BACKBONE|DICT|INTERRES
   215  109  110 1    
   216  109  230 1    
   217  110  111 1    
   218  110  112 1    
   219  110  231 1    
   220  111  232 1    
   221  111  233 1    
   222  111  234 1    
   223  112  113 2    
   224  112  114 am   BACKBONE|DICT|INTERRES
   225  114  115 1    
   226  114  235 1    
   227  115  116 1    
   228  115  117 1    
   229  115  236 1    
   230  116  237 1    
   231  116  238 1    
   232  116  239 1    
   233  117  118 2    
   234  117  119 am   BACKBONE|DICT|INTERRES
   235  119  120 1    
   236  119  240 1    
   237  120  121 1    
   238  120  124 1    
   239  120  241 1    
   240  121  122 am   BACKBONE|DICT|INTERRES
   241  121  123 2    
   242  122  242 1    
   243  122  243 1    
   244  124  125 1    
   245  124  244 1    
   246  124  245 1    
   247  125  126 1    
   248  126  246 1    
   249  126  247 1    
@<TRIPOS>SUBSTRUCTURE
     1 UNK         1 GROUP             0       ****    0 ROOT    
