@<TRIPOS>MOLECULE
3R540
247   249    1
SMALL
USER_CHARGES


@<TRIPOS>ATOM
      1 CA          2.4997   -8.3386  -45.4985 C.3       0 UNK        -0.1800 
      2 C           2.3210   -9.6562  -46.2385 C.2       0 UNK         0.5000 
      3 O           1.6570  -10.5600  -45.7301 O.2       0 UNK        -0.5000 
      4 N           2.9182   -9.7706  -47.4326 N.am      1 UNK        -0.5000 
      5 CA          2.8964  -10.9264  -48.3396 C.3       1 UNK         0.1400 
      6 C6          1.4619  -11.3313  -48.7766 C.3       23 UNK        -0.0398 
      7 S7          1.4408  -12.4471  -50.2198 S.3       23 UNK        -0.2404 
      8 C8          0.3626  -13.7793  -49.6100 C.3       23 UNK        -0.0205 
      9 C9          0.4164  -14.9925  -50.5225 C.ar      23 UNK        -0.0193 
     10 C10        -0.2199  -14.9744  -51.7677 C.ar      23 UNK        -0.1150 
     11 C11        -0.1497  -16.0845  -52.6149 C.ar      23 UNK        -0.0193 
     12 C12         0.5394  -17.2273  -52.1950 C.ar      23 UNK        -0.1150 
     13 C13         1.1748  -17.2595  -50.9499 C.ar      23 UNK        -0.0193 
     14 C14         1.1161  -16.1338  -50.1234 C.ar      23 UNK        -0.1150 
     15 C15         1.9688  -18.4868  -50.5200 C.3       23 UNK        -0.0205 
     16 S16         1.4517  -19.1335  -48.8969 S.3       23 UNK        -0.2404 
     17 C17        -0.1258  -19.9488  -49.3097 C.3       23 UNK        -0.0398 
     18 CA         -0.4685  -21.0625  -48.2965 C.3       11 UNK         0.1400 
     19 N          -0.6745  -20.5428  -46.9423 N.am      11 UNK        -0.5000 
     20 C          -0.7666  -21.3036  -45.8437 C.2       10 UNK         0.5000 
     21 O          -0.6513  -22.5284  -45.8446 O.2       10 UNK        -0.5000 
     22 CA         -1.1079  -20.5775  -44.5343 C.3       10 UNK         0.1400 
     23 CB          0.1452  -19.9487  -43.9063 C.3       10 UNK        -0.1800 
     24 N          -2.1438  -19.5650  -44.7478 N.am      10 UNK        -0.5000 
     25 C          -3.4270  -19.8647  -44.9993 C.2       9 UNK         0.5000 
     26 O          -3.8678  -21.0144  -44.9910 O.2       9 UNK        -0.5000 
     27 CA         -4.3671  -18.7015  -45.3659 C.3       9 UNK         0.1400 
     28 CB         -5.0485  -18.1328  -44.1137 C.3       9 UNK        -0.1800 
     29 N          -3.6839  -17.6283  -46.0905 N.am      9 UNK        -0.5000 
     30 C          -3.2842  -17.7299  -47.3674 C.2       8 UNK         0.5000 
     31 O          -3.4643  -18.7340  -48.0542 O.2       8 UNK        -0.5000 
     32 CA         -2.5118  -16.5380  -47.9678 C.3       8 UNK         0.1400 
     33 CB         -3.4793  -15.5250  -48.5976 C.3       8 UNK        -0.1800 
     34 N          -1.6621  -15.8383  -47.0040 N.am      8 UNK        -0.5000 
     35 C          -0.6858  -16.4027  -46.2828 C.2       7 UNK         0.5000 
     36 O          -0.3942  -17.5974  -46.3507 O.2       7 UNK        -0.5000 
     37 CA          0.0732  -15.5005  -45.2918 C.3       7 UNK         0.1400 
     38 CB         -0.2815  -13.9990  -45.3793 C.3       7 UNK        -0.1800 
     39 N          -0.0506  -15.9694  -43.9133 N.am      7 UNK        -0.5000 
     40 C          -1.1727  -16.1853  -43.2116 C.2       6 UNK         0.5000 
     41 O          -2.3019  -16.0451  -43.6840 O.2       6 UNK        -0.5000 
     42 CA         -1.0114  -16.6487  -41.7429 C.3       6 UNK         0.1400 
     43 CB         -2.0499  -17.7183  -41.3607 C.3       6 UNK        -0.1800 
     44 N           0.3328  -17.1544  -41.4335 N.am      6 UNK        -0.5000 
     45 C           1.4000  -16.3881  -41.1751 C.2       5 UNK         0.5000 
     46 O           1.3374  -15.1587  -41.1086 O.2       5 UNK        -0.5000 
     47 CA          2.7545  -17.1052  -41.0039 C.3       5 UNK         0.1400 
     48 CB          2.9273  -18.2927  -41.9715 C.3       5 UNK        -0.1800 
     49 N           3.8207  -16.1425  -41.2561 N.am      5 UNK        -0.5000 
     50 C           4.8307  -15.8441  -40.4300 C.2       4 UNK         0.5000 
     51 O           5.0730  -16.4593  -39.3907 O.2       4 UNK        -0.5000 
     52 CA          5.7140  -14.6386  -40.8226 C.3       4 UNK         0.1400 
     53 CB          7.0054  -15.1163  -41.5042 C.3       4 UNK        -0.1800 
     54 N           5.0263  -13.7016  -41.7149 N.am      4 UNK        -0.5000 
     55 C           3.9768  -12.9438  -41.3667 C.2       3 UNK         0.5000 
     56 O           3.6093  -12.7989  -40.1999 O.2       3 UNK        -0.5000 
     57 CA          3.1896  -12.2487  -42.4997 C.3       3 UNK         0.1400 
     58 CB          3.2068  -10.7215  -42.3234 C.3       3 UNK        -0.1800 
     59 N           3.6321  -12.5669  -43.8634 N.am      3 UNK        -0.5000 
     60 C           3.5369  -13.7539  -44.4800 C.2       2 UNK         0.5000 
     61 O           3.1199  -14.7766  -43.9333 O.2       2 UNK        -0.5000 
     62 CA          3.9801  -13.7659  -45.9537 C.3       2 UNK         0.1400 
     63 CB          3.7454  -15.1021  -46.6896 C.3       2 UNK        -0.1800 
     64 N           3.3252  -12.6656  -46.6569 N.am      2 UNK        -0.5000 
     65 C           3.7340  -12.1089  -47.8009 C.2       1 UNK         0.5000 
     66 O           4.7426  -12.4665  -48.4113 O.2       1 UNK        -0.5000 
     67 C          -1.6579  -21.9252  -48.7707 C.2       11 UNK         0.5000 
     68 O          -1.4296  -22.9667  -49.3849 O.2       11 UNK        -0.5000 
     69 N          -2.8938  -21.5256  -48.4263 N.am      12 UNK        -0.5000 
     70 CA         -4.1114  -22.3131  -48.6374 C.3       12 UNK         0.1400 
     71 CB         -5.3546  -21.5170  -48.2030 C.3       12 UNK        -0.1800 
     72 C          -4.0674  -23.6556  -47.8923 C.2       12 UNK         0.5000 
     73 O          -4.3043  -24.6944  -48.5079 O.2       12 UNK        -0.5000 
     74 N          -3.7418  -23.6098  -46.5921 N.am      13 UNK        -0.5000 
     75 CA         -3.6263  -24.7782  -45.7185 C.3       13 UNK         0.1400 
     76 CB         -3.3948  -24.3199  -44.2711 C.3       13 UNK        -0.1800 
     77 C          -2.5286  -25.7584  -46.1683 C.2       13 UNK         0.5000 
     78 O          -2.7812  -26.9623  -46.2271 O.2       13 UNK        -0.5000 
     79 N          -1.3528  -25.2254  -46.5303 N.am      14 UNK        -0.5000 
     80 CA         -0.2135  -25.9827  -47.0576 C.3       14 UNK         0.1400 
     81 CB          0.9903  -25.0420  -47.2168 C.3       14 UNK        -0.1800 
     82 C          -0.5171  -26.6965  -48.3892 C.2       14 UNK         0.5000 
     83 O           0.0065  -27.7843  -48.6306 O.2       14 UNK        -0.5000 
     84 N          -1.3832  -26.0879  -49.2080 N.am      15 UNK        -0.5000 
     85 CA         -1.8778  -26.6252  -50.4743 C.3       15 UNK         0.1400 
     86 CB         -2.1017  -25.4510  -51.4367 C.3       15 UNK        -0.1800 
     87 C          -3.1466  -27.4934  -50.3176 C.2       15 UNK         0.5000 
     88 O          -3.7561  -27.8447  -51.3280 O.2       15 UNK        -0.5000 
     89 N          -3.5160  -27.8372  -49.0737 N.am      16 UNK        -0.5000 
     90 CA         -4.6453  -28.6865  -48.6813 C.3       16 UNK         0.1400 
     91 CB         -4.4761  -30.1241  -49.2182 C.3       16 UNK        -0.1800 
     92 C          -6.0136  -28.0603  -49.0194 C.2       16 UNK         0.5000 
     93 O          -6.8707  -28.7148  -49.6160 O.2       16 UNK        -0.5000 
     94 N          -6.1840  -26.7985  -48.6031 N.am      17 UNK        -0.5000 
     95 CA         -7.3758  -25.9561  -48.7408 C.3       17 UNK         0.1400 
     96 CB         -8.6032  -26.5842  -48.0463 C.3       17 UNK        -0.1800 
     97 C          -7.6388  -25.5273  -50.1972 C.2       17 UNK         0.5000 
     98 O          -8.7895  -25.4906  -50.6386 O.2       17 UNK        -0.5000 
     99 N          -6.5593  -25.1860  -50.9121 N.am      18 UNK        -0.5000 
    100 CA        -6.6093  -24.5587  -52.2336 C.3       18 UNK         0.1400 
    101 CB        -5.2675  -24.7908  -52.9456 C.3       18 UNK        -0.1800 
    102 C         -6.9003  -23.0492  -52.1202 C.2       18 UNK         0.5000 
    103 O         -6.9023  -22.4948  -51.0175 O.2       18 UNK        -0.5000 
    104 N         -7.0857  -22.3902  -53.2716 N.am      19 UNK        -0.5000 
    105 CA        -7.2818  -20.9426  -53.4090 C.3       19 UNK         0.1400 
    106 CB        -7.8937  -20.6574  -54.7922 C.3       19 UNK        -0.1800 
    107 C         -5.9748  -20.1538  -53.1664 C.2       19 UNK         0.5000 
    108 O         -5.4411  -19.5269  -54.0843 O.2       19 UNK        -0.5000 
    109 N         -5.4507  -20.2604  -51.9372 N.am      20 UNK        -0.5000 
    110 CA        -4.2313  -19.6343  -51.4087 C.3       20 UNK         0.1400 
    111 CB        -4.4183  -18.1097  -51.2976 C.3       20 UNK        -0.1800 
    112 C         -2.9263  -20.0326  -52.1297 C.2       20 UNK         0.5000 
    113 O         -1.8942  -19.4092  -51.8970 O.2       20 UNK        -0.5000 
    114 N         -2.9905  -21.0666  -52.9827 N.am      21 UNK        -0.5000 
    115 CA        -1.9327  -21.5471  -53.8793 C.3       21 UNK         0.1400 
    116 CB        -0.7163  -22.0517  -53.0740 C.3       21 UNK        -0.1800 
    117 C         -1.5328  -20.5196  -54.9649 C.2       21 UNK         0.5000 
    118 O         -0.4533  -20.6437  -55.5462 O.2       21 UNK        -0.5000 
    119 N         -2.3990  -19.5302  -55.2277 N.am      22 UNK        -0.5000 
    120 CA        -2.1372  -18.4142  -56.1538 C.3       22 UNK         0.1400 
    121 C         -2.4778  -18.7213  -57.6412 C.2       22 UNK         0.5000 
    122 N         -3.0625  -19.8668  -57.9703 N.am      22 UNK        -0.7600 
    123 O         -2.1953  -17.9087  -58.5175 O.2       22 UNK        -0.5000 
    124 C124       -2.8072  -17.0904  -55.6913 C.3       23 UNK        -0.0398 
    125 S125       -2.4956  -16.6682  -53.9423 S.3       23 UNK        -0.2404 
    126 C126       -0.7905  -16.0458  -53.9945 C.3       23 UNK        -0.0205 
    127 H127        2.9283   -7.5693  -46.1411 H         1 UNK         0.0600 
    128 H128        3.1598   -8.4742  -44.6422 H         1 UNK         0.0600 
    129 H129        1.5372   -7.9781  -45.1355 H         1 UNK         0.0600 
    130 H130        3.4701   -8.9917  -47.7653 H         1 UNK         0.3000 
    131 H131        3.4108  -10.5761  -49.2363 H         1 UNK         0.0600 
    132 H132        0.9014  -10.4381  -49.0555 H         1 UNK         0.0800 
    133 H133        0.9103  -11.7768  -47.9483 H         1 UNK         0.0800 
    134 H134        0.6699  -14.0608  -48.6022 H         1 UNK         0.0800 
    135 H135       -0.6634  -13.4163  -49.5362 H         1 UNK         0.0800 
    136 H136       -0.7530  -14.0889  -52.0841 H         1 UNK         0.1150 
    137 H137        0.5837  -18.0905  -52.8447 H         1 UNK         0.1150 
    138 H138        1.6193  -16.1503  -49.1669 H         1 UNK         0.1150 
    139 H139        1.9006  -19.2805  -51.2655 H         1 UNK         0.0800 
    140 H140        3.0224  -18.2110  -50.4630 H         1 UNK         0.0800 
    141 H141       -0.0382  -20.3703  -50.3120 H         1 UNK         0.0800 
    142 H142       -0.9156  -19.1972  -49.3520 H         1 UNK         0.0800 
    143 H143        0.3922  -21.7334  -48.2492 H         1 UNK         0.0600 
    144 H144       -0.7217  -19.5334  -46.8434 H         1 UNK         0.3000 
    145 H145       -1.4921  -21.3220  -43.8336 H         1 UNK         0.0600 
    146 H146        0.9317  -20.6942  -43.7815 H         1 UNK         0.0600 
    147 H147        0.5556  -19.1444  -44.5159 H         1 UNK         0.0600 
    148 H148       -0.0721  -19.5479  -42.9190 H         1 UNK         0.0600 
    149 H149       -1.8361  -18.6084  -44.8576 H         1 UNK         0.3000 
    150 H150       -5.1494  -19.1025  -46.0135 H         1 UNK         0.0600 
    151 H151       -5.7544  -17.3435  -44.3723 H         1 UNK         0.0600 
    152 H152       -4.3254  -17.7193  -43.4125 H         1 UNK         0.0600 
    153 H153       -5.6062  -18.9089  -43.5879 H         1 UNK         0.0600 
    154 H154       -3.4491  -16.7970  -45.5621 H         1 UNK         0.3000 
    155 H155       -1.8653  -16.9306  -48.7558 H         1 UNK         0.0600 
    156 H156       -4.1655  -16.0091  -49.2917 H         1 UNK         0.0600 
    157 H157       -2.9392  -14.7616  -49.1579 H         1 UNK         0.0600 
    158 H158       -4.0847  -15.0240  -47.8413 H         1 UNK         0.0600 
    159 H159       -1.8623  -14.8604  -46.8556 H         1 UNK         0.3000 
    160 H160        1.1248  -15.6116  -45.5409 H         1 UNK         0.0600 
    161 H161       -0.1140  -13.6055  -46.3816 H         1 UNK         0.0600 
    162 H162        0.3442  -13.4151  -44.7037 H         1 UNK         0.0600 
    163 H163       -1.3203  -13.8051  -45.1098 H         1 UNK         0.0600 
    164 H164        0.8279  -16.1054  -43.4346 H         1 UNK         0.3000 
    165 H165       -1.2027  -15.7734  -41.1189 H         1 UNK         0.0600 
    166 H166       -1.9037  -18.0639  -40.3373 H         1 UNK         0.0600 
    167 H167       -3.0612  -17.3149  -41.4175 H         1 UNK         0.0600 
    168 H168       -2.0069  -18.5859  -42.0181 H         1 UNK         0.0600 
    169 H169        0.4545  -18.1552  -41.4748 H         1 UNK         0.3000 
    170 H170        2.8009  -17.4707  -39.9762 H         1 UNK         0.0600 
    171 H171        3.9328  -18.7085  -41.9031 H         1 UNK         0.0600 
    172 H172        2.2356  -19.1028  -41.7399 H         1 UNK         0.0600 
    173 H173        2.7627  -17.9956  -43.0084 H         1 UNK         0.0600 
    174 H174        3.6665  -15.5452  -42.0622 H         1 UNK         0.3000 
    175 H175        5.9817  -14.1091  -39.9059 H         1 UNK         0.0600 
    176 H176        6.7970  -15.6461  -42.4346 H         1 UNK         0.0600 
    177 H177        7.6641  -14.2785  -41.7336 H         1 UNK         0.0600 
    178 H178        7.5598  -15.7964  -40.8562 H         1 UNK         0.0600 
    179 H179        5.2674  -13.7497  -42.6931 H         1 UNK         0.3000 
    180 H180        2.1554  -12.5869  -42.4056 H         1 UNK         0.0600 
    181 H181        2.5321  -10.2394  -43.0301 H         1 UNK         0.0600 
    182 H182        4.2057  -10.3101  -42.4720 H         1 UNK         0.0600 
    183 H183        2.8777  -10.4338  -41.3240 H         1 UNK         0.0600 
    184 H184        3.9992  -11.7898  -44.3931 H         1 UNK         0.3000 
    185 H185        5.0559  -13.5799  -45.9380 H         1 UNK         0.0600 
    186 H186        2.7072  -15.2239  -46.9913 H         1 UNK         0.0600 
    187 H187        4.3471  -15.1525  -47.5970 H         1 UNK         0.0600 
    188 H188        4.0251  -15.9597  -46.0764 H         1 UNK         0.0600 
    189 H189        2.5350  -12.2354  -46.1816 H         1 UNK         0.3000 
    190 H190       -3.0107  -20.6166  -47.9883 H         1 UNK         0.3000 
    191 H191       -4.1933  -22.5240  -49.7058 H         1 UNK         0.0600 
    192 H192       -5.3402  -21.2882  -47.1389 H         1 UNK         0.0600 
    193 H193       -6.2638  -22.0882  -48.3943 H         1 UNK         0.0600 
    194 H194       -5.4523  -20.5745  -48.7379 H         1 UNK         0.0600 
    195 H195       -3.5862  -22.7060  -46.1581 H         1 UNK         0.3000 
    196 H196       -4.5787  -25.3110  -45.7553 H         1 UNK         0.0600 
    197 H197       -3.3266  -25.1741  -43.5964 H         1 UNK         0.0600 
    198 H198       -4.2155  -23.6934  -43.9210 H         1 UNK         0.0600 
    199 H199       -2.4727  -23.7469  -44.1710 H         1 UNK         0.0600 
    200 H200       -1.2141  -24.2239  -46.4136 H         1 UNK         0.3000 
    201 H201        0.0445  -26.7487  -46.3236 H         1 UNK         0.0600 
    202 H202        1.2680  -24.5919  -46.2636 H         1 UNK         0.0600 
    203 H203        0.7769  -24.2350  -47.9187 H         1 UNK         0.0600 
    204 H204        1.8627  -25.5807  -47.5888 H         1 UNK         0.0600 
    205 H205       -1.7444  -25.1796  -48.9410 H         1 UNK         0.3000 
    206 H206       -1.1139  -27.2692  -50.9144 H         1 UNK         0.0600 
    207 H207       -2.4668  -25.7889  -52.4068 H         1 UNK         0.0600 
    208 H208       -2.8201  -24.7394  -51.0299 H         1 UNK         0.0600 
    209 H209       -1.1684  -24.9178  -51.6135 H         1 UNK         0.0600 
    210 H210       -2.9724  -27.4685  -48.3022 H         1 UNK         0.3000 
    211 H211       -4.6068  -28.7470  -47.5926 H         1 UNK         0.0600 
    212 H212       -4.5541  -30.1674  -50.3048 H         1 UNK         0.0600 
    213 H213       -5.2437  -30.7832  -48.8114 H         1 UNK         0.0600 
    214 H214       -3.5092  -30.5393  -48.9341 H         1 UNK         0.0600 
    215 H215       -5.3703  -26.3115  -48.2397 H         1 UNK         0.3000 
    216 H216       -7.1465  -25.0344  -48.2039 H         1 UNK         0.0600 
    217 H217       -9.4335  -25.8780  -48.0125 H         1 UNK         0.0600 
    218 H218       -8.3746  -26.8637  -47.0179 H         1 UNK         0.0600 
    219 H219       -8.9568  -27.4744  -48.5667 H         1 UNK         0.0600 
    220 H220       -5.6593  -25.2128  -50.4525 H         1 UNK         0.3000 
    221 H221       -7.4033  -25.0247  -52.8208 H         1 UNK         0.0600 
    222 H222       -4.4717  -24.1934  -52.5020 H         1 UNK         0.0600 
    223 H223       -4.9716  -25.8393  -52.9051 H         1 UNK         0.0600 
    224 H224       -5.3280  -24.5161  -53.9990 H         1 UNK         0.0600 
    225 H225       -7.0474  -22.9102  -54.1365 H         1 UNK         0.3000 
    226 H226       -8.0011  -20.6156  -52.6551 H         1 UNK         0.0600 
    227 H227       -8.8493  -21.1678  -54.9135 H         1 UNK         0.0600 
    228 H228       -8.0783  -19.5906  -54.9255 H         1 UNK         0.0600 
    229 H229       -7.2355  -20.9804  -55.5998 H         1 UNK         0.0600 
    230 H230       -5.9439  -20.8764  -51.2951 H         1 UNK         0.3000 
    231 H231       -4.1025  -20.0089  -50.3976 H         1 UNK         0.0600 
    232 H232       -4.6622  -17.6578  -52.2581 H         1 UNK         0.0600 
    233 H233       -5.2228  -17.8687  -50.6032 H         1 UNK         0.0600 
    234 H234       -3.5145  -17.6251  -50.9268 H         1 UNK         0.0600 
    235 H235       -3.8941  -21.4979  -53.1063 H         1 UNK         0.3000 
    236 H236       -2.3554  -22.4021  -54.4084 H         1 UNK         0.0600 
    237 H237       -0.1258  -21.2272  -52.6737 H         1 UNK         0.0600 
    238 H238       -1.0261  -22.6743  -52.2358 H         1 UNK         0.0600 
    239 H239       -0.0545  -22.6499  -53.7008 H         1 UNK         0.0600 
    240 H240       -3.2736  -19.4905  -54.7183 H         1 UNK         0.3000 
    241 H241       -1.0614  -18.2333  -56.1506 H         1 UNK         0.0600 
    242 H242       -3.2739  -20.0587  -58.9372 H         1 UNK         0.3800 
    243 H243       -3.2998  -20.5406  -57.2602 H         1 UNK         0.3800 
    244 H244       -2.4788  -16.2547  -56.3118 H         1 UNK         0.0800 
    245 H245       -3.8889  -17.1578  -55.8200 H         1 UNK         0.0800 
    246 H246       -0.7885  -15.0283  -54.3881 H         1 UNK         0.0800 
    247 H247       -0.1949  -16.6439  -54.6845 H         1 UNK         0.0800 
@<TRIPOS>BOND
     1    1    2 1    
     2    1  127 1    
     3    1  128 1    
     4    1  129 1    
     5    2    3 2    
     6    2    4 am   BACKBONE|DICT|INTERRES
     7    4    5 1    
     8    4  130 1    
     9    5    6 1    
    10    5   65 1    
    11    5  131 1    
    12    6    7 1    
    13    6  132 1    
    14    6  133 1    
    15    7    8 1    
    16    8    9 1    
    17    8  134 1    
    18    8  135 1    
    19    9   10 ar   
    20    9   14 ar   
    21   10   11 ar   
    22   10  136 1    
    23   11   12 ar   
    24   11  126 1    
    25   12   13 ar   
    26   12  137 1    
    27   13   14 ar   
    28   13   15 1    
    29   14  138 1    
    30   15   16 1    
    31   15  139 1    
    32   15  140 1    
    33   16   17 1    
    34   17   18 1    
    35   17  141 1    
    36   17  142 1    
    37   18   19 1    
    38   18   67 1    
    39   18  143 1    
    40   19   20 am   BACKBONE|DICT|INTERRES
    41   19  144 1    
    42   20   21 2    
    43   20   22 1    
    44   22   23 1    
    45   22   24 1    
    46   22  145 1    
    47   23  146 1    
    48   23  147 1    
    49   23  148 1    
    50   24   25 am   BACKBONE|DICT|INTERRES
    51   24  149 1    
    52   25   26 2    
    53   25   27 1    
    54   27   28 1    
    55   27   29 1    
    56   27  150 1    
    57   28  151 1    
    58   28  152 1    
    59   28  153 1    
    60   29   30 am   BACKBONE|DICT|INTERRES
    61   29  154 1    
    62   30   31 2    
    63   30   32 1    
    64   32   33 1    
    65   32   34 1    
    66   32  155 1    
    67   33  156 1    
    68   33  157 1    
    69   33  158 1    
    70   34   35 am   BACKBONE|DICT|INTERRES
    71   34  159 1    
    72   35   36 2    
    73   35   37 1    
    74   37   38 1    
    75   37   39 1    
    76   37  160 1    
    77   38  161 1    
    78   38  162 1    
    79   38  163 1    
    80   39   40 am   BACKBONE|DICT|INTERRES
    81   39  164 1    
    82   40   41 2    
    83   40   42 1    
    84   42   43 1    
    85   42   44 1    
    86   42  165 1    
    87   43  166 1    
    88   43  167 1    
    89   43  168 1    
    90   44   45 am   BACKBONE|DICT|INTERRES
    91   44  169 1    
    92   45   46 2    
    93   45   47 1    
    94   47   48 1    
    95   47   49 1    
    96   47  170 1    
    97   48  171 1    
    98   48  172 1    
    99   48  173 1    
   100   49   50 am   BACKBONE|DICT|INTERRES
   101   49  174 1    
   102   50   51 2    
   103   50   52 1    
   104   52   53 1    
   105   52   54 1    
   106   52  175 1    
   107   53  176 1    
   108   53  177 1    
   109   53  178 1    
   110   54   55 am   BACKBONE|DICT|INTERRES
   111   54  179 1    
   112   55   56 2    
   113   55   57 1    
   114   57   58 1    
   115   57   59 1    
   116   57  180 1    
   117   58  181 1    
   118   58  182 1    
   119   58  183 1    
   120   59   60 am   BACKBONE|DICT|INTERRES
   121   59  184 1    
   122   60   61 2    
   123   60   62 1    
   124   62   63 1    
   125   62   64 1    
   126   62  185 1    
   127   63  186 1    
   128   63  187 1    
   129   63  188 1    
   130   64   65 am   BACKBONE|DICT|INTERRES
   131   64  189 1    
   132   65   66 2    
   133   67   68 2    
   134   67   69 am   BACKBONE|DICT|INTERRES
   135   69   70 1    
   136   69  190 1    
   137   70   71 1    
   138   70   72 1    
   139   70  191 1    
   140   71  192 1    
   141   71  193 1    
   142   71  194 1    
   143   72   73 2    
   144   72   74 am   BACKBONE|DICT|INTERRES
   145   74   75 1    
   146   74  195 1    
   147   75   76 1    
   148   75   77 1    
   149   75  196 1    
   150   76  197 1    
   151   76  198 1    
   152   76  199 1    
   153   77   78 2    
   154   77   79 am   BACKBONE|DICT|INTERRES
   155   79   80 1    
   156   79  200 1    
   157   80   81 1    
   158   80   82 1    
   159   80  201 1    
   160   81  202 1    
   161   81  203 1    
   162   81  204 1    
   163   82   83 2    
   164   82   84 am   BACKBONE|DICT|INTERRES
   165   84   85 1    
   166   84  205 1    
   167   85   86 1    
   168   85   87 1    
   169   85  206 1    
   170   86  207 1    
   171   86  208 1    
   172   86  209 1    
   173   87   88 2    
   174   87   89 am   BACKBONE|DICT|INTERRES
   175   89   90 1    
   176   89  210 1    
   177   90   91 1    
   178   90   92 1    
   179   90  211 1    
   180   91  212 1    
   181   91  213 1    
   182   91  214 1    
   183   92   93 2    
   184   92   94 am   BACKBONE|DICT|INTERRES
   185   94   95 1    
   186   94  215 1    
   187   95   96 1    
   188   95   97 1    
   189   95  216 1    
   190   96  217 1    
   191   96  218 1    
   192   96  219 1    
   193   97   98 2    
   194   97   99 am   BACKBONE|DICT|INTERRES
   195   99  100 1    
   196   99  220 1    
   197  100  101 1    
   198  100  102 1    
   199  100  221 1    
   200  101  222 1    
   201  101  223 1    
   202  101  224 1    
   203  102  103 2    
   204  102  104 am   BACKBONE|DICT|INTERRES
   205  104  105 1    
   206  104  225 1    
   207  105  106 1    
   208  105  107 1    
   209  105  226 1    
   210  106  227 1    
   211  106  228 1    
   212  106  229 1    
   213  107  108 2    
   214  107  109 am   BACKBONE|DICT|INTERRES
   215  109  110 1    
   216  109  230 1    
   217  110  111 1    
   218  110  112 1    
   219  110  231 1    
   220  111  232 1    
   221  111  233 1    
   222  111  234 1    
   223  112  113 2    
   224  112  114 am   BACKBONE|DICT|INTERRES
   225  114  115 1    
   226  114  235 1    
   227  115  116 1    
   228  115  117 1    
   229  115  236 1    
   230  116  237 1    
   231  116  238 1    
   232  116  239 1    
   233  117  118 2    
   234  117  119 am   BACKBONE|DICT|INTERRES
   235  119  120 1    
   236  119  240 1    
   237  120  121 1    
   238  120  124 1    
   239  120  241 1    
   240  121  122 am   BACKBONE|DICT|INTERRES
   241  121  123 2    
   242  122  242 1    
   243  122  243 1    
   244  124  125 1    
   245  124  244 1    
   246  124  245 1    
   247  125  126 1    
   248  126  246 1    
   249  126  247 1    
@<TRIPOS>SUBSTRUCTURE
     1 UNK         1 GROUP             0       ****    0 ROOT    
