@<TRIPOS>MOLECULE
3R540
247   249    1
SMALL
USER_CHARGES


@<TRIPOS>ATOM
      1 CA         -0.1556  -14.8341  -50.5020 C.3       0 UNK        -0.1800 
      2 C           1.3088  -14.4194  -50.4811 C.2       0 UNK         0.5000 
      3 O           1.7473  -13.6634  -51.3489 O.2       0 UNK        -0.5000 
      4 N           2.0653  -14.9180  -49.4981 N.am      1 UNK        -0.5000 
      5 CA          3.4723  -14.5866  -49.2607 C.3       1 UNK         0.1400 
      6 C6          4.1628  -15.6553  -48.3762 C.3       23 UNK        -0.0398 
      7 S7          3.3801  -15.8848  -46.7386 S.3       23 UNK        -0.2404 
      8 C8          2.8633  -17.6245  -46.8190 C.3       23 UNK        -0.0205 
      9 C9          1.6919  -17.8394  -47.7646 C.ar      23 UNK        -0.0193 
     10 C10         0.3916  -17.5153  -47.3621 C.ar      23 UNK        -0.1150 
     11 C11        -0.6898  -17.7546  -48.2139 C.ar      23 UNK        -0.0193 
     12 C12        -0.4594  -18.2986  -49.4762 C.ar      23 UNK        -0.1150 
     13 C13         0.8258  -18.6547  -49.8789 C.ar      23 UNK        -0.0193 
     14 C14         1.9022  -18.4141  -49.0225 C.ar      23 UNK        -0.1150 
     15 C15         1.0396  -19.3173  -51.2287 C.3       23 UNK        -0.0205 
     16 S16         1.1146  -21.1319  -51.0852 S.3       23 UNK        -0.2404 
     17 C17        -0.6017  -21.5891  -50.6496 C.3       23 UNK        -0.0398 
     18 CA         -0.6534  -22.5329  -49.4253 C.3       11 UNK         0.1400 
     19 N          -0.1366  -21.9270  -48.1884 N.am      11 UNK        -0.5000 
     20 C           0.3308  -22.6500  -47.1594 C.2       10 UNK         0.5000 
     21 O           0.3703  -23.8798  -47.1580 O.2       10 UNK        -0.5000 
     22 CA          0.7573  -21.8891  -45.8919 C.3       10 UNK         0.1400 
     23 CB          2.0308  -21.0705  -46.1339 C.3       10 UNK        -0.1800 
     24 N          -0.3046  -21.0375  -45.3459 N.am      10 UNK        -0.5000 
     25 C          -1.4765  -21.5152  -44.8920 C.2       9 UNK         0.5000 
     26 O          -1.7914  -22.7020  -44.9844 O.2       9 UNK        -0.5000 
     27 CA         -2.4640  -20.5452  -44.2151 C.3       9 UNK         0.1400 
     28 CB         -2.9805  -21.1059  -42.8757 C.3       9 UNK        -0.1800 
     29 N          -1.8908  -19.2192  -44.0085 N.am      9 UNK        -0.5000 
     30 C          -2.5762  -18.0787  -43.9116 C.2       8 UNK         0.5000 
     31 O          -3.8071  -18.0315  -43.9459 O.2       8 UNK        -0.5000 
     32 CA         -1.7551  -16.7736  -43.7657 C.3       8 UNK         0.1400 
     33 CB         -2.6195  -15.5907  -43.2947 C.3       8 UNK        -0.1800 
     34 N          -0.5557  -16.8531  -42.9196 N.am      8 UNK        -0.5000 
     35 C           0.5775  -17.5180  -43.1886 C.2       7 UNK         0.5000 
     36 O           0.6892  -18.3070  -44.1287 O.2       7 UNK        -0.5000 
     37 CA          1.7758  -17.2735  -42.2537 C.3       7 UNK         0.1400 
     38 CB          3.1317  -17.4748  -42.9573 C.3       7 UNK        -0.1800 
     39 N           1.7367  -15.9381  -41.6542 N.am      7 UNK        -0.5000 
     40 C           2.1764  -15.6525  -40.4202 C.2       6 UNK         0.5000 
     41 O           2.6058  -16.5044  -39.6406 O.2       6 UNK        -0.5000 
     42 CA          2.1544  -14.1787  -39.9636 C.3       6 UNK         0.1400 
     43 CB          3.5728  -13.5893  -39.9824 C.3       6 UNK        -0.1800 
     44 N           1.2743  -13.3219  -40.7579 N.am      6 UNK        -0.5000 
     45 C          -0.0644  -13.3674  -40.7180 C.2       5 UNK         0.5000 
     46 O          -0.6972  -14.1324  -39.9896 O.2       5 UNK        -0.5000 
     47 CA         -0.8347  -12.4174  -41.6566 C.3       5 UNK         0.1400 
     48 CB         -1.2666  -11.1562  -40.8929 C.3       5 UNK        -0.1800 
     49 N          -0.1140  -12.0078  -42.8659 N.am      5 UNK        -0.5000 
     50 C           0.4568  -12.8050  -43.7811 C.2       4 UNK         0.5000 
     51 O           0.5013  -14.0325  -43.6912 O.2       4 UNK        -0.5000 
     52 CA          1.1222  -12.1176  -44.9910 C.3       4 UNK         0.1400 
     53 CB          0.8894  -10.5920  -45.0640 C.3       4 UNK        -0.1800 
     54 N           2.5555  -12.3988  -45.0722 N.am      4 UNK        -0.5000 
     55 C           3.4809  -12.2376  -44.1120 C.2       3 UNK         0.5000 
     56 O           3.2272  -11.8712  -42.9630 O.2       3 UNK        -0.5000 
     57 CA          4.9479  -12.5110  -44.5052 C.3       3 UNK         0.1400 
     58 CB          5.3887  -13.9012  -44.0212 C.3       3 UNK        -0.1800 
     59 N           5.1841  -12.4044  -45.9481 N.am      3 UNK        -0.5000 
     60 C           5.1682  -11.2543  -46.6398 C.2       2 UNK         0.5000 
     61 O           5.0565  -10.1464  -46.1139 O.2       2 UNK        -0.5000 
     62 CA          5.2737  -11.3498  -48.1772 C.3       2 UNK         0.1400 
     63 CB          6.7052  -11.0331  -48.6368 C.3       2 UNK        -0.1800 
     64 N           4.8736  -12.6480  -48.7321 N.am      2 UNK        -0.5000 
     65 C           3.6410  -13.1713  -48.6639 C.2       1 UNK         0.5000 
     66 O           2.6940  -12.6084  -48.1080 O.2       1 UNK        -0.5000 
     67 C          -2.0632  -23.1326  -49.2346 C.2       11 UNK         0.5000 
     68 O          -2.4481  -24.0131  -50.0060 O.2       11 UNK        -0.5000 
     69 N          -2.7942  -22.7086  -48.1914 N.am      12 UNK        -0.5000 
     70 CA         -4.0567  -23.3331  -47.7858 C.3       12 UNK         0.1400 
     71 CB         -4.7671  -22.4861  -46.7208 C.3       12 UNK        -0.1800 
     72 C          -3.8628  -24.7859  -47.3093 C.2       12 UNK         0.5000 
     73 O          -4.7243  -25.6266  -47.5628 O.2       12 UNK        -0.5000 
     74 N          -2.7165  -25.0600  -46.6745 N.am      13 UNK        -0.5000 
     75 CA         -2.2641  -26.4020  -46.3325 C.3       13 UNK         0.1400 
     76 CB         -1.3572  -26.3325  -45.0927 C.3       13 UNK        -0.1800 
     77 C          -1.5428  -27.0637  -47.5207 C.2       13 UNK         0.5000 
     78 O          -1.9772  -28.1183  -47.9841 O.2       13 UNK        -0.5000 
     79 N          -0.4500  -26.4416  -47.9872 N.am      14 UNK        -0.5000 
     80 CA          0.5190  -27.0360  -48.9135 C.3       14 UNK         0.1400 
     81 CB          1.7815  -26.1617  -48.9618 C.3       14 UNK        -0.1800 
     82 C          -0.0098  -27.2877  -50.3360 C.2       14 UNK         0.5000 
     83 O           0.3997  -28.2676  -50.9598 O.2       14 UNK        -0.5000 
     84 N          -0.9025  -26.4163  -50.8204 N.am      15 UNK        -0.5000 
     85 CA         -1.5419  -26.5218  -52.1345 C.3       15 UNK         0.1400 
     86 CB         -1.2870  -25.2253  -52.9260 C.3       15 UNK        -0.1800 
     87 C          -3.0470  -26.8168  -52.0002 C.2       15 UNK         0.5000 
     88 O          -3.7801  -26.6658  -52.9778 O.2       15 UNK        -0.5000 
     89 N          -3.4959  -27.1945  -50.7913 N.am      16 UNK        -0.5000 
     90 CA         -4.8799  -27.5141  -50.4147 C.3       16 UNK         0.1400 
     91 CB         -5.3099  -28.8453  -51.0650 C.3       16 UNK        -0.1800 
     92 C          -5.8864  -26.3725  -50.6911 C.2       16 UNK         0.5000 
     93 O          -7.0726  -26.6381  -50.8921 O.2       16 UNK        -0.5000 
     94 N          -5.3841  -25.1276  -50.7266 N.am      17 UNK        -0.5000 
     95 CA         -6.0850  -23.8880  -51.0745 C.3       17 UNK         0.1400 
     96 CB         -7.2380  -23.5987  -50.0882 C.3       17 UNK        -0.1800 
     97 C          -6.5531  -23.8183  -52.5438 C.2       17 UNK         0.5000 
     98 O          -7.3609  -22.9474  -52.8680 O.2       17 UNK        -0.5000 
     99 N          -6.0257  -24.6852  -53.4242 N.am      18 UNK        -0.5000 
    100 CA        -6.4013  -24.7628  -54.8419 C.3       18 UNK         0.1400 
    101 CB        -5.7605  -26.0081  -55.4718 C.3       18 UNK        -0.1800 
    102 C         -6.0357  -23.5016  -55.6491 C.2       18 UNK         0.5000 
    103 O         -6.7125  -23.1862  -56.6283 O.2       18 UNK        -0.5000 
    104 N         -4.9906  -22.7907  -55.2051 N.am      19 UNK        -0.5000 
    105 CA        -4.5632  -21.5010  -55.7478 C.3       19 UNK         0.1400 
    106 CB        -3.1063  -21.2539  -55.3216 C.3       19 UNK        -0.1800 
    107 C         -5.4546  -20.3243  -55.2971 C.2       19 UNK         0.5000 
    108 O         -5.3798  -19.2555  -55.9031 O.2       19 UNK        -0.5000 
    109 N         -6.2403  -20.5227  -54.2239 N.am      20 UNK        -0.5000 
    110 CA        -7.1073  -19.5492  -53.5411 C.3       20 UNK         0.1400 
    111 CB        -8.2581  -19.1018  -54.4650 C.3       20 UNK        -0.1800 
    112 C         -6.3530  -18.3497  -52.9204 C.2       20 UNK         0.5000 
    113 O         -6.9769  -17.3457  -52.5720 O.2       20 UNK        -0.5000 
    114 N         -5.0265  -18.4766  -52.7770 N.am      21 UNK        -0.5000 
    115 CA        -4.0953  -17.4134  -52.3946 C.3       21 UNK         0.1400 
    116 CB        -2.6620  -17.9380  -52.5686 C.3       21 UNK        -0.1800 
    117 C         -4.3110  -16.8412  -50.9805 C.2       21 UNK         0.5000 
    118 O         -4.0082  -15.6689  -50.7566 O.2       21 UNK        -0.5000 
    119 N         -4.8409  -17.6631  -50.0664 N.am      22 UNK        -0.5000 
    120 CA        -5.2276  -17.2601  -48.7021 C.3       22 UNK         0.1400 
    121 C         -6.7252  -16.8473  -48.5800 C.2       22 UNK         0.5000 
    122 N         -7.4999  -16.7884  -49.6580 N.am      22 UNK        -0.7600 
    123 O         -7.1964  -16.5584  -47.4837 O.2       22 UNK        -0.5000 
    124 C124       -4.8371  -18.3233  -47.6353 C.3       23 UNK        -0.0398 
    125 S125       -3.1224  -18.9570  -47.7296 S.3       23 UNK        -0.2404 
    126 C126       -2.1163  -17.4361  -47.8053 C.3       23 UNK        -0.0205 
    127 H127       -0.7863  -13.9938  -50.7920 H         1 UNK         0.0600 
    128 H128       -0.4869  -15.1780  -49.5224 H         1 UNK         0.0600 
    129 H129       -0.3066  -15.6402  -51.2192 H         1 UNK         0.0600 
    130 H130        1.6477  -15.5233  -48.8048 H         1 UNK         0.3000 
    131 H131        3.9772  -14.5867  -50.2292 H         1 UNK         0.0600 
    132 H132        4.1762  -16.6051  -48.9107 H         1 UNK         0.0800 
    133 H133        5.2142  -15.4097  -48.2188 H         1 UNK         0.0800 
    134 H134        2.5806  -17.9520  -45.8205 H         1 UNK         0.0800 
    135 H135        3.7138  -18.2455  -47.1043 H         1 UNK         0.0800 
    136 H136        0.2285  -17.0845  -46.3854 H         1 UNK         0.1150 
    137 H137       -1.2986  -18.4698  -50.1311 H         1 UNK         0.1150 
    138 H138        2.8998  -18.6949  -49.3295 H         1 UNK         0.1150 
    139 H139        0.2501  -19.0374  -51.9278 H         1 UNK         0.0800 
    140 H140        1.9730  -18.9590  -51.6651 H         1 UNK         0.0800 
    141 H141       -1.0287  -22.0799  -51.5262 H         1 UNK         0.0800 
    142 H142       -1.2135  -20.7057  -50.4785 H         1 UNK         0.0800 
    143 H143       -0.0108  -23.3817  -49.6677 H         1 UNK         0.0600 
    144 H144       -0.1409  -20.9183  -48.1309 H         1 UNK         0.3000 
    145 H145        0.9913  -22.6345  -45.1286 H         1 UNK         0.0600 
    146 H146        2.3220  -20.5105  -45.2449 H         1 UNK         0.0600 
    147 H147        2.8649  -21.7209  -46.3993 H         1 UNK         0.0600 
    148 H148        1.8992  -20.3669  -46.9513 H         1 UNK         0.0600 
    149 H149       -0.0907  -20.0526  -45.2620 H         1 UNK         0.3000 
    150 H150       -3.3090  -20.4501  -44.8993 H         1 UNK         0.0600 
    151 H151       -3.4454  -22.0836  -43.0082 H         1 UNK         0.0600 
    152 H152       -3.7332  -20.4527  -42.4344 H         1 UNK         0.0600 
    153 H153       -2.1712  -21.2201  -42.1538 H         1 UNK         0.0600 
    154 H154       -0.8768  -19.1492  -43.9747 H         1 UNK         0.3000 
    155 H155       -1.4075  -16.5252  -44.7677 H         1 UNK         0.0600 
    156 H156       -2.9326  -15.7076  -42.2567 H         1 UNK         0.0600 
    157 H157       -3.5177  -15.4798  -43.9034 H         1 UNK         0.0600 
    158 H158       -2.0722  -14.6556  -43.3835 H         1 UNK         0.0600 
    159 H159       -0.5618  -16.2635  -42.1002 H         1 UNK         0.3000 
    160 H160        1.6854  -18.0280  -41.4699 H         1 UNK         0.0600 
    161 H161        3.2757  -16.7451  -43.7542 H         1 UNK         0.0600 
    162 H162        3.2094  -18.4697  -43.3972 H         1 UNK         0.0600 
    163 H163        3.9599  -17.3692  -42.2566 H         1 UNK         0.0600 
    164 H164        1.3882  -15.1919  -42.2504 H         1 UNK         0.3000 
    165 H165        1.7984  -14.1649  -38.9313 H         1 UNK         0.0600 
    166 H166        3.5802  -12.5624  -39.6166 H         1 UNK         0.0600 
    167 H167        4.2454  -14.1659  -39.3461 H         1 UNK         0.0600 
    168 H168        3.9927  -13.5904  -40.9877 H         1 UNK         0.0600 
    169 H169        1.7225  -12.6895  -41.4102 H         1 UNK         0.3000 
    170 H170       -1.7387  -12.9375  -41.9730 H         1 UNK         0.0600 
    171 H171       -1.8328  -11.4147  -39.9969 H         1 UNK         0.0600 
    172 H172       -0.4066  -10.5636  -40.5781 H         1 UNK         0.0600 
    173 H173       -1.9066  -10.5217  -41.5062 H         1 UNK         0.0600 
    174 H174       -0.0569  -11.0122  -43.0226 H         1 UNK         0.3000 
    175 H175        0.6715  -12.5646  -45.8782 H         1 UNK         0.0600 
    176 H176        1.3427  -10.0655  -44.2232 H         1 UNK         0.0600 
    177 H177        1.3218  -10.1810  -45.9766 H         1 UNK         0.0600 
    178 H178       -0.1745  -10.3521  -45.0814 H         1 UNK         0.0600 
    179 H179        2.8689  -12.7028  -45.9862 H         1 UNK         0.3000 
    180 H180        5.5672  -11.7651  -44.0026 H         1 UNK         0.0600 
    181 H181        4.7739  -14.6928  -44.4482 H         1 UNK         0.0600 
    182 H182        5.3105  -13.9795  -42.9369 H         1 UNK         0.0600 
    183 H183        6.4273  -14.1019  -44.2846 H         1 UNK         0.0600 
    184 H184        5.2897  -13.2699  -46.4555 H         1 UNK         0.3000 
    185 H185        4.6063  -10.5922  -48.5931 H         1 UNK         0.0600 
    186 H186        7.0277  -10.0580  -48.2692 H         1 UNK         0.0600 
    187 H187        7.4181  -11.7734  -48.2713 H         1 UNK         0.0600 
    188 H188        6.7746  -11.0065  -49.7245 H         1 UNK         0.0600 
    189 H189        5.6014  -13.1683  -49.2008 H         1 UNK         0.3000 
    190 H190       -2.4162  -21.9939  -47.5879 H         1 UNK         0.3000 
    191 H191       -4.6964  -23.3542  -48.6649 H         1 UNK         0.0600 
    192 H192       -4.2549  -22.5216  -45.7612 H         1 UNK         0.0600 
    193 H193       -5.7804  -22.8536  -46.5547 H         1 UNK         0.0600 
    194 H194       -4.8472  -21.4442  -47.0271 H         1 UNK         0.0600 
    195 H195       -2.0879  -24.2967  -46.4521 H         1 UNK         0.3000 
    196 H196       -3.1266  -27.0212  -46.0760 H         1 UNK         0.0600 
    197 H197       -0.9863  -27.3221  -44.8231 H         1 UNK         0.0600 
    198 H198       -1.9023  -25.9433  -44.2325 H         1 UNK         0.0600 
    199 H199       -0.4923  -25.6879  -45.2527 H         1 UNK         0.0600 
    200 H200       -0.1795  -25.5488  -47.5773 H         1 UNK         0.3000 
    201 H201        0.8045  -28.0064  -48.5018 H         1 UNK         0.0600 
    202 H202        2.2136  -26.0367  -47.9687 H         1 UNK         0.0600 
    203 H203        1.5708  -25.1699  -49.3620 H         1 UNK         0.0600 
    204 H204        2.5467  -26.6138  -49.5940 H         1 UNK         0.0600 
    205 H205       -1.2170  -25.6453  -50.2422 H         1 UNK         0.3000 
    206 H206       -1.1158  -27.3480  -52.7064 H         1 UNK         0.0600 
    207 H207       -0.2225  -24.9967  -52.9766 H         1 UNK         0.0600 
    208 H208       -1.6463  -25.3175  -53.9517 H         1 UNK         0.0600 
    209 H209       -1.7929  -24.3686  -52.4824 H         1 UNK         0.0600 
    210 H210       -2.8145  -27.2946  -50.0504 H         1 UNK         0.3000 
    211 H211       -4.8754  -27.6619  -49.3342 H         1 UNK         0.0600 
    212 H212       -5.3964  -28.7557  -52.1484 H         1 UNK         0.0600 
    213 H213       -6.2777  -29.1743  -50.6851 H         1 UNK         0.0600 
    214 H214       -4.5936  -29.6382  -50.8498 H         1 UNK         0.0600 
    215 H215       -4.3907  -25.0269  -50.5536 H         1 UNK         0.3000 
    216 H216       -5.3476  -23.0922  -50.9627 H         1 UNK         0.0600 
    217 H217       -7.5919  -22.5725  -50.1934 H         1 UNK         0.0600 
    218 H218       -6.9304  -23.7305  -49.0517 H         1 UNK         0.0600 
    219 H219       -8.0920  -24.2536  -50.2632 H         1 UNK         0.0600 
    220 H220       -5.3455  -25.3671  -53.1026 H         1 UNK         0.3000 
    221 H221       -7.4861  -24.8784  -54.8900 H         1 UNK         0.0600 
    222 H222       -4.6717  -25.9443  -55.4689 H         1 UNK         0.0600 
    223 H223       -6.0444  -26.9134  -54.9345 H         1 UNK         0.0600 
    224 H224       -6.0793  -26.1304  -56.5077 H         1 UNK         0.0600 
    225 H225       -4.4820  -23.1429  -54.4077 H         1 UNK         0.3000 
    226 H226       -4.6006  -21.5465  -56.8382 H         1 UNK         0.0600 
    227 H227       -2.7335  -20.3120  -55.7267 H         1 UNK         0.0600 
    228 H228       -3.0034  -21.2075  -54.2367 H         1 UNK         0.0600 
    229 H229       -2.4496  -22.0439  -55.6868 H         1 UNK         0.0600 
    230 H230       -6.2824  -21.4581  -53.8364 H         1 UNK         0.3000 
    231 H231       -7.5529  -20.0845  -52.7015 H         1 UNK         0.0600 
    232 H232       -8.7858  -19.9608  -54.8795 H         1 UNK         0.0600 
    233 H233       -7.8989  -18.4946  -55.2963 H         1 UNK         0.0600 
    234 H234       -8.9907  -18.5060  -53.9193 H         1 UNK         0.0600 
    235 H235       -4.6114  -19.3442  -53.0790 H         1 UNK         0.3000 
    236 H236       -4.2383  -16.5870  -53.0939 H         1 UNK         0.0600 
    237 H237       -1.9278  -17.2054  -52.2318 H         1 UNK         0.0600 
    238 H238       -2.5019  -18.8576  -52.0058 H         1 UNK         0.0600 
    239 H239       -2.4479  -18.1505  -53.6163 H         1 UNK         0.0600 
    240 H240       -5.0664  -18.6085  -50.3363 H         1 UNK         0.3000 
    241 H241       -4.6941  -16.3460  -48.4411 H         1 UNK         0.0600 
    242 H242       -7.1393  -16.9827  -50.5855 H         1 UNK         0.3800 
    243 H243       -8.4633  -16.5121  -49.5529 H         1 UNK         0.3800 
    244 H244       -4.9832  -17.9200  -46.6315 H         1 UNK         0.0800 
    245 H245       -5.5038  -19.1832  -47.7112 H         1 UNK         0.0800 
    246 H246       -2.5152  -16.7443  -48.5449 H         1 UNK         0.0800 
    247 H247       -2.1551  -16.9223  -46.8471 H         1 UNK         0.0800 
@<TRIPOS>BOND
     1    1    2 1    
     2    1  127 1    
     3    1  128 1    
     4    1  129 1    
     5    2    3 2    
     6    2    4 am   BACKBONE|DICT|INTERRES
     7    4    5 1    
     8    4  130 1    
     9    5    6 1    
    10    5   65 1    
    11    5  131 1    
    12    6    7 1    
    13    6  132 1    
    14    6  133 1    
    15    7    8 1    
    16    8    9 1    
    17    8  134 1    
    18    8  135 1    
    19    9   10 ar   
    20    9   14 ar   
    21   10   11 ar   
    22   10  136 1    
    23   11   12 ar   
    24   11  126 1    
    25   12   13 ar   
    26   12  137 1    
    27   13   14 ar   
    28   13   15 1    
    29   14  138 1    
    30   15   16 1    
    31   15  139 1    
    32   15  140 1    
    33   16   17 1    
    34   17   18 1    
    35   17  141 1    
    36   17  142 1    
    37   18   19 1    
    38   18   67 1    
    39   18  143 1    
    40   19   20 am   BACKBONE|DICT|INTERRES
    41   19  144 1    
    42   20   21 2    
    43   20   22 1    
    44   22   23 1    
    45   22   24 1    
    46   22  145 1    
    47   23  146 1    
    48   23  147 1    
    49   23  148 1    
    50   24   25 am   BACKBONE|DICT|INTERRES
    51   24  149 1    
    52   25   26 2    
    53   25   27 1    
    54   27   28 1    
    55   27   29 1    
    56   27  150 1    
    57   28  151 1    
    58   28  152 1    
    59   28  153 1    
    60   29   30 am   BACKBONE|DICT|INTERRES
    61   29  154 1    
    62   30   31 2    
    63   30   32 1    
    64   32   33 1    
    65   32   34 1    
    66   32  155 1    
    67   33  156 1    
    68   33  157 1    
    69   33  158 1    
    70   34   35 am   BACKBONE|DICT|INTERRES
    71   34  159 1    
    72   35   36 2    
    73   35   37 1    
    74   37   38 1    
    75   37   39 1    
    76   37  160 1    
    77   38  161 1    
    78   38  162 1    
    79   38  163 1    
    80   39   40 am   BACKBONE|DICT|INTERRES
    81   39  164 1    
    82   40   41 2    
    83   40   42 1    
    84   42   43 1    
    85   42   44 1    
    86   42  165 1    
    87   43  166 1    
    88   43  167 1    
    89   43  168 1    
    90   44   45 am   BACKBONE|DICT|INTERRES
    91   44  169 1    
    92   45   46 2    
    93   45   47 1    
    94   47   48 1    
    95   47   49 1    
    96   47  170 1    
    97   48  171 1    
    98   48  172 1    
    99   48  173 1    
   100   49   50 am   BACKBONE|DICT|INTERRES
   101   49  174 1    
   102   50   51 2    
   103   50   52 1    
   104   52   53 1    
   105   52   54 1    
   106   52  175 1    
   107   53  176 1    
   108   53  177 1    
   109   53  178 1    
   110   54   55 am   BACKBONE|DICT|INTERRES
   111   54  179 1    
   112   55   56 2    
   113   55   57 1    
   114   57   58 1    
   115   57   59 1    
   116   57  180 1    
   117   58  181 1    
   118   58  182 1    
   119   58  183 1    
   120   59   60 am   BACKBONE|DICT|INTERRES
   121   59  184 1    
   122   60   61 2    
   123   60   62 1    
   124   62   63 1    
   125   62   64 1    
   126   62  185 1    
   127   63  186 1    
   128   63  187 1    
   129   63  188 1    
   130   64   65 am   BACKBONE|DICT|INTERRES
   131   64  189 1    
   132   65   66 2    
   133   67   68 2    
   134   67   69 am   BACKBONE|DICT|INTERRES
   135   69   70 1    
   136   69  190 1    
   137   70   71 1    
   138   70   72 1    
   139   70  191 1    
   140   71  192 1    
   141   71  193 1    
   142   71  194 1    
   143   72   73 2    
   144   72   74 am   BACKBONE|DICT|INTERRES
   145   74   75 1    
   146   74  195 1    
   147   75   76 1    
   148   75   77 1    
   149   75  196 1    
   150   76  197 1    
   151   76  198 1    
   152   76  199 1    
   153   77   78 2    
   154   77   79 am   BACKBONE|DICT|INTERRES
   155   79   80 1    
   156   79  200 1    
   157   80   81 1    
   158   80   82 1    
   159   80  201 1    
   160   81  202 1    
   161   81  203 1    
   162   81  204 1    
   163   82   83 2    
   164   82   84 am   BACKBONE|DICT|INTERRES
   165   84   85 1    
   166   84  205 1    
   167   85   86 1    
   168   85   87 1    
   169   85  206 1    
   170   86  207 1    
   171   86  208 1    
   172   86  209 1    
   173   87   88 2    
   174   87   89 am   BACKBONE|DICT|INTERRES
   175   89   90 1    
   176   89  210 1    
   177   90   91 1    
   178   90   92 1    
   179   90  211 1    
   180   91  212 1    
   181   91  213 1    
   182   91  214 1    
   183   92   93 2    
   184   92   94 am   BACKBONE|DICT|INTERRES
   185   94   95 1    
   186   94  215 1    
   187   95   96 1    
   188   95   97 1    
   189   95  216 1    
   190   96  217 1    
   191   96  218 1    
   192   96  219 1    
   193   97   98 2    
   194   97   99 am   BACKBONE|DICT|INTERRES
   195   99  100 1    
   196   99  220 1    
   197  100  101 1    
   198  100  102 1    
   199  100  221 1    
   200  101  222 1    
   201  101  223 1    
   202  101  224 1    
   203  102  103 2    
   204  102  104 am   BACKBONE|DICT|INTERRES
   205  104  105 1    
   206  104  225 1    
   207  105  106 1    
   208  105  107 1    
   209  105  226 1    
   210  106  227 1    
   211  106  228 1    
   212  106  229 1    
   213  107  108 2    
   214  107  109 am   BACKBONE|DICT|INTERRES
   215  109  110 1    
   216  109  230 1    
   217  110  111 1    
   218  110  112 1    
   219  110  231 1    
   220  111  232 1    
   221  111  233 1    
   222  111  234 1    
   223  112  113 2    
   224  112  114 am   BACKBONE|DICT|INTERRES
   225  114  115 1    
   226  114  235 1    
   227  115  116 1    
   228  115  117 1    
   229  115  236 1    
   230  116  237 1    
   231  116  238 1    
   232  116  239 1    
   233  117  118 2    
   234  117  119 am   BACKBONE|DICT|INTERRES
   235  119  120 1    
   236  119  240 1    
   237  120  121 1    
   238  120  124 1    
   239  120  241 1    
   240  121  122 am   BACKBONE|DICT|INTERRES
   241  121  123 2    
   242  122  242 1    
   243  122  243 1    
   244  124  125 1    
   245  124  244 1    
   246  124  245 1    
   247  125  126 1    
   248  126  246 1    
   249  126  247 1    
@<TRIPOS>SUBSTRUCTURE
     1 UNK         1 GROUP             0       ****    0 ROOT    
