@<TRIPOS>MOLECULE
3R540
247   249    1
SMALL
USER_CHARGES


@<TRIPOS>ATOM
      1 CA          3.7970  -12.3025  -49.9438 C.3       0 UNK        -0.1800 
      2 C           3.3566  -12.6313  -48.5252 C.2       0 UNK         0.5000 
      3 O           3.9249  -13.5229  -47.8955 O.2       0 UNK        -0.5000 
      4 N           2.3562  -11.9082  -48.0079 N.am      1 UNK        -0.5000 
      5 CA          1.7314  -12.1132  -46.6932 C.3       1 UNK         0.1400 
      6 C6          0.2685  -11.5934  -46.6567 C.3       23 UNK        -0.0398 
      7 S7         -0.7704  -12.2742  -47.9919 S.3       23 UNK        -0.2404 
      8 C8         -1.1579  -13.9191  -47.3202 C.3       23 UNK        -0.0205 
      9 C9         -1.0486  -14.9880  -48.3948 C.ar      23 UNK        -0.0193 
     10 C10        -2.1904  -15.6523  -48.8551 C.ar      23 UNK        -0.1150 
     11 C11        -2.0827  -16.6638  -49.8143 C.ar      23 UNK        -0.0193 
     12 C12        -0.8268  -16.9808  -50.3374 C.ar      23 UNK        -0.1150 
     13 C13         0.3237  -16.3306  -49.8799 C.ar      23 UNK        -0.0193 
     14 C14         0.2063  -15.3384  -48.9038 C.ar      23 UNK        -0.1150 
     15 C15         1.6915  -16.7103  -50.4324 C.3       23 UNK        -0.0205 
     16 S16         2.4990  -18.0151  -49.4462 S.3       23 UNK        -0.2404 
     17 C17         1.2692  -19.3514  -49.5846 C.3       23 UNK        -0.0398 
     18 CA          1.7809  -20.7427  -49.1473 C.3       11 UNK         0.1400 
     19 N           2.0666  -20.8255  -47.7150 N.am      11 UNK        -0.5000 
     20 C           2.7197  -21.8362  -47.1250 C.2       10 UNK         0.5000 
     21 O           3.2140  -22.7837  -47.7375 O.2       10 UNK        -0.5000 
     22 CA          2.8258  -21.7977  -45.5886 C.3       10 UNK         0.1400 
     23 CB          4.0273  -20.9521  -45.1396 C.3       10 UNK        -0.1800 
     24 N           1.6074  -21.3006  -44.9500 N.am      10 UNK        -0.5000 
     25 C           0.4280  -21.9372  -44.9757 C.2       9 UNK         0.5000 
     26 O           0.2459  -23.0375  -45.4974 O.2       9 UNK        -0.5000 
     27 CA         -0.7652  -21.2058  -44.3430 C.3       9 UNK         0.1400 
     28 CB         -0.7756  -21.3873  -42.8187 C.3       9 UNK        -0.1800 
     29 N          -0.8091  -19.7812  -44.6746 N.am      9 UNK        -0.5000 
     30 C          -0.9366  -19.2802  -45.9124 C.2       8 UNK         0.5000 
     31 O          -1.0711  -19.9695  -46.9242 O.2       8 UNK        -0.5000 
     32 CA         -0.8627  -17.7508  -46.0502 C.3       8 UNK         0.1400 
     33 CB         -2.1967  -17.1108  -45.6368 C.3       8 UNK        -0.1800 
     34 N           0.2377  -17.1649  -45.2818 N.am      8 UNK        -0.5000 
     35 C           1.5276  -17.5020  -45.4354 C.2       7 UNK         0.5000 
     36 O           1.9275  -18.3291  -46.2508 O.2       7 UNK        -0.5000 
     37 CA          2.5319  -16.8735  -44.4594 C.3       7 UNK         0.1400 
     38 CB          2.8920  -15.4385  -44.8704 C.3       7 UNK        -0.1800 
     39 N           2.0290  -16.9085  -43.0867 N.am      7 UNK        -0.5000 
     40 C           1.8831  -18.0377  -42.3769 C.2       6 UNK         0.5000 
     41 O           2.2470  -19.1463  -42.7704 O.2       6 UNK        -0.5000 
     42 CA          1.1540  -17.9152  -41.0279 C.3       6 UNK         0.1400 
     43 CB          2.1359  -17.5793  -39.8967 C.3       6 UNK        -0.1800 
     44 N           0.0812  -16.9188  -41.0753 N.am      6 UNK        -0.5000 
     45 C          -1.0709  -17.1103  -41.7355 C.2       5 UNK         0.5000 
     46 O          -1.3406  -18.1498  -42.3357 O.2       5 UNK        -0.5000 
     47 CA         -2.0812  -15.9485  -41.7654 C.3       5 UNK         0.1400 
     48 CB         -3.0714  -16.0697  -40.5980 C.3       5 UNK        -0.1800 
     49 N          -1.4622  -14.6241  -41.7343 N.am      5 UNK        -0.5000 
     50 C          -0.6523  -14.1247  -42.6769 C.2       4 UNK         0.5000 
     51 O          -0.3251  -14.7436  -43.6918 O.2       4 UNK        -0.5000 
     52 CA         -0.0827  -12.7095  -42.4393 C.3       4 UNK         0.1400 
     53 CB         -0.6887  -11.9785  -41.2202 C.3       4 UNK        -0.1800 
     54 N           1.3800  -12.7105  -42.3438 N.am      4 UNK        -0.5000 
     55 C           2.1378  -13.4458  -41.5133 C.2       3 UNK         0.5000 
     56 O           1.6753  -14.2712  -40.7243 O.2       3 UNK        -0.5000 
     57 CA          3.6635  -13.2375  -41.5906 C.3       3 UNK         0.1400 
     58 CB          4.4498  -14.5225  -41.2739 C.3       3 UNK        -0.1800 
     59 N           4.0570  -12.7488  -42.9124 N.am      3 UNK        -0.5000 
     60 C           4.6952  -11.6003  -43.1626 C.2       2 UNK         0.5000 
     61 O           5.0942  -10.8283  -42.2901 O.2       2 UNK        -0.5000 
     62 CA          4.9057  -11.2415  -44.6472 C.3       2 UNK         0.1400 
     63 CB          6.2958  -11.6966  -45.1161 C.3       2 UNK        -0.1800 
     64 N           3.8967  -11.7931  -45.5593 N.am      2 UNK        -0.5000 
     65 C           2.5833  -11.5280  -45.5404 C.2       1 UNK         0.5000 
     66 O           2.0483  -10.8554  -44.6573 O.2       1 UNK        -0.5000 
     67 C           0.7704  -21.8180  -49.5934 C.2       11 UNK         0.5000 
     68 O           1.0799  -22.5848  -50.5072 O.2       11 UNK        -0.5000 
     69 N          -0.4276  -21.8259  -48.9879 N.am      12 UNK        -0.5000 
     70 CA         -1.5575  -22.6131  -49.4857 C.3       12 UNK         0.1400 
     71 CB         -2.1645  -21.9238  -50.7227 C.3       12 UNK        -0.1800 
     72 C          -2.6668  -22.8814  -48.4603 C.2       12 UNK         0.5000 
     73 O          -3.2950  -23.9351  -48.5521 O.2       12 UNK        -0.5000 
     74 N          -2.9248  -21.9519  -47.5261 N.am      13 UNK        -0.5000 
     75 CA         -4.1415  -21.9314  -46.6984 C.3       13 UNK         0.1400 
     76 CB         -4.2584  -20.5997  -45.9402 C.3       13 UNK        -0.1800 
     77 C          -4.3244  -23.1369  -45.7563 C.2       13 UNK         0.5000 
     78 O          -5.4525  -23.4054  -45.3421 O.2       13 UNK        -0.5000 
     79 N          -3.2444  -23.8859  -45.4922 N.am      14 UNK        -0.5000 
     80 CA         -3.2732  -25.1830  -44.8110 C.3       14 UNK         0.1400 
     81 CB         -1.8304  -25.6196  -44.5173 C.3       14 UNK        -0.1800 
     82 C          -4.0242  -26.2793  -45.6021 C.2       14 UNK         0.5000 
     83 O          -4.4885  -27.2459  -44.9967 O.2       14 UNK        -0.5000 
     84 N          -4.1497  -26.1012  -46.9240 N.am      15 UNK        -0.5000 
     85 CA         -4.9132  -26.9421  -47.8442 C.3       15 UNK         0.1400 
     86 CB         -3.9336  -27.7099  -48.7498 C.3       15 UNK        -0.1800 
     87 C          -5.9140  -26.0847  -48.6475 C.2       15 UNK         0.5000 
     88 O          -6.2204  -26.4133  -49.7959 O.2       15 UNK        -0.5000 
     89 N          -6.4030  -24.9971  -48.0289 N.am      16 UNK        -0.5000 
     90 CA         -7.3235  -23.9938  -48.5709 C.3       16 UNK         0.1400 
     91 CB         -8.7299  -24.5978  -48.7804 C.3       16 UNK        -0.1800 
     92 C          -6.7512  -23.2995  -49.8241 C.2       16 UNK         0.5000 
     93 O          -5.9394  -22.3848  -49.6910 O.2       16 UNK        -0.5000 
     94 N          -7.1822  -23.7327  -51.0139 N.am      17 UNK        -0.5000 
     95 CA         -6.6757  -23.2439  -52.2951 C.3       17 UNK         0.1400 
     96 CB         -7.7134  -23.5506  -53.3860 C.3       17 UNK        -0.1800 
     97 C          -5.3152  -23.8567  -52.6742 C.2       17 UNK         0.5000 
     98 O          -4.5707  -23.2331  -53.4323 O.2       17 UNK        -0.5000 
     99 N          -5.0290  -25.0697  -52.1704 N.am      18 UNK        -0.5000 
    100 CA        -3.8979  -25.9313  -52.5287 C.3       18 UNK         0.1400 
    101 CB        -2.5868  -25.3773  -51.9286 C.3       18 UNK        -0.1800 
    102 C         -3.8485  -26.1557  -54.0561 C.2       18 UNK         0.5000 
    103 O         -4.7260  -26.8317  -54.5960 O.2       18 UNK        -0.5000 
    104 N         -2.8680  -25.5381  -54.7207 N.am      19 UNK        -0.5000 
    105 CA        -2.7908  -25.3749  -56.1705 C.3       19 UNK         0.1400 
    106 CB        -1.8690  -26.4578  -56.7614 C.3       19 UNK        -0.1800 
    107 C         -2.3318  -23.9408  -56.5081 C.2       19 UNK         0.5000 
    108 O         -1.6714  -23.7319  -57.5275 O.2       19 UNK        -0.5000 
    109 N         -2.6558  -22.9815  -55.6301 N.am      20 UNK        -0.5000 
    110 CA        -2.2604  -21.5791  -55.7267 C.3       20 UNK         0.1400 
    111 CB        -1.8366  -21.1048  -54.3261 C.3       20 UNK        -0.1800 
    112 C         -3.4158  -20.7113  -56.2504 C.2       20 UNK         0.5000 
    113 O         -4.5692  -21.1498  -56.2863 O.2       20 UNK        -0.5000 
    114 N         -3.0874  -19.4565  -56.5889 N.am      21 UNK        -0.5000 
    115 CA        -4.0255  -18.4160  -57.0284 C.3       21 UNK         0.1400 
    116 CB        -3.2262  -17.1739  -57.4521 C.3       21 UNK        -0.1800 
    117 C         -5.0907  -18.0393  -55.9759 C.2       21 UNK         0.5000 
    118 O         -6.1366  -17.5007  -56.3408 O.2       21 UNK        -0.5000 
    119 N         -4.8192  -18.3515  -54.7018 N.am      22 UNK        -0.5000 
    120 CA        -5.7736  -18.2734  -53.5854 C.3       22 UNK         0.1400 
    121 C         -6.9404  -19.3049  -53.6667 C.2       22 UNK         0.5000 
    122 N         -6.8803  -20.3273  -54.5134 N.am      22 UNK        -0.7600 
    123 O         -7.9283  -19.1668  -52.9512 O.2       22 UNK        -0.5000 
    124 C124       -5.0612  -18.3751  -52.2118 C.3       23 UNK        -0.0398 
    125 S125       -3.7814  -17.0969  -51.9682 S.3       23 UNK        -0.2404 
    126 C126       -3.3063  -17.4564  -50.2499 C.3       23 UNK        -0.0205 
    127 H127        4.8461  -12.0070  -49.9521 H         1 UNK         0.0600 
    128 H128        3.2100  -11.4898  -50.3722 H         1 UNK         0.0600 
    129 H129        3.6825  -13.1783  -50.5826 H         1 UNK         0.0600 
    130 H130        1.9429  -11.1760  -48.5679 H         1 UNK         0.3000 
    131 H131        1.6909  -13.1887  -46.5143 H         1 UNK         0.0600 
    132 H132        0.2504  -10.5056  -46.7441 H         1 UNK         0.0800 
    133 H133       -0.2049  -11.8283  -45.7024 H         1 UNK         0.0800 
    134 H134       -0.4828  -14.1771  -46.5032 H         1 UNK         0.0800 
    135 H135       -2.1603  -13.8949  -46.8907 H         1 UNK         0.0800 
    136 H136       -3.1593  -15.4002  -48.4474 H         1 UNK         0.1150 
    137 H137       -0.7465  -17.7551  -51.0870 H         1 UNK         0.1150 
    138 H138        1.0922  -14.8384  -48.5381 H         1 UNK         0.1150 
    139 H139        1.6009  -17.0417  -51.4680 H         1 UNK         0.0800 
    140 H140        2.3388  -15.8321  -50.4503 H         1 UNK         0.0800 
    141 H141        0.9460  -19.3836  -50.6269 H         1 UNK         0.0800 
    142 H142        0.3955  -19.0721  -48.9948 H         1 UNK         0.0800 
    143 H143        2.7147  -20.9350  -49.6801 H         1 UNK         0.0600 
    144 H144        1.7710  -20.0360  -47.1468 H         1 UNK         0.3000 
    145 H145        2.9875  -22.8210  -45.2433 H         1 UNK         0.0600 
    146 H146        4.9540  -21.3320  -45.5712 H         1 UNK         0.0600 
    147 H147        3.9266  -19.9108  -45.4452 H         1 UNK         0.0600 
    148 H148        4.1403  -20.9722  -44.0555 H         1 UNK         0.0600 
    149 H149        1.6726  -20.4044  -44.4815 H         1 UNK         0.3000 
    150 H150       -1.6666  -21.6712  -44.7379 H         1 UNK         0.0600 
    151 H151       -0.7537  -22.4442  -42.5502 H         1 UNK         0.0600 
    152 H152       -1.6761  -20.9591  -42.3783 H         1 UNK         0.0600 
    153 H153        0.0856  -20.9098  -42.3505 H         1 UNK         0.0600 
    154 H154       -0.7666  -19.1355  -43.8909 H         1 UNK         0.3000 
    155 H155       -0.6790  -17.5241  -47.1011 H         1 UNK         0.0600 
    156 H156       -2.5072  -17.4249  -44.6412 H         1 UNK         0.0600 
    157 H157       -2.1384  -16.0236  -45.6375 H         1 UNK         0.0600 
    158 H158       -2.9902  -17.3960  -46.3283 H         1 UNK         0.0600 
    159 H159       -0.0029  -16.4482  -44.6041 H         1 UNK         0.3000 
    160 H160        3.4463  -17.4693  -44.5047 H         1 UNK         0.0600 
    161 H161        2.0773  -14.7415  -44.6811 H         1 UNK         0.0600 
    162 H162        3.1297  -15.3860  -45.9341 H         1 UNK         0.0600 
    163 H163        3.7732  -15.0947  -44.3324 H         1 UNK         0.0600 
    164 H164        1.6440  -16.0540  -42.7111 H         1 UNK         0.3000 
    165 H165        0.7088  -18.8869  -40.8030 H         1 UNK         0.0600 
    166 H166        1.6262  -17.5248  -38.9348 H         1 UNK         0.0600 
    167 H167        2.9082  -18.3450  -39.8133 H         1 UNK         0.0600 
    168 H168        2.6379  -16.6279  -40.0644 H         1 UNK         0.0600 
    169 H169        0.2703  -16.0183  -40.6513 H         1 UNK         0.3000 
    170 H170       -2.6446  -16.0263  -42.6969 H         1 UNK         0.0600 
    171 H171       -3.5706  -17.0396  -40.6086 H         1 UNK         0.0600 
    172 H172       -2.5714  -15.9682  -39.6339 H         1 UNK         0.0600 
    173 H173       -3.8472  -15.3061  -40.6571 H         1 UNK         0.0600 
    174 H174       -1.6535  -14.0573  -40.9211 H         1 UNK         0.3000 
    175 H175       -0.3354  -12.1296  -43.3271 H         1 UNK         0.0600 
    176 H176       -0.4565  -12.4799  -40.2799 H         1 UNK         0.0600 
    177 H177       -0.3035  -10.9611  -41.1506 H         1 UNK         0.0600 
    178 H178       -1.7736  -11.9008  -41.3029 H         1 UNK         0.0600 
    179 H179        1.8465  -12.0587  -42.9646 H         1 UNK         0.3000 
    180 H180        3.9064  -12.4984  -40.8249 H         1 UNK         0.0600 
    181 H181        4.1759  -15.3425  -41.9373 H         1 UNK         0.0600 
    182 H182        4.2666  -14.8499  -40.2502 H         1 UNK         0.0600 
    183 H183        5.5234  -14.3595  -41.3696 H         1 UNK         0.0600 
    184 H184        3.7706  -13.3082  -43.7018 H         1 UNK         0.3000 
    185 H185        4.8576  -10.1536  -44.7262 H         1 UNK         0.0600 
    186 H186        7.0794  -11.2846  -44.4787 H         1 UNK         0.0600 
    187 H187        6.3909  -12.7831  -45.0940 H         1 UNK         0.0600 
    188 H188        6.4978  -11.3629  -46.1341 H         1 UNK         0.0600 
    189 H189        4.2357  -12.3821  -46.3142 H         1 UNK         0.3000 
    190 H190       -0.6018  -21.1891  -48.2137 H         1 UNK         0.3000 
    191 H191       -1.1863  -23.5953  -49.7857 H         1 UNK         0.0600 
    192 H192       -2.4399  -20.8907  -50.5107 H         1 UNK         0.0600 
    193 H193       -3.0656  -22.4362  -51.0626 H         1 UNK         0.0600 
    194 H194       -1.4620  -21.9205  -51.5544 H         1 UNK         0.0600 
    195 H195       -2.3264  -21.1331  -47.4566 H         1 UNK         0.3000 
    196 H196       -4.9825  -21.9655  -47.3897 H         1 UNK         0.0600 
    197 H197       -3.5339  -20.5141  -45.1338 H         1 UNK         0.0600 
    198 H198       -5.2464  -20.5019  -45.4887 H         1 UNK         0.0600 
    199 H199       -4.1257  -19.7491  -46.6089 H         1 UNK         0.0600 
    200 H200       -2.3615  -23.6120  -45.9005 H         1 UNK         0.3000 
    201 H201       -3.7924  -25.0527  -43.8593 H         1 UNK         0.0600 
    202 H202       -1.3194  -24.8926  -43.8856 H         1 UNK         0.0600 
    203 H203       -1.2504  -25.7322  -45.4343 H         1 UNK         0.0600 
    204 H204       -1.8086  -26.5763  -43.9937 H         1 UNK         0.0600 
    205 H205       -3.7471  -25.2689  -47.3522 H         1 UNK         0.3000 
    206 H206       -5.5091  -27.6691  -47.2895 H         1 UNK         0.0600 
    207 H207       -4.4630  -28.3767  -49.4313 H         1 UNK         0.0600 
    208 H208       -3.3316  -27.0298  -49.3520 H         1 UNK         0.0600 
    209 H209       -3.2536  -28.3243  -48.1597 H         1 UNK         0.0600 
    210 H210       -6.0658  -24.8054  -47.0945 H         1 UNK         0.3000 
    211 H211       -7.4136  -23.2185  -47.8084 H         1 UNK         0.0600 
    212 H212       -8.7260  -25.4414  -49.4709 H         1 UNK         0.0600 
    213 H213       -9.4217  -23.8514  -49.1729 H         1 UNK         0.0600 
    214 H214       -9.1427  -24.9516  -47.8356 H         1 UNK         0.0600 
    215 H215       -7.8335  -24.5037  -51.0405 H         1 UNK         0.3000 
    216 H216       -6.5467  -22.1610  -52.2386 H         1 UNK         0.0600 
    217 H217       -7.9202  -24.6193  -53.4555 H         1 UNK         0.0600 
    218 H218       -7.3608  -23.2242  -54.3653 H         1 UNK         0.0600 
    219 H219       -8.6548  -23.0371  -53.1896 H         1 UNK         0.0600 
    220 H220       -5.6880  -25.4824  -51.5181 H         1 UNK         0.3000 
    221 H221       -4.0888  -26.9041  -52.0733 H         1 UNK         0.0600 
    222 H222       -2.3314  -24.3927  -52.3200 H         1 UNK         0.0600 
    223 H223       -2.6687  -25.2860  -50.8466 H         1 UNK         0.0600 
    224 H224       -1.7490  -26.0452  -52.1315 H         1 UNK         0.0600 
    225 H225       -2.2052  -24.9908  -54.1893 H         1 UNK         0.3000 
    226 H226       -3.7845  -25.4872  -56.6088 H         1 UNK         0.0600 
    227 H227       -2.2258  -27.4571  -56.5115 H         1 UNK         0.0600 
    228 H228       -1.8304  -26.3919  -57.8494 H         1 UNK         0.0600 
    229 H229       -0.8492  -26.3626  -56.3871 H         1 UNK         0.0600 
    230 H230       -3.3053  -23.1962  -54.8763 H         1 UNK         0.3000 
    231 H231       -1.4112  -21.4686  -56.4042 H         1 UNK         0.0600 
    232 H232       -1.4782  -20.0751  -54.3424 H         1 UNK         0.0600 
    233 H233       -1.0256  -21.7197  -53.9356 H         1 UNK         0.0600 
    234 H234       -2.6658  -21.1534  -53.6188 H         1 UNK         0.0600 
    235 H235       -2.1196  -19.1757  -56.5222 H         1 UNK         0.3000 
    236 H236       -4.5568  -18.7974  -57.9027 H         1 UNK         0.0600 
    237 H237       -2.5292  -17.4077  -58.2571 H         1 UNK         0.0600 
    238 H238       -3.8888  -16.3879  -57.8169 H         1 UNK         0.0600 
    239 H239       -2.6547  -16.7610  -56.6199 H         1 UNK         0.0600 
    240 H240       -3.9252  -18.7676  -54.4928 H         1 UNK         0.3000 
    241 H241       -6.2435  -17.2894  -53.6371 H         1 UNK         0.0600 
    242 H242       -6.0705  -20.4810  -55.1052 H         1 UNK         0.3800 
    243 H243       -7.6604  -20.9602  -54.5682 H         1 UNK         0.3800 
    244 H244       -5.7866  -18.2801  -51.4014 H         1 UNK         0.0800 
    245 H245       -4.5990  -19.3575  -52.0967 H         1 UNK         0.0800 
    246 H246       -3.0905  -18.5207  -50.1469 H         1 UNK         0.0800 
    247 H247       -4.1530  -17.2494  -49.5936 H         1 UNK         0.0800 
@<TRIPOS>BOND
     1    1    2 1    
     2    1  127 1    
     3    1  128 1    
     4    1  129 1    
     5    2    3 2    
     6    2    4 am   BACKBONE|DICT|INTERRES
     7    4    5 1    
     8    4  130 1    
     9    5    6 1    
    10    5   65 1    
    11    5  131 1    
    12    6    7 1    
    13    6  132 1    
    14    6  133 1    
    15    7    8 1    
    16    8    9 1    
    17    8  134 1    
    18    8  135 1    
    19    9   10 ar   
    20    9   14 ar   
    21   10   11 ar   
    22   10  136 1    
    23   11   12 ar   
    24   11  126 1    
    25   12   13 ar   
    26   12  137 1    
    27   13   14 ar   
    28   13   15 1    
    29   14  138 1    
    30   15   16 1    
    31   15  139 1    
    32   15  140 1    
    33   16   17 1    
    34   17   18 1    
    35   17  141 1    
    36   17  142 1    
    37   18   19 1    
    38   18   67 1    
    39   18  143 1    
    40   19   20 am   BACKBONE|DICT|INTERRES
    41   19  144 1    
    42   20   21 2    
    43   20   22 1    
    44   22   23 1    
    45   22   24 1    
    46   22  145 1    
    47   23  146 1    
    48   23  147 1    
    49   23  148 1    
    50   24   25 am   BACKBONE|DICT|INTERRES
    51   24  149 1    
    52   25   26 2    
    53   25   27 1    
    54   27   28 1    
    55   27   29 1    
    56   27  150 1    
    57   28  151 1    
    58   28  152 1    
    59   28  153 1    
    60   29   30 am   BACKBONE|DICT|INTERRES
    61   29  154 1    
    62   30   31 2    
    63   30   32 1    
    64   32   33 1    
    65   32   34 1    
    66   32  155 1    
    67   33  156 1    
    68   33  157 1    
    69   33  158 1    
    70   34   35 am   BACKBONE|DICT|INTERRES
    71   34  159 1    
    72   35   36 2    
    73   35   37 1    
    74   37   38 1    
    75   37   39 1    
    76   37  160 1    
    77   38  161 1    
    78   38  162 1    
    79   38  163 1    
    80   39   40 am   BACKBONE|DICT|INTERRES
    81   39  164 1    
    82   40   41 2    
    83   40   42 1    
    84   42   43 1    
    85   42   44 1    
    86   42  165 1    
    87   43  166 1    
    88   43  167 1    
    89   43  168 1    
    90   44   45 am   BACKBONE|DICT|INTERRES
    91   44  169 1    
    92   45   46 2    
    93   45   47 1    
    94   47   48 1    
    95   47   49 1    
    96   47  170 1    
    97   48  171 1    
    98   48  172 1    
    99   48  173 1    
   100   49   50 am   BACKBONE|DICT|INTERRES
   101   49  174 1    
   102   50   51 2    
   103   50   52 1    
   104   52   53 1    
   105   52   54 1    
   106   52  175 1    
   107   53  176 1    
   108   53  177 1    
   109   53  178 1    
   110   54   55 am   BACKBONE|DICT|INTERRES
   111   54  179 1    
   112   55   56 2    
   113   55   57 1    
   114   57   58 1    
   115   57   59 1    
   116   57  180 1    
   117   58  181 1    
   118   58  182 1    
   119   58  183 1    
   120   59   60 am   BACKBONE|DICT|INTERRES
   121   59  184 1    
   122   60   61 2    
   123   60   62 1    
   124   62   63 1    
   125   62   64 1    
   126   62  185 1    
   127   63  186 1    
   128   63  187 1    
   129   63  188 1    
   130   64   65 am   BACKBONE|DICT|INTERRES
   131   64  189 1    
   132   65   66 2    
   133   67   68 2    
   134   67   69 am   BACKBONE|DICT|INTERRES
   135   69   70 1    
   136   69  190 1    
   137   70   71 1    
   138   70   72 1    
   139   70  191 1    
   140   71  192 1    
   141   71  193 1    
   142   71  194 1    
   143   72   73 2    
   144   72   74 am   BACKBONE|DICT|INTERRES
   145   74   75 1    
   146   74  195 1    
   147   75   76 1    
   148   75   77 1    
   149   75  196 1    
   150   76  197 1    
   151   76  198 1    
   152   76  199 1    
   153   77   78 2    
   154   77   79 am   BACKBONE|DICT|INTERRES
   155   79   80 1    
   156   79  200 1    
   157   80   81 1    
   158   80   82 1    
   159   80  201 1    
   160   81  202 1    
   161   81  203 1    
   162   81  204 1    
   163   82   83 2    
   164   82   84 am   BACKBONE|DICT|INTERRES
   165   84   85 1    
   166   84  205 1    
   167   85   86 1    
   168   85   87 1    
   169   85  206 1    
   170   86  207 1    
   171   86  208 1    
   172   86  209 1    
   173   87   88 2    
   174   87   89 am   BACKBONE|DICT|INTERRES
   175   89   90 1    
   176   89  210 1    
   177   90   91 1    
   178   90   92 1    
   179   90  211 1    
   180   91  212 1    
   181   91  213 1    
   182   91  214 1    
   183   92   93 2    
   184   92   94 am   BACKBONE|DICT|INTERRES
   185   94   95 1    
   186   94  215 1    
   187   95   96 1    
   188   95   97 1    
   189   95  216 1    
   190   96  217 1    
   191   96  218 1    
   192   96  219 1    
   193   97   98 2    
   194   97   99 am   BACKBONE|DICT|INTERRES
   195   99  100 1    
   196   99  220 1    
   197  100  101 1    
   198  100  102 1    
   199  100  221 1    
   200  101  222 1    
   201  101  223 1    
   202  101  224 1    
   203  102  103 2    
   204  102  104 am   BACKBONE|DICT|INTERRES
   205  104  105 1    
   206  104  225 1    
   207  105  106 1    
   208  105  107 1    
   209  105  226 1    
   210  106  227 1    
   211  106  228 1    
   212  106  229 1    
   213  107  108 2    
   214  107  109 am   BACKBONE|DICT|INTERRES
   215  109  110 1    
   216  109  230 1    
   217  110  111 1    
   218  110  112 1    
   219  110  231 1    
   220  111  232 1    
   221  111  233 1    
   222  111  234 1    
   223  112  113 2    
   224  112  114 am   BACKBONE|DICT|INTERRES
   225  114  115 1    
   226  114  235 1    
   227  115  116 1    
   228  115  117 1    
   229  115  236 1    
   230  116  237 1    
   231  116  238 1    
   232  116  239 1    
   233  117  118 2    
   234  117  119 am   BACKBONE|DICT|INTERRES
   235  119  120 1    
   236  119  240 1    
   237  120  121 1    
   238  120  124 1    
   239  120  241 1    
   240  121  122 am   BACKBONE|DICT|INTERRES
   241  121  123 2    
   242  122  242 1    
   243  122  243 1    
   244  124  125 1    
   245  124  244 1    
   246  124  245 1    
   247  125  126 1    
   248  126  246 1    
   249  126  247 1    
@<TRIPOS>SUBSTRUCTURE
     1 UNK         1 GROUP             0       ****    0 ROOT    
