@<TRIPOS>MOLECULE
3R540
247   249    1
SMALL
USER_CHARGES


@<TRIPOS>ATOM
      1 CA          3.1690  -17.1511  -45.3877 C.3       0 UNK        -0.1800 
      2 C           2.4778  -16.2745  -46.4187 C.2       0 UNK         0.5000 
      3 O           3.1490  -15.5243  -47.1263 O.2       0 UNK        -0.5000 
      4 N           1.1433  -16.3685  -46.4993 N.am      1 UNK        -0.5000 
      5 CA          0.2755  -15.6349  -47.4359 C.3       1 UNK         0.1400 
      6 C6          0.5768  -15.9045  -48.9383 C.3       23 UNK        -0.0398 
      7 S7          0.5232  -17.6673  -49.4103 S.3       23 UNK        -0.2404 
      8 C8          2.2170  -17.9406  -50.0253 C.3       23 UNK        -0.0205 
      9 C9          2.3025  -19.1336  -50.9703 C.ar      23 UNK        -0.0193 
     10 C10         1.6019  -19.1086  -52.1799 C.ar      23 UNK        -0.1150 
     11 C11         1.6919  -20.1670  -53.0876 C.ar      23 UNK        -0.0193 
     12 C12         2.5284  -21.2465  -52.7882 C.ar      23 UNK        -0.1150 
     13 C13         3.2477  -21.2836  -51.5895 C.ar      23 UNK        -0.0193 
     14 C14         3.1201  -20.2305  -50.6757 C.ar      23 UNK        -0.1150 
     15 C15         4.2012  -22.4401  -51.3243 C.3       23 UNK        -0.0205 
     16 S16         3.3650  -23.8727  -50.5750 S.3       23 UNK        -0.2404 
     17 C17         3.6224  -23.5488  -48.7994 C.3       23 UNK        -0.0398 
     18 CA          2.4541  -24.0494  -47.9169 C.3       11 UNK         0.1400 
     19 N           2.8653  -24.1818  -46.5154 N.am      11 UNK        -0.5000 
     20 C           2.1727  -24.8475  -45.5809 C.2       10 UNK         0.5000 
     21 O           1.1470  -25.4856  -45.8153 O.2       10 UNK        -0.5000 
     22 CA          2.6979  -24.7553  -44.1352 C.3       10 UNK         0.1400 
     23 CB          3.7515  -25.8419  -43.8729 C.3       10 UNK        -0.1800 
     24 N           3.2598  -23.4416  -43.7997 N.am      10 UNK        -0.5000 
     25 C           2.5479  -22.3090  -43.7422 C.2       9 UNK         0.5000 
     26 O           1.3447  -22.2441  -44.0071 O.2       9 UNK        -0.5000 
     27 CA          3.3036  -21.0316  -43.3502 C.3       9 UNK         0.1400 
     28 CB          4.1060  -20.4814  -44.5437 C.3       9 UNK        -0.1800 
     29 N           2.3178  -20.0597  -42.8881 N.am      9 UNK        -0.5000 
     30 C           2.5446  -18.9421  -42.1886 C.2       8 UNK         0.5000 
     31 O           3.6732  -18.5360  -41.9096 O.2       8 UNK        -0.5000 
     32 CA          1.3122  -18.1754  -41.6575 C.3       8 UNK         0.1400 
     33 CB          1.3577  -16.6666  -41.9840 C.3       8 UNK        -0.1800 
     34 N           0.0249  -18.7892  -42.0188 N.am      8 UNK        -0.5000 
     35 C          -0.6313  -18.7348  -43.1872 C.2       7 UNK         0.5000 
     36 O          -0.2595  -18.0752  -44.1597 O.2       7 UNK        -0.5000 
     37 CA         -1.9150  -19.5785  -43.2981 C.3       7 UNK         0.1400 
     38 CB         -2.2566  -20.4183  -42.0479 C.3       7 UNK        -0.1800 
     39 N          -3.0223  -18.6985  -43.6378 N.am      7 UNK        -0.5000 
     40 C          -4.1276  -19.0476  -44.3097 C.2       6 UNK         0.5000 
     41 O          -4.3978  -20.2052  -44.6268 O.2       6 UNK        -0.5000 
     42 CA         -5.1159  -17.9223  -44.6903 C.3       6 UNK         0.1400 
     43 CB         -6.3736  -17.9852  -43.8102 C.3       6 UNK        -0.1800 
     44 N          -4.5376  -16.5822  -44.5880 N.am      6 UNK        -0.5000 
     45 C          -3.5712  -16.1060  -45.3822 C.2       5 UNK         0.5000 
     46 O          -3.1821  -16.6843  -46.3971 O.2       5 UNK        -0.5000 
     47 CA         -2.9014  -14.7821  -44.9666 C.3       5 UNK         0.1400 
     48 CB         -3.2748  -13.6538  -45.9395 C.3       5 UNK        -0.1800 
     49 N          -3.1629  -14.3289  -43.5956 N.am      5 UNK        -0.5000 
     50 C          -2.8243  -14.9703  -42.4681 C.2       4 UNK         0.5000 
     51 O          -2.4057  -16.1268  -42.4442 O.2       4 UNK        -0.5000 
     52 CA         -2.9386  -14.1572  -41.1613 C.3       4 UNK         0.1400 
     53 CB         -2.7098  -15.0195  -39.9070 C.3       4 UNK        -0.1800 
     54 N          -1.9590  -13.0712  -41.1709 N.am      4 UNK        -0.5000 
     55 C          -2.0876  -11.9277  -41.8542 C.2       3 UNK         0.5000 
     56 O          -3.1304  -11.5864  -42.4160 O.2       3 UNK        -0.5000 
     57 CA         -0.8262  -11.0599  -42.0268 C.3       3 UNK         0.1400 
     58 CB          0.2460  -11.2711  -40.9335 C.3       3 UNK        -0.1800 
     59 N          -0.2673  -11.2516  -43.3712 N.am      3 UNK        -0.5000 
     60 C           0.1900  -12.3975  -43.8986 C.2       2 UNK         0.5000 
     61 O           0.3246  -13.4500  -43.2688 O.2       2 UNK        -0.5000 
     62 CA          0.5522  -12.3624  -45.3889 C.3       2 UNK         0.1400 
     63 CB          1.9383  -11.7354  -45.6129 C.3       2 UNK        -0.1800 
     64 N           0.5509  -13.7299  -45.8946 N.am      2 UNK        -0.5000 
     65 C           0.2180  -14.1164  -47.1308 C.2       1 UNK         0.5000 
     66 O          -0.1404  -13.3270  -48.0061 O.2       1 UNK        -0.5000 
     67 C           1.2179  -23.1360  -48.0339 C.2       11 UNK         0.5000 
     68 O           0.2326  -23.4986  -48.6767 O.2       11 UNK        -0.5000 
     69 N           1.2783  -21.9880  -47.3478 N.am      12 UNK        -0.5000 
     70 CA          0.2333  -20.9680  -47.3137 C.3       12 UNK         0.1400 
     71 CB          0.7919  -19.7320  -46.6101 C.3       12 UNK        -0.1800 
     72 C          -1.0716  -21.4287  -46.6396 C.2       12 UNK         0.5000 
     73 O          -2.1233  -20.8667  -46.9262 O.2       12 UNK        -0.5000 
     74 N          -0.9975  -22.4475  -45.7721 N.am      13 UNK        -0.5000 
     75 CA         -2.1578  -23.1018  -45.1656 C.3       13 UNK         0.1400 
     76 CB         -1.6851  -24.0300  -44.0375 C.3       13 UNK        -0.1800 
     77 C          -3.0187  -23.8677  -46.1910 C.2       13 UNK         0.5000 
     78 O          -4.2260  -23.9976  -45.9858 O.2       13 UNK        -0.5000 
     79 N          -2.3940  -24.3436  -47.2776 N.am      14 UNK        -0.5000 
     80 CA         -3.0779  -24.9075  -48.4392 C.3       14 UNK         0.1400 
     81 CB         -2.2202  -26.0280  -49.0485 C.3       14 UNK        -0.1800 
     82 C          -3.3619  -23.8057  -49.4727 C.2       14 UNK         0.5000 
     83 O          -4.4847  -23.6994  -49.9656 O.2       14 UNK        -0.5000 
     84 N          -2.3453  -22.9892  -49.7717 N.am      15 UNK        -0.5000 
     85 CA         -2.3985  -21.8736  -50.7124 C.3       15 UNK         0.1400 
     86 CB         -1.0051  -21.6975  -51.3330 C.3       15 UNK        -0.1800 
     87 C          -2.9053  -20.5816  -50.0426 C.2       15 UNK         0.5000 
     88 O          -2.2062  -19.5677  -50.0581 O.2       15 UNK        -0.5000 
     89 N          -4.0999  -20.6453  -49.4378 N.am      16 UNK        -0.5000 
     90 CA         -4.7294  -19.5592  -48.6817 C.3       16 UNK         0.1400 
     91 CB         -6.1055  -20.0243  -48.1831 C.3       16 UNK        -0.1800 
     92 C          -4.8475  -18.2619  -49.5033 C.2       16 UNK         0.5000 
     93 O          -5.4141  -18.2849  -50.5982 O.2       16 UNK        -0.5000 
     94 N          -4.2649  -17.1739  -48.9788 N.am      17 UNK        -0.5000 
     95 CA         -4.1452  -15.8447  -49.5900 C.3       17 UNK         0.1400 
     96 CB         -5.5253  -15.1596  -49.6535 C.3       17 UNK        -0.1800 
     97 C          -3.4108  -15.8423  -50.9506 C.2       17 UNK         0.5000 
     98 O          -3.6571  -14.9612  -51.7754 O.2       17 UNK        -0.5000 
     99 N          -2.5396  -16.8405  -51.1647 N.am      18 UNK        -0.5000 
    100 CA        -1.8290  -17.1623  -52.4063 C.3       18 UNK         0.1400 
    101 CB        -0.8503  -16.0392  -52.8087 C.3       18 UNK        -0.1800 
    102 C         -2.7552  -17.5996  -53.5620 C.2       18 UNK         0.5000 
    103 O         -2.3336  -17.5825  -54.7195 O.2       18 UNK        -0.5000 
    104 N         -3.9844  -18.0091  -53.2291 N.am      19 UNK        -0.5000 
    105 CA        -4.9585  -18.6172  -54.1256 C.3       19 UNK         0.1400 
    106 CB        -6.2560  -17.7864  -54.0829 C.3       19 UNK        -0.1800 
    107 C         -5.1366  -20.0827  -53.6904 C.2       19 UNK         0.5000 
    108 O         -4.1383  -20.7351  -53.3757 O.2       19 UNK        -0.5000 
    109 N         -6.3832  -20.5805  -53.6793 N.am      20 UNK        -0.5000 
    110 CA        -6.7981  -21.9221  -53.2529 C.3       20 UNK         0.1400 
    111 CB        -6.7132  -22.0364  -51.7177 C.3       20 UNK        -0.1800 
    112 C         -6.0308  -23.0230  -54.0126 C.2       20 UNK         0.5000 
    113 O         -6.2919  -23.2118  -55.2019 O.2       20 UNK        -0.5000 
    114 N         -5.0661  -23.6815  -53.3526 N.am      21 UNK        -0.5000 
    115 CA        -4.1544  -24.6636  -53.9501 C.3       21 UNK         0.1400 
    116 CB        -3.2433  -25.2377  -52.8549 C.3       21 UNK        -0.1800 
    117 C         -3.3071  -24.1173  -55.1208 C.2       21 UNK         0.5000 
    118 O         -2.9460  -24.8908  -56.0088 O.2       21 UNK        -0.5000 
    119 N         -3.0321  -22.8064  -55.1195 N.am      22 UNK        -0.5000 
    120 CA        -2.3776  -22.0815  -56.2218 C.3       22 UNK         0.1400 
    121 C         -3.3772  -21.5236  -57.2796 C.2       22 UNK         0.5000 
    122 N         -4.6828  -21.7411  -57.1659 N.am      22 UNK        -0.7600 
    123 O         -2.9586  -20.8881  -58.2433 O.2       22 UNK        -0.5000 
    124 C124       -1.4364  -20.9666  -55.6972 C.3       23 UNK        -0.0398 
    125 S125       -0.0703  -21.6271  -54.6890 S.3       23 UNK        -0.2404 
    126 C126        0.9087  -20.1166  -54.3963 C.3       23 UNK        -0.0205 
    127 H127        3.9809  -17.7080  -45.8548 H         1 UNK         0.0600 
    128 H128        2.4772  -17.8668  -44.9454 H         1 UNK         0.0600 
    129 H129        3.5870  -16.5395  -44.5882 H         1 UNK         0.0600 
    130 H130        0.6583  -16.9942  -45.8638 H         1 UNK         0.3000 
    131 H131       -0.7313  -16.0060  -47.2437 H         1 UNK         0.0600 
    132 H132       -0.1640  -15.4015  -49.5616 H         1 UNK         0.0800 
    133 H133        1.5379  -15.4724  -49.2183 H         1 UNK         0.0800 
    134 H134        2.8873  -18.0632  -49.1734 H         1 UNK         0.0800 
    135 H135        2.5595  -17.0577  -50.5664 H         1 UNK         0.0800 
    136 H136        0.9911  -18.2508  -52.4140 H         1 UNK         0.1150 
    137 H137        2.6239  -22.0592  -53.4945 H         1 UNK         0.1150 
    138 H138        3.6819  -20.2489  -49.7528 H         1 UNK         0.1150 
    139 H139        4.6486  -22.7593  -52.2669 H         1 UNK         0.0800 
    140 H140        5.0343  -22.1165  -50.6985 H         1 UNK         0.0800 
    141 H141        3.8149  -22.4880  -48.6311 H         1 UNK         0.0800 
    142 H142        4.5421  -24.0656  -48.5211 H         1 UNK         0.0800 
    143 H143        2.1649  -25.0435  -48.2660 H         1 UNK         0.0600 
    144 H144        3.7058  -23.6990  -46.2346 H         1 UNK         0.3000 
    145 H145        1.8512  -24.9360  -43.4691 H         1 UNK         0.0600 
    146 H146        4.0625  -25.8456  -42.8281 H         1 UNK         0.0600 
    147 H147        3.3538  -26.8332  -44.0952 H         1 UNK         0.0600 
    148 H148        4.6407  -25.6994  -44.4882 H         1 UNK         0.0600 
    149 H149        4.2433  -23.4176  -43.5707 H         1 UNK         0.3000 
    150 H150        3.9803  -21.2665  -42.5262 H         1 UNK         0.0600 
    151 H151        4.8342  -21.2116  -44.8980 H         1 UNK         0.0600 
    152 H152        4.6628  -19.5861  -44.2681 H         1 UNK         0.0600 
    153 H153        3.4605  -20.2287  -45.3841 H         1 UNK         0.0600 
    154 H154        1.3630  -20.3479  -43.0595 H         1 UNK         0.3000 
    155 H155        1.3691  -18.2611  -40.5716 H         1 UNK         0.0600 
    156 H156        1.4134  -16.4764  -43.0551 H         1 UNK         0.0600 
    157 H157        2.2305  -16.1962  -41.5304 H         1 UNK         0.0600 
    158 H158        0.4762  -16.1516  -41.6014 H         1 UNK         0.0600 
    159 H159       -0.3889  -19.3528  -41.2894 H         1 UNK         0.3000 
    160 H160       -1.7482  -20.2602  -44.1300 H         1 UNK         0.0600 
    161 H161       -3.1370  -21.0371  -42.2223 H         1 UNK         0.0600 
    162 H162       -2.4644  -19.7896  -41.1811 H         1 UNK         0.0600 
    163 H163       -1.4432  -21.0984  -41.7917 H         1 UNK         0.0600 
    164 H164       -2.8686  -17.7202  -43.4030 H         1 UNK         0.3000 
    165 H165       -5.4138  -18.0863  -45.7276 H         1 UNK         0.0600 
    166 H166       -7.1058  -17.2365  -44.1132 H         1 UNK         0.0600 
    167 H167       -6.8566  -18.9601  -43.8882 H         1 UNK         0.0600 
    168 H168       -6.1364  -17.8194  -42.7586 H         1 UNK         0.0600 
    169 H169       -4.7911  -16.0394  -43.7759 H         1 UNK         0.3000 
    170 H170       -1.8266  -14.9537  -45.0360 H         1 UNK         0.0600 
    171 H171       -3.0275  -13.9210  -46.9671 H         1 UNK         0.0600 
    172 H172       -4.3419  -13.4311  -45.9042 H         1 UNK         0.0600 
    173 H173       -2.7320  -12.7371  -45.7082 H         1 UNK         0.0600 
    174 H174       -3.4775  -13.3702  -43.4968 H         1 UNK         0.3000 
    175 H175       -3.9472  -13.7421  -41.1077 H         1 UNK         0.0600 
    176 H176       -1.7103  -15.4567  -39.8933 H         1 UNK         0.0600 
    177 H177       -2.8301  -14.4309  -38.9974 H         1 UNK         0.0600 
    178 H178       -3.4278  -15.8393  -39.8608 H         1 UNK         0.0600 
    179 H179       -1.0408  -13.3026  -40.8197 H         1 UNK         0.3000 
    180 H180       -1.1553  -10.0214  -41.9671 H         1 UNK         0.0600 
    181 H181        0.6738  -12.2736  -40.9462 H         1 UNK         0.0600 
    182 H182       -0.1732  -11.1045  -39.9405 H         1 UNK         0.0600 
    183 H183        1.0671  -10.5651  -41.0574 H         1 UNK         0.0600 
    184 H184       -0.3451  -10.4483  -43.9794 H         1 UNK         0.3000 
    185 H185       -0.2062  -11.7750  -45.9107 H         1 UNK         0.0600 
    186 H186        1.9723  -10.7104  -45.2421 H         1 UNK         0.0600 
    187 H187        2.7196  -12.2983  -45.1003 H         1 UNK         0.0600 
    188 H188        2.1901  -11.7057  -46.6732 H         1 UNK         0.0600 
    189 H189        0.7812  -14.4292  -45.1996 H         1 UNK         0.3000 
    190 H190        2.1022  -21.7969  -46.8003 H         1 UNK         0.3000 
    191 H191       -0.0067  -20.6942  -48.3430 H         1 UNK         0.0600 
    192 H192        0.0530  -18.9309  -46.6215 H         1 UNK         0.0600 
    193 H193        1.6860  -19.3595  -47.1095 H         1 UNK         0.0600 
    194 H194        1.0431  -19.9403  -45.5710 H         1 UNK         0.0600 
    195 H195       -0.0835  -22.7886  -45.5008 H         1 UNK         0.3000 
    196 H196       -2.7897  -22.3306  -44.7232 H         1 UNK         0.0600 
    197 H197       -2.5341  -24.4913  -43.5319 H         1 UNK         0.0600 
    198 H198       -1.1183  -23.4804  -43.2856 H         1 UNK         0.0600 
    199 H199       -1.0524  -24.8330  -44.4152 H         1 UNK         0.0600 
    200 H200       -1.4017  -24.1707  -47.3797 H         1 UNK         0.3000 
    201 H201       -4.0324  -25.3440  -48.1375 H         1 UNK         0.0600 
    202 H202       -2.0364  -26.8199  -48.3223 H         1 UNK         0.0600 
    203 H203       -1.2528  -25.6619  -49.3938 H         1 UNK         0.0600 
    204 H204       -2.7229  -26.4815  -49.9033 H         1 UNK         0.0600 
    205 H205       -1.4434  -23.1482  -49.3283 H         1 UNK         0.3000 
    206 H206       -3.0899  -22.1209  -51.5177 H         1 UNK         0.0600 
    207 H207       -1.0111  -20.8793  -52.0529 H         1 UNK         0.0600 
    208 H208       -0.2477  -21.4641  -50.5845 H         1 UNK         0.0600 
    209 H209       -0.6878  -22.5978  -51.8587 H         1 UNK         0.0600 
    210 H210       -4.5954  -21.5260  -49.4683 H         1 UNK         0.3000 
    211 H211       -4.1032  -19.3621  -47.8096 H         1 UNK         0.0600 
    212 H212       -6.7598  -20.3011  -49.0103 H         1 UNK         0.0600 
    213 H213       -6.6050  -19.2354  -47.6197 H         1 UNK         0.0600 
    214 H214       -6.0124  -20.8866  -47.5222 H         1 UNK         0.0600 
    215 H215       -3.8096  -17.2528  -48.0713 H         1 UNK         0.3000 
    216 H216       -3.5177  -15.2609  -48.9163 H         1 UNK         0.0600 
    217 H217       -5.4339  -14.1196  -49.9688 H         1 UNK         0.0600 
    218 H218       -6.0092  -15.1587  -48.6767 H         1 UNK         0.0600 
    219 H219       -6.1911  -15.6584  -50.3584 H         1 UNK         0.0600 
    220 H220       -2.4334  -17.5455  -50.4404 H         1 UNK         0.3000 
    221 H221       -1.2376  -18.0465  -52.1701 H         1 UNK         0.0600 
    222 H222       -1.3734  -15.1327  -53.1128 H         1 UNK         0.0600 
    223 H223       -0.1824  -15.7841  -51.9868 H         1 UNK         0.0600 
    224 H224       -0.2236  -16.3479  -53.6459 H         1 UNK         0.0600 
    225 H225       -4.2404  -18.0299  -52.2468 H         1 UNK         0.3000 
    226 H226       -4.5880  -18.6309  -55.1523 H         1 UNK         0.0600 
    227 H227       -6.9872  -18.1498  -54.8056 H         1 UNK         0.0600 
    228 H228       -6.7170  -17.8056  -53.0941 H         1 UNK         0.0600 
    229 H229       -6.0565  -16.7436  -54.3309 H         1 UNK         0.0600 
    230 H230       -7.1320  -19.9750  -53.9832 H         1 UNK         0.3000 
    231 H231       -7.8466  -22.0331  -53.5332 H         1 UNK         0.0600 
    232 H232       -7.3926  -21.3309  -51.2398 H         1 UNK         0.0600 
    233 H233       -5.7115  -21.8206  -51.3514 H         1 UNK         0.0600 
    234 H234       -6.9904  -23.0342  -51.3749 H         1 UNK         0.0600 
    235 H235       -4.9135  -23.4607  -52.3776 H         1 UNK         0.3000 
    236 H236       -4.7668  -25.4769  -54.3444 H         1 UNK         0.0600 
    237 H237       -3.8272  -25.6842  -52.0501 H         1 UNK         0.0600 
    238 H238       -2.5941  -26.0172  -53.2555 H         1 UNK         0.0600 
    239 H239       -2.6016  -24.4693  -52.4231 H         1 UNK         0.0600 
    240 H240       -3.3863  -22.2268  -54.3638 H         1 UNK         0.3000 
    241 H241       -1.7519  -22.7851  -56.7738 H         1 UNK         0.0600 
    242 H242       -5.0692  -22.3011  -56.4130 H         1 UNK         0.3800 
    243 H243       -5.2999  -21.3791  -57.8753 H         1 UNK         0.3800 
    244 H244       -1.9987  -20.2483  -55.0997 H         1 UNK         0.0800 
    245 H245       -0.9962  -20.4065  -56.5241 H         1 UNK         0.0800 
    246 H246        1.6020  -19.9723  -55.2256 H         1 UNK         0.0800 
    247 H247        0.2393  -19.2546  -54.3972 H         1 UNK         0.0800 
@<TRIPOS>BOND
     1    1    2 1    
     2    1  127 1    
     3    1  128 1    
     4    1  129 1    
     5    2    3 2    
     6    2    4 am   BACKBONE|DICT|INTERRES
     7    4    5 1    
     8    4  130 1    
     9    5    6 1    
    10    5   65 1    
    11    5  131 1    
    12    6    7 1    
    13    6  132 1    
    14    6  133 1    
    15    7    8 1    
    16    8    9 1    
    17    8  134 1    
    18    8  135 1    
    19    9   10 ar   
    20    9   14 ar   
    21   10   11 ar   
    22   10  136 1    
    23   11   12 ar   
    24   11  126 1    
    25   12   13 ar   
    26   12  137 1    
    27   13   14 ar   
    28   13   15 1    
    29   14  138 1    
    30   15   16 1    
    31   15  139 1    
    32   15  140 1    
    33   16   17 1    
    34   17   18 1    
    35   17  141 1    
    36   17  142 1    
    37   18   19 1    
    38   18   67 1    
    39   18  143 1    
    40   19   20 am   BACKBONE|DICT|INTERRES
    41   19  144 1    
    42   20   21 2    
    43   20   22 1    
    44   22   23 1    
    45   22   24 1    
    46   22  145 1    
    47   23  146 1    
    48   23  147 1    
    49   23  148 1    
    50   24   25 am   BACKBONE|DICT|INTERRES
    51   24  149 1    
    52   25   26 2    
    53   25   27 1    
    54   27   28 1    
    55   27   29 1    
    56   27  150 1    
    57   28  151 1    
    58   28  152 1    
    59   28  153 1    
    60   29   30 am   BACKBONE|DICT|INTERRES
    61   29  154 1    
    62   30   31 2    
    63   30   32 1    
    64   32   33 1    
    65   32   34 1    
    66   32  155 1    
    67   33  156 1    
    68   33  157 1    
    69   33  158 1    
    70   34   35 am   BACKBONE|DICT|INTERRES
    71   34  159 1    
    72   35   36 2    
    73   35   37 1    
    74   37   38 1    
    75   37   39 1    
    76   37  160 1    
    77   38  161 1    
    78   38  162 1    
    79   38  163 1    
    80   39   40 am   BACKBONE|DICT|INTERRES
    81   39  164 1    
    82   40   41 2    
    83   40   42 1    
    84   42   43 1    
    85   42   44 1    
    86   42  165 1    
    87   43  166 1    
    88   43  167 1    
    89   43  168 1    
    90   44   45 am   BACKBONE|DICT|INTERRES
    91   44  169 1    
    92   45   46 2    
    93   45   47 1    
    94   47   48 1    
    95   47   49 1    
    96   47  170 1    
    97   48  171 1    
    98   48  172 1    
    99   48  173 1    
   100   49   50 am   BACKBONE|DICT|INTERRES
   101   49  174 1    
   102   50   51 2    
   103   50   52 1    
   104   52   53 1    
   105   52   54 1    
   106   52  175 1    
   107   53  176 1    
   108   53  177 1    
   109   53  178 1    
   110   54   55 am   BACKBONE|DICT|INTERRES
   111   54  179 1    
   112   55   56 2    
   113   55   57 1    
   114   57   58 1    
   115   57   59 1    
   116   57  180 1    
   117   58  181 1    
   118   58  182 1    
   119   58  183 1    
   120   59   60 am   BACKBONE|DICT|INTERRES
   121   59  184 1    
   122   60   61 2    
   123   60   62 1    
   124   62   63 1    
   125   62   64 1    
   126   62  185 1    
   127   63  186 1    
   128   63  187 1    
   129   63  188 1    
   130   64   65 am   BACKBONE|DICT|INTERRES
   131   64  189 1    
   132   65   66 2    
   133   67   68 2    
   134   67   69 am   BACKBONE|DICT|INTERRES
   135   69   70 1    
   136   69  190 1    
   137   70   71 1    
   138   70   72 1    
   139   70  191 1    
   140   71  192 1    
   141   71  193 1    
   142   71  194 1    
   143   72   73 2    
   144   72   74 am   BACKBONE|DICT|INTERRES
   145   74   75 1    
   146   74  195 1    
   147   75   76 1    
   148   75   77 1    
   149   75  196 1    
   150   76  197 1    
   151   76  198 1    
   152   76  199 1    
   153   77   78 2    
   154   77   79 am   BACKBONE|DICT|INTERRES
   155   79   80 1    
   156   79  200 1    
   157   80   81 1    
   158   80   82 1    
   159   80  201 1    
   160   81  202 1    
   161   81  203 1    
   162   81  204 1    
   163   82   83 2    
   164   82   84 am   BACKBONE|DICT|INTERRES
   165   84   85 1    
   166   84  205 1    
   167   85   86 1    
   168   85   87 1    
   169   85  206 1    
   170   86  207 1    
   171   86  208 1    
   172   86  209 1    
   173   87   88 2    
   174   87   89 am   BACKBONE|DICT|INTERRES
   175   89   90 1    
   176   89  210 1    
   177   90   91 1    
   178   90   92 1    
   179   90  211 1    
   180   91  212 1    
   181   91  213 1    
   182   91  214 1    
   183   92   93 2    
   184   92   94 am   BACKBONE|DICT|INTERRES
   185   94   95 1    
   186   94  215 1    
   187   95   96 1    
   188   95   97 1    
   189   95  216 1    
   190   96  217 1    
   191   96  218 1    
   192   96  219 1    
   193   97   98 2    
   194   97   99 am   BACKBONE|DICT|INTERRES
   195   99  100 1    
   196   99  220 1    
   197  100  101 1    
   198  100  102 1    
   199  100  221 1    
   200  101  222 1    
   201  101  223 1    
   202  101  224 1    
   203  102  103 2    
   204  102  104 am   BACKBONE|DICT|INTERRES
   205  104  105 1    
   206  104  225 1    
   207  105  106 1    
   208  105  107 1    
   209  105  226 1    
   210  106  227 1    
   211  106  228 1    
   212  106  229 1    
   213  107  108 2    
   214  107  109 am   BACKBONE|DICT|INTERRES
   215  109  110 1    
   216  109  230 1    
   217  110  111 1    
   218  110  112 1    
   219  110  231 1    
   220  111  232 1    
   221  111  233 1    
   222  111  234 1    
   223  112  113 2    
   224  112  114 am   BACKBONE|DICT|INTERRES
   225  114  115 1    
   226  114  235 1    
   227  115  116 1    
   228  115  117 1    
   229  115  236 1    
   230  116  237 1    
   231  116  238 1    
   232  116  239 1    
   233  117  118 2    
   234  117  119 am   BACKBONE|DICT|INTERRES
   235  119  120 1    
   236  119  240 1    
   237  120  121 1    
   238  120  124 1    
   239  120  241 1    
   240  121  122 am   BACKBONE|DICT|INTERRES
   241  121  123 2    
   242  122  242 1    
   243  122  243 1    
   244  124  125 1    
   245  124  244 1    
   246  124  245 1    
   247  125  126 1    
   248  126  246 1    
   249  126  247 1    
@<TRIPOS>SUBSTRUCTURE
     1 UNK         1 GROUP             0       ****    0 ROOT    
