@<TRIPOS>MOLECULE
3R540
247   249    1
SMALL
USER_CHARGES


@<TRIPOS>ATOM
      1 CA         -0.0812   -9.5047  -48.7788 C.3       0 UNK        -0.1800 
      2 C           0.9725  -10.5807  -49.0001 C.2       0 UNK         0.5000 
      3 O           1.9946  -10.3149  -49.6327 O.2       0 UNK        -0.5000 
      4 N           0.7239  -11.7928  -48.4862 N.am      1 UNK        -0.5000 
      5 CA          1.6302  -12.9462  -48.5582 C.3       1 UNK         0.1400 
      6 C6          0.8789  -14.2576  -48.1806 C.3       23 UNK        -0.0398 
      7 S7          1.8952  -15.7294  -47.7986 S.3       23 UNK        -0.2404 
      8 C8          2.5896  -16.1435  -49.4252 C.3       23 UNK        -0.0205 
      9 C9          1.7241  -17.1411  -50.1760 C.ar      23 UNK        -0.0193 
     10 C10         0.6868  -16.7031  -51.0037 C.ar      23 UNK        -0.1150 
     11 C11        -0.0716  -17.6219  -51.7355 C.ar      23 UNK        -0.0193 
     12 C12         0.2167  -18.9864  -51.6364 C.ar      23 UNK        -0.1150 
     13 C13         1.2519  -19.4359  -50.8097 C.ar      23 UNK        -0.0193 
     14 C14         1.9941  -18.5081  -50.0749 C.ar      23 UNK        -0.1150 
     15 C15         1.6075  -20.9145  -50.7444 C.3       23 UNK        -0.0205 
     16 S16         0.2443  -21.9365  -50.1155 S.3       23 UNK        -0.2404 
     17 C17         0.0478  -21.3271  -48.4042 C.3       23 UNK        -0.0398 
     18 CA         -0.3023  -22.4776  -47.4313 C.3       11 UNK         0.1400 
     19 N          -0.0092  -22.1401  -46.0350 N.am      11 UNK        -0.5000 
     20 C           0.0130  -23.0396  -45.0401 C.2       10 UNK         0.5000 
     21 O          -0.1824  -24.2424  -45.2055 O.2       10 UNK        -0.5000 
     22 CA          0.2283  -22.5064  -43.6142 C.3       10 UNK         0.1400 
     23 CB          1.7098  -22.1893  -43.3633 C.3       10 UNK        -0.1800 
     24 N          -0.5931  -21.3297  -43.3350 N.am      10 UNK        -0.5000 
     25 C          -1.9340  -21.3281  -43.3319 C.2       9 UNK         0.5000 
     26 O          -2.6168  -22.3400  -43.4926 O.2       9 UNK        -0.5000 
     27 CA         -2.6290  -19.9631  -43.1757 C.3       9 UNK         0.1400 
     28 CB         -2.7279  -19.5671  -41.6958 C.3       9 UNK        -0.1800 
     29 N          -1.9631  -18.8973  -43.9260 N.am      9 UNK        -0.5000 
     30 C          -1.8189  -18.8692  -45.2591 C.2       8 UNK         0.5000 
     31 O          -2.2592  -19.7329  -46.0151 O.2       8 UNK        -0.5000 
     32 CA         -0.9973  -17.7092  -45.8414 C.3       8 UNK         0.1400 
     33 CB         -1.8468  -16.4349  -45.9554 C.3       8 UNK        -0.1800 
     34 N           0.1949  -17.4449  -45.0389 N.am      8 UNK        -0.5000 
     35 C           1.2551  -18.2626  -44.9782 C.2       7 UNK         0.5000 
     36 O           1.3498  -19.3103  -45.6206 O.2       7 UNK        -0.5000 
     37 CA          2.3717  -17.8610  -43.9955 C.3       7 UNK         0.1400 
     38 CB          3.3008  -16.8102  -44.6198 C.3       7 UNK        -0.1800 
     39 N           1.8460  -17.3474  -42.7283 N.am      7 UNK        -0.5000 
     40 C           1.1865  -18.0940  -41.8313 C.2       6 UNK         0.5000 
     41 O           0.9729  -19.2969  -41.9722 O.2       6 UNK        -0.5000 
     42 CA          0.6371  -17.3737  -40.5853 C.3       6 UNK         0.1400 
     43 CB          1.7061  -17.3154  -39.4840 C.3       6 UNK        -0.1800 
     44 N           0.1432  -16.0198  -40.8443 N.am      6 UNK        -0.5000 
     45 C          -0.8015  -15.6833  -41.7344 C.2       5 UNK         0.5000 
     46 O          -1.3615  -16.4964  -42.4689 O.2       5 UNK        -0.5000 
     47 CA         -1.1888  -14.1939  -41.8323 C.3       5 UNK         0.1400 
     48 CB         -2.6144  -13.9770  -41.3017 C.3       5 UNK        -0.1800 
     49 N          -0.2778  -13.2864  -41.1262 N.am      5 UNK        -0.5000 
     50 C           0.9705  -13.0000  -41.5147 C.2       4 UNK         0.5000 
     51 O           1.5172  -13.5088  -42.4966 O.2       4 UNK        -0.5000 
     52 CA          1.7473  -12.0161  -40.6300 C.3       4 UNK         0.1400 
     53 CB          2.4891  -12.7651  -39.5111 C.3       4 UNK        -0.1800 
     54 N           2.7173  -11.3130  -41.4602 N.am      4 UNK        -0.5000 
     55 C           2.8922   -9.9875  -41.5083 C.2       3 UNK         0.5000 
     56 O           2.3152   -9.1949  -40.7623 O.2       3 UNK        -0.5000 
     57 CA          3.8740   -9.4445  -42.5694 C.3       3 UNK         0.1400 
     58 CB          5.1926   -9.0122  -41.9086 C.3       3 UNK        -0.1800 
     59 N           4.1763  -10.3928  -43.6472 N.am      3 UNK        -0.5000 
     60 C           3.3055  -10.8006  -44.5794 C.2       2 UNK         0.5000 
     61 O           2.1400  -10.3990  -44.6509 O.2       2 UNK        -0.5000 
     62 CA          3.8244  -11.8411  -45.5839 C.3       2 UNK         0.1400 
     63 CB          4.2775  -13.1377  -44.8811 C.3       2 UNK        -0.1800 
     64 N           2.7618  -12.1382  -46.5362 N.am      2 UNK        -0.5000 
     65 C           2.9187  -12.7058  -47.7360 C.2       1 UNK         0.5000 
     66 O           4.0139  -13.0182  -48.2073 O.2       1 UNK        -0.5000 
     67 C          -1.7546  -22.9717  -47.6193 C.2       11 UNK         0.5000 
     68 O          -1.9774  -23.9194  -48.3746 O.2       11 UNK        -0.5000 
     69 N          -2.7159  -22.3549  -46.9170 N.am      12 UNK        -0.5000 
     70 CA         -4.1227  -22.7629  -46.8857 C.3       12 UNK         0.1400 
     71 CB         -4.9517  -21.7442  -46.0911 C.3       12 UNK        -0.1800 
     72 C          -4.3182  -24.1874  -46.3376 C.2       12 UNK         0.5000 
     73 O          -5.1190  -24.9423  -46.8879 O.2       12 UNK        -0.5000 
     74 N          -3.5599  -24.5398  -45.2927 N.am      13 UNK        -0.5000 
     75 CA         -3.5384  -25.8791  -44.7123 C.3       13 UNK         0.1400 
     76 CB         -2.8922  -25.8187  -43.3192 C.3       13 UNK        -0.1800 
     77 C          -2.8165  -26.9027  -45.6091 C.2       13 UNK         0.5000 
     78 O          -3.3451  -27.9929  -45.8304 O.2       13 UNK        -0.5000 
     79 N          -1.6145  -26.5497  -46.0835 N.am      14 UNK        -0.5000 
     80 CA         -0.7056  -27.4691  -46.7681 C.3       14 UNK         0.1400 
     81 CB          0.7327  -26.9422  -46.6454 C.3       14 UNK        -0.1800 
     82 C          -1.0447  -27.7183  -48.2470 C.2       14 UNK         0.5000 
     83 O          -0.8648  -28.8437  -48.7153 O.2       14 UNK        -0.5000 
     84 N          -1.4755  -26.6748  -48.9667 N.am      15 UNK        -0.5000 
     85 CA         -1.5650  -26.6740  -50.4300 C.3       15 UNK         0.1400 
     86 CB         -0.3023  -25.9974  -50.9969 C.3       15 UNK        -0.1800 
     87 C          -2.8461  -26.0047  -50.9540 C.2       15 UNK         0.5000 
     88 O          -2.9047  -25.6713  -52.1388 O.2       15 UNK        -0.5000 
     89 N          -3.8389  -25.7865  -50.0776 N.am      16 UNK        -0.5000 
     90 CA         -5.1155  -25.1141  -50.3596 C.3       16 UNK         0.1400 
     91 CB         -6.0078  -26.0002  -51.2532 C.3       16 UNK        -0.1800 
     92 C          -4.9345  -23.6823  -50.9127 C.2       16 UNK         0.5000 
     93 O          -5.7061  -23.2462  -51.7689 O.2       16 UNK        -0.5000 
     94 N          -3.8923  -22.9936  -50.4194 N.am      17 UNK        -0.5000 
     95 CA         -3.4365  -21.6645  -50.8309 C.3       17 UNK         0.1400 
     96 CB         -4.4305  -20.5721  -50.3874 C.3       17 UNK        -0.1800 
     97 C          -3.0389  -21.6470  -52.3211 C.2       17 UNK         0.5000 
     98 O          -3.5913  -20.8900  -53.1207 O.2       17 UNK        -0.5000 
     99 N          -2.1014  -22.5475  -52.6546 N.am      18 UNK        -0.5000 
    100 CA        -1.5564  -22.8246  -53.9868 C.3       18 UNK         0.1400 
    101 CB        -0.7280  -21.6272  -54.4976 C.3       18 UNK        -0.1800 
    102 C         -2.6338  -23.2926  -54.9869 C.2       18 UNK         0.5000 
    103 O         -2.6268  -22.8717  -56.1452 O.2       18 UNK        -0.5000 
    104 N         -3.5546  -24.1411  -54.5048 N.am      19 UNK        -0.5000 
    105 CA        -4.7119  -24.7578  -55.1706 C.3       19 UNK         0.1400 
    106 CB        -4.2571  -25.6856  -56.3121 C.3       19 UNK        -0.1800 
    107 C         -5.8036  -23.7818  -55.6598 C.2       19 UNK         0.5000 
    108 O         -6.9893  -24.0909  -55.5417 O.2       19 UNK        -0.5000 
    109 N         -5.3955  -22.6309  -56.2011 N.am      20 UNK        -0.5000 
    110 CA        -6.2434  -21.5904  -56.7804 C.3       20 UNK         0.1400 
    111 CB        -5.4230  -20.8550  -57.8541 C.3       20 UNK        -0.1800 
    112 C         -6.7973  -20.5939  -55.7424 C.2       20 UNK         0.5000 
    113 O         -7.4217  -19.6086  -56.1395 O.2       20 UNK        -0.5000 
    114 N         -6.5286  -20.8232  -54.4480 N.am      21 UNK        -0.5000 
    115 CA        -6.8697  -19.9605  -53.3100 C.3       21 UNK         0.1400 
    116 CB        -8.3939  -19.9395  -53.0736 C.3       21 UNK        -0.1800 
    117 C         -6.2509  -18.5506  -53.4372 C.2       21 UNK         0.5000 
    118 O         -6.9107  -17.5486  -53.1559 O.2       21 UNK        -0.5000 
    119 N         -5.0028  -18.5159  -53.9203 N.am      22 UNK        -0.5000 
    120 CA        -4.2355  -17.3286  -54.3300 C.3       22 UNK         0.1400 
    121 C         -4.8407  -16.5260  -55.5263 C.2       22 UNK         0.5000 
    122 N         -5.8330  -17.0318  -56.2506 N.am      22 UNK        -0.7600 
    123 O         -4.3759  -15.4322  -55.8359 O.2       22 UNK        -0.5000 
    124 C124       -3.8364  -16.4121  -53.1385 C.3       23 UNK        -0.0398 
    125 S125       -2.8132  -17.2608  -51.8863 S.3       23 UNK        -0.2404 
    126 C126       -1.1734  -17.1364  -52.6633 C.3       23 UNK        -0.0205 
    127 H127        0.3470   -8.6698  -48.2240 H         1 UNK         0.0600 
    128 H128       -0.9361   -9.8825  -48.2175 H         1 UNK         0.0600 
    129 H129       -0.4422   -9.1299  -49.7365 H         1 UNK         0.0600 
    130 H130       -0.1412  -11.9410  -47.9863 H         1 UNK         0.3000 
    131 H131        1.9429  -13.0411  -49.6000 H         1 UNK         0.0600 
    132 H132        0.2787  -14.0769  -47.2883 H         1 UNK         0.0800 
    133 H133        0.1659  -14.5165  -48.9637 H         1 UNK         0.0800 
    134 H134        2.7363  -15.2434  -50.0224 H         1 UNK         0.0800 
    135 H135        3.5858  -16.5620  -49.2744 H         1 UNK         0.0800 
    136 H136        0.4801  -15.6460  -51.0915 H         1 UNK         0.1150 
    137 H137       -0.3623  -19.6978  -52.2074 H         1 UNK         0.1150 
    138 H138        2.8010  -18.8465  -49.4399 H         1 UNK         0.1150 
    139 H139        1.8664  -21.2571  -51.7470 H         1 UNK         0.0800 
    140 H140        2.4916  -21.0808  -50.1270 H         1 UNK         0.0800 
    141 H141       -0.7036  -20.5355  -48.3798 H         1 UNK         0.0800 
    142 H142        0.9853  -20.8606  -48.0975 H         1 UNK         0.0800 
    143 H143        0.3474  -23.3210  -47.6770 H         1 UNK         0.0600 
    144 H144        0.1714  -21.1657  -45.8227 H         1 UNK         0.3000 
    145 H145       -0.0705  -23.2933  -42.9185 H         1 UNK         0.0600 
    146 H146        1.8806  -21.9089  -42.3239 H         1 UNK         0.0600 
    147 H147        2.3360  -23.0575  -43.5722 H         1 UNK         0.0600 
    148 H148        2.0614  -21.3710  -43.9917 H         1 UNK         0.0600 
    149 H149       -0.0980  -20.4692  -43.1214 H         1 UNK         0.3000 
    150 H150       -3.6427  -20.0570  -43.5693 H         1 UNK         0.0600 
    151 H151       -3.2814  -20.3164  -41.1286 H         1 UNK         0.0600 
    152 H152       -3.2469  -18.6161  -41.5742 H         1 UNK         0.0600 
    153 H153       -1.7431  -19.4725  -41.2393 H         1 UNK         0.0600 
    154 H154       -1.6044  -18.1141  -43.3850 H         1 UNK         0.3000 
    155 H155       -0.6769  -17.9932  -46.8466 H         1 UNK         0.0600 
    156 H156       -2.7252  -16.6096  -46.5778 H         1 UNK         0.0600 
    157 H157       -1.2815  -15.6255  -46.4145 H         1 UNK         0.0600 
    158 H158       -2.1981  -16.0893  -44.9830 H         1 UNK         0.0600 
    159 H159        0.1678  -16.6375  -44.4341 H         1 UNK         0.3000 
    160 H160        2.9629  -18.7542  -43.7823 H         1 UNK         0.0600 
    161 H161        2.7700  -15.8812  -44.8299 H         1 UNK         0.0600 
    162 H162        3.7195  -17.1688  -45.5611 H         1 UNK         0.0600 
    163 H163        4.1362  -16.5771  -43.9597 H         1 UNK         0.0600 
    164 H164        1.9626  -16.3603  -42.5466 H         1 UNK         0.3000 
    165 H165       -0.2036  -17.9601  -40.2109 H         1 UNK         0.0600 
    166 H166        1.3000  -16.9022  -38.5606 H         1 UNK         0.0600 
    167 H167        2.0842  -18.3124  -39.2532 H         1 UNK         0.0600 
    168 H168        2.5574  -16.7016  -39.7812 H         1 UNK         0.0600 
    169 H169        0.5428  -15.2814  -40.2858 H         1 UNK         0.3000 
    170 H170       -1.1769  -13.9309  -42.8922 H         1 UNK         0.0600 
    171 H171       -3.3300  -14.6085  -41.8303 H         1 UNK         0.0600 
    172 H172       -2.6890  -14.2149  -40.2399 H         1 UNK         0.0600 
    173 H173       -2.9340  -12.9438  -41.4389 H         1 UNK         0.0600 
    174 H174       -0.6475  -12.8408  -40.2983 H         1 UNK         0.3000 
    175 H175        1.0381  -11.3136  -40.1871 H         1 UNK         0.0600 
    176 H176        3.1898  -13.4987  -39.9125 H         1 UNK         0.0600 
    177 H177        3.0525  -12.0742  -38.8837 H         1 UNK         0.0600 
    178 H178        1.7909  -13.2959  -38.8629 H         1 UNK         0.0600 
    179 H179        3.1724  -11.8867  -42.1568 H         1 UNK         0.3000 
    180 H180        3.4111   -8.5621  -43.0162 H         1 UNK         0.0600 
    181 H181        5.7112   -9.8579  -41.4553 H         1 UNK         0.0600 
    182 H182        5.0142   -8.2773  -41.1223 H         1 UNK         0.0600 
    183 H183        5.8656   -8.5526  -42.6326 H         1 UNK         0.0600 
    184 H184        5.1146  -10.7663  -43.6592 H         1 UNK         0.3000 
    185 H185        4.6678  -11.3984  -46.1176 H         1 UNK         0.0600 
    186 H186        5.0979  -12.9532  -44.1873 H         1 UNK         0.0600 
    187 H187        3.4628  -13.5887  -44.3153 H         1 UNK         0.0600 
    188 H188        4.6305  -13.8788  -45.5983 H         1 UNK         0.0600 
    189 H189        1.8456  -11.8255  -46.2394 H         1 UNK         0.3000 
    190 H190       -2.4732  -21.5263  -46.3782 H         1 UNK         0.3000 
    191 H191       -4.4986  -22.7515  -47.9067 H         1 UNK         0.0600 
    192 H192       -4.8493  -20.7416  -46.5068 H         1 UNK         0.0600 
    193 H193       -6.0114  -22.0005  -46.1186 H         1 UNK         0.0600 
    194 H194       -4.6535  -21.7065  -45.0446 H         1 UNK         0.0600 
    195 H195       -2.9632  -23.8408  -44.8625 H         1 UNK         0.3000 
    196 H196       -4.5701  -26.2149  -44.5868 H         1 UNK         0.0600 
    197 H197       -2.8737  -26.8047  -42.8533 H         1 UNK         0.0600 
    198 H198       -3.4488  -25.1554  -42.6568 H         1 UNK         0.0600 
    199 H199       -1.8647  -25.4562  -43.3642 H         1 UNK         0.0600 
    200 H200       -1.2298  -25.6424  -45.8288 H         1 UNK         0.3000 
    201 H201       -0.7461  -28.4333  -46.2564 H         1 UNK         0.0600 
    202 H202        1.0244  -26.8310  -45.6009 H         1 UNK         0.0600 
    203 H203        0.8480  -25.9720  -47.1305 H         1 UNK         0.0600 
    204 H204        1.4428  -27.6278  -47.1098 H         1 UNK         0.0600 
    205 H205       -1.6068  -25.7714  -48.5175 H         1 UNK         0.3000 
    206 H206       -1.6003  -27.6973  -50.8083 H         1 UNK         0.0600 
    207 H207        0.6013  -26.5094  -50.6657 H         1 UNK         0.0600 
    208 H208       -0.2965  -26.0105  -52.0875 H         1 UNK         0.0600 
    209 H209       -0.2317  -24.9571  -50.6779 H         1 UNK         0.0600 
    210 H210       -3.6960  -26.0769  -49.1202 H         1 UNK         0.3000 
    211 H211       -5.6298  -25.0005  -49.4064 H         1 UNK         0.0600 
    212 H212       -5.5705  -26.1550  -52.2385 H         1 UNK         0.0600 
    213 H213       -6.9911  -25.5510  -51.3973 H         1 UNK         0.0600 
    214 H214       -6.1643  -26.9794  -50.8011 H         1 UNK         0.0600 
    215 H215       -3.2971  -23.4662  -49.7450 H         1 UNK         0.3000 
    216 H216       -2.5172  -21.4655  -50.2842 H         1 UNK         0.0600 
    217 H217       -4.2567  -19.6300  -50.9060 H         1 UNK         0.0600 
    218 H218       -4.3219  -20.3733  -49.3211 H         1 UNK         0.0600 
    219 H219       -5.4664  -20.8599  -50.5489 H         1 UNK         0.0600 
    220 H220       -1.7498  -23.1438  -51.9193 H         1 UNK         0.3000 
    221 H221       -0.8743  -23.6675  -53.8677 H         1 UNK         0.0600 
    222 H222       -1.3417  -20.7368  -54.6374 H         1 UNK         0.0600 
    223 H223        0.0723  -21.3806  -53.8007 H         1 UNK         0.0600 
    224 H224       -0.2582  -21.8547  -55.4551 H         1 UNK         0.0600 
    225 H225       -3.4265  -24.4447  -53.5428 H         1 UNK         0.3000 
    226 H226       -5.1809  -25.3838  -54.4115 H         1 UNK         0.0600 
    227 H227       -3.5522  -26.4351  -55.9522 H         1 UNK         0.0600 
    228 H228       -5.1061  -26.2182  -56.7424 H         1 UNK         0.0600 
    229 H229       -3.7767  -25.1328  -57.1199 H         1 UNK         0.0600 
    230 H230       -4.3896  -22.4867  -56.2630 H         1 UNK         0.3000 
    231 H231       -7.1002  -22.0607  -57.2669 H         1 UNK         0.0600 
    232 H232       -4.5645  -20.3411  -57.4194 H         1 UNK         0.0600 
    233 H233       -6.0261  -20.1080  -58.3720 H         1 UNK         0.0600 
    234 H234       -5.0513  -21.5476  -58.6095 H         1 UNK         0.0600 
    235 H235       -5.9699  -21.6351  -54.2220 H         1 UNK         0.3000 
    236 H236       -6.4120  -20.4243  -52.4414 H         1 UNK         0.0600 
    237 H237       -8.7898  -20.9503  -52.9753 H         1 UNK         0.0600 
    238 H238       -8.6381  -19.4053  -52.1547 H         1 UNK         0.0600 
    239 H239       -8.9254  -19.4479  -53.8887 H         1 UNK         0.0600 
    240 H240       -4.5178  -19.4036  -54.0147 H         1 UNK         0.3000 
    241 H241       -3.3109  -17.7335  -54.7413 H         1 UNK         0.0600 
    242 H242       -6.1937  -16.4971  -57.0246 H         1 UNK         0.3800 
    243 H243       -6.2600  -17.9218  -56.0220 H         1 UNK         0.3800 
    244 H244       -3.2835  -15.5374  -53.4842 H         1 UNK         0.0800 
    245 H245       -4.7280  -16.0216  -52.6467 H         1 UNK         0.0800 
    246 H246       -1.1618  -17.7248  -53.5819 H         1 UNK         0.0800 
    247 H247       -0.9850  -16.1025  -52.9566 H         1 UNK         0.0800 
@<TRIPOS>BOND
     1    1    2 1    
     2    1  127 1    
     3    1  128 1    
     4    1  129 1    
     5    2    3 2    
     6    2    4 am   BACKBONE|DICT|INTERRES
     7    4    5 1    
     8    4  130 1    
     9    5    6 1    
    10    5   65 1    
    11    5  131 1    
    12    6    7 1    
    13    6  132 1    
    14    6  133 1    
    15    7    8 1    
    16    8    9 1    
    17    8  134 1    
    18    8  135 1    
    19    9   10 ar   
    20    9   14 ar   
    21   10   11 ar   
    22   10  136 1    
    23   11   12 ar   
    24   11  126 1    
    25   12   13 ar   
    26   12  137 1    
    27   13   14 ar   
    28   13   15 1    
    29   14  138 1    
    30   15   16 1    
    31   15  139 1    
    32   15  140 1    
    33   16   17 1    
    34   17   18 1    
    35   17  141 1    
    36   17  142 1    
    37   18   19 1    
    38   18   67 1    
    39   18  143 1    
    40   19   20 am   BACKBONE|DICT|INTERRES
    41   19  144 1    
    42   20   21 2    
    43   20   22 1    
    44   22   23 1    
    45   22   24 1    
    46   22  145 1    
    47   23  146 1    
    48   23  147 1    
    49   23  148 1    
    50   24   25 am   BACKBONE|DICT|INTERRES
    51   24  149 1    
    52   25   26 2    
    53   25   27 1    
    54   27   28 1    
    55   27   29 1    
    56   27  150 1    
    57   28  151 1    
    58   28  152 1    
    59   28  153 1    
    60   29   30 am   BACKBONE|DICT|INTERRES
    61   29  154 1    
    62   30   31 2    
    63   30   32 1    
    64   32   33 1    
    65   32   34 1    
    66   32  155 1    
    67   33  156 1    
    68   33  157 1    
    69   33  158 1    
    70   34   35 am   BACKBONE|DICT|INTERRES
    71   34  159 1    
    72   35   36 2    
    73   35   37 1    
    74   37   38 1    
    75   37   39 1    
    76   37  160 1    
    77   38  161 1    
    78   38  162 1    
    79   38  163 1    
    80   39   40 am   BACKBONE|DICT|INTERRES
    81   39  164 1    
    82   40   41 2    
    83   40   42 1    
    84   42   43 1    
    85   42   44 1    
    86   42  165 1    
    87   43  166 1    
    88   43  167 1    
    89   43  168 1    
    90   44   45 am   BACKBONE|DICT|INTERRES
    91   44  169 1    
    92   45   46 2    
    93   45   47 1    
    94   47   48 1    
    95   47   49 1    
    96   47  170 1    
    97   48  171 1    
    98   48  172 1    
    99   48  173 1    
   100   49   50 am   BACKBONE|DICT|INTERRES
   101   49  174 1    
   102   50   51 2    
   103   50   52 1    
   104   52   53 1    
   105   52   54 1    
   106   52  175 1    
   107   53  176 1    
   108   53  177 1    
   109   53  178 1    
   110   54   55 am   BACKBONE|DICT|INTERRES
   111   54  179 1    
   112   55   56 2    
   113   55   57 1    
   114   57   58 1    
   115   57   59 1    
   116   57  180 1    
   117   58  181 1    
   118   58  182 1    
   119   58  183 1    
   120   59   60 am   BACKBONE|DICT|INTERRES
   121   59  184 1    
   122   60   61 2    
   123   60   62 1    
   124   62   63 1    
   125   62   64 1    
   126   62  185 1    
   127   63  186 1    
   128   63  187 1    
   129   63  188 1    
   130   64   65 am   BACKBONE|DICT|INTERRES
   131   64  189 1    
   132   65   66 2    
   133   67   68 2    
   134   67   69 am   BACKBONE|DICT|INTERRES
   135   69   70 1    
   136   69  190 1    
   137   70   71 1    
   138   70   72 1    
   139   70  191 1    
   140   71  192 1    
   141   71  193 1    
   142   71  194 1    
   143   72   73 2    
   144   72   74 am   BACKBONE|DICT|INTERRES
   145   74   75 1    
   146   74  195 1    
   147   75   76 1    
   148   75   77 1    
   149   75  196 1    
   150   76  197 1    
   151   76  198 1    
   152   76  199 1    
   153   77   78 2    
   154   77   79 am   BACKBONE|DICT|INTERRES
   155   79   80 1    
   156   79  200 1    
   157   80   81 1    
   158   80   82 1    
   159   80  201 1    
   160   81  202 1    
   161   81  203 1    
   162   81  204 1    
   163   82   83 2    
   164   82   84 am   BACKBONE|DICT|INTERRES
   165   84   85 1    
   166   84  205 1    
   167   85   86 1    
   168   85   87 1    
   169   85  206 1    
   170   86  207 1    
   171   86  208 1    
   172   86  209 1    
   173   87   88 2    
   174   87   89 am   BACKBONE|DICT|INTERRES
   175   89   90 1    
   176   89  210 1    
   177   90   91 1    
   178   90   92 1    
   179   90  211 1    
   180   91  212 1    
   181   91  213 1    
   182   91  214 1    
   183   92   93 2    
   184   92   94 am   BACKBONE|DICT|INTERRES
   185   94   95 1    
   186   94  215 1    
   187   95   96 1    
   188   95   97 1    
   189   95  216 1    
   190   96  217 1    
   191   96  218 1    
   192   96  219 1    
   193   97   98 2    
   194   97   99 am   BACKBONE|DICT|INTERRES
   195   99  100 1    
   196   99  220 1    
   197  100  101 1    
   198  100  102 1    
   199  100  221 1    
   200  101  222 1    
   201  101  223 1    
   202  101  224 1    
   203  102  103 2    
   204  102  104 am   BACKBONE|DICT|INTERRES
   205  104  105 1    
   206  104  225 1    
   207  105  106 1    
   208  105  107 1    
   209  105  226 1    
   210  106  227 1    
   211  106  228 1    
   212  106  229 1    
   213  107  108 2    
   214  107  109 am   BACKBONE|DICT|INTERRES
   215  109  110 1    
   216  109  230 1    
   217  110  111 1    
   218  110  112 1    
   219  110  231 1    
   220  111  232 1    
   221  111  233 1    
   222  111  234 1    
   223  112  113 2    
   224  112  114 am   BACKBONE|DICT|INTERRES
   225  114  115 1    
   226  114  235 1    
   227  115  116 1    
   228  115  117 1    
   229  115  236 1    
   230  116  237 1    
   231  116  238 1    
   232  116  239 1    
   233  117  118 2    
   234  117  119 am   BACKBONE|DICT|INTERRES
   235  119  120 1    
   236  119  240 1    
   237  120  121 1    
   238  120  124 1    
   239  120  241 1    
   240  121  122 am   BACKBONE|DICT|INTERRES
   241  121  123 2    
   242  122  242 1    
   243  122  243 1    
   244  124  125 1    
   245  124  244 1    
   246  124  245 1    
   247  125  126 1    
   248  126  246 1    
   249  126  247 1    
@<TRIPOS>SUBSTRUCTURE
     1 UNK         1 GROUP             0       ****    0 ROOT    
