@<TRIPOS>MOLECULE
3R540
247   249    1
SMALL
USER_CHARGES


@<TRIPOS>ATOM
      1 CA         -4.4341  -14.1536  -49.8994 C.3       0 UNK        -0.1800 
      2 C          -3.4354  -14.1966  -48.7523 C.2       0 UNK         0.5000 
      3 O          -2.2385  -14.3650  -48.9856 O.2       0 UNK        -0.5000 
      4 N          -3.9153  -14.0249  -47.5138 N.am      1 UNK        -0.5000 
      5 CA         -3.1643  -14.1747  -46.2574 C.3       1 UNK         0.1400 
      6 C6         -4.0881  -14.5066  -45.0507 C.3       23 UNK        -0.0398 
      7 S7         -5.4199  -15.7196  -45.3747 S.3       23 UNK        -0.2404 
      8 C8         -4.5396  -17.3135  -45.4297 C.3       23 UNK        -0.0205 
      9 C9         -3.9656  -17.5938  -46.8107 C.ar      23 UNK        -0.0193 
     10 C10        -4.8159  -17.8582  -47.8877 C.ar      23 UNK        -0.1150 
     11 C11        -4.3039  -18.0813  -49.1701 C.ar      23 UNK        -0.0193 
     12 C12        -2.9155  -18.0663  -49.3581 C.ar      23 UNK        -0.1150 
     13 C13        -2.0545  -17.7962  -48.2909 C.ar      23 UNK        -0.0193 
     14 C14        -2.5869  -17.5748  -47.0190 C.ar      23 UNK        -0.1150 
     15 C15        -0.5564  -17.6724  -48.5248 C.3       23 UNK        -0.0205 
     16 S16         0.4200  -18.7803  -47.4639 S.3       23 UNK        -0.2404 
     17 C17         0.0974  -20.4065  -48.2123 C.3       23 UNK        -0.0398 
     18 CA         -0.5379  -21.4520  -47.2628 C.3       11 UNK         0.1400 
     19 N           0.1714  -21.6023  -45.9839 N.am      11 UNK        -0.5000 
     20 C           0.1342  -22.7191  -45.2413 C.2       10 UNK         0.5000 
     21 O          -0.5368  -23.7072  -45.5387 O.2       10 UNK        -0.5000 
     22 CA          0.9452  -22.7220  -43.9381 C.3       10 UNK         0.1400 
     23 CB          2.4556  -22.7784  -44.2185 C.3       10 UNK        -0.1800 
     24 N           0.6283  -21.5493  -43.1275 N.am      10 UNK        -0.5000 
     25 C          -0.4201  -21.4740  -42.2947 C.2       9 UNK         0.5000 
     26 O          -1.2019  -22.4050  -42.1001 O.2       9 UNK        -0.5000 
     27 CA         -0.6441  -20.1438  -41.5488 C.3       9 UNK         0.1400 
     28 CB         -0.0749  -20.2233  -40.1244 C.3       9 UNK        -0.1800 
     29 N          -0.0626  -18.9911  -42.2364 N.am      9 UNK        -0.5000 
     30 C          -0.5494  -18.4769  -43.3749 C.2       8 UNK         0.5000 
     31 O          -1.5525  -18.9074  -43.9391 O.2       8 UNK        -0.5000 
     32 CA          0.2249  -17.3112  -44.0159 C.3       8 UNK         0.1400 
     33 CB         -0.3546  -15.9680  -43.5458 C.3       8 UNK        -0.1800 
     34 N           1.6716  -17.3458  -43.7874 N.am      8 UNK        -0.5000 
     35 C           2.4811  -18.3793  -44.0636 C.2       7 UNK         0.5000 
     36 O           2.0977  -19.4279  -44.5842 O.2       7 UNK        -0.5000 
     37 CA          3.9515  -18.2618  -43.6207 C.3       7 UNK         0.1400 
     38 CB          4.8236  -17.6910  -44.7468 C.3       7 UNK        -0.1800 
     39 N           4.1706  -17.4741  -42.4049 N.am      7 UNK        -0.5000 
     40 C           3.6055  -17.6735  -41.2079 C.2       6 UNK         0.5000 
     41 O           2.7404  -18.5251  -40.9997 O.2       6 UNK        -0.5000 
     42 CA          4.0648  -16.7769  -40.0388 C.3       6 UNK         0.1400 
     43 CB          5.1822  -17.4640  -39.2319 C.3       6 UNK        -0.1800 
     44 N           4.4415  -15.4007  -40.3950 N.am      6 UNK        -0.5000 
     45 C           5.4632  -14.9465  -41.1341 C.2       5 UNK         0.5000 
     46 O           6.2732  -15.6799  -41.7034 O.2       5 UNK        -0.5000 
     47 CA          5.5585  -13.4113  -41.2901 C.3       5 UNK         0.1400 
     48 CB          6.7979  -12.9722  -42.0904 C.3       5 UNK        -0.1800 
     49 N           4.3673  -12.8570  -41.9353 N.am      5 UNK        -0.5000 
     50 C           3.1637  -12.7072  -41.3676 C.2       4 UNK         0.5000 
     51 O           2.9444  -12.9446  -40.1783 O.2       4 UNK        -0.5000 
     52 CA          2.0005  -12.2484  -42.2690 C.3       4 UNK         0.1400 
     53 CB          1.6658  -10.7727  -42.0045 C.3       4 UNK        -0.1800 
     54 N           2.2018  -12.4305  -43.7101 N.am      4 UNK        -0.5000 
     55 C           2.4114  -13.5867  -44.3518 C.2       3 UNK         0.5000 
     56 O           2.6180  -14.6541  -43.7729 O.2       3 UNK        -0.5000 
     57 CA          2.3427  -13.5326  -45.8959 C.3       3 UNK         0.1400 
     58 CB          2.5213  -14.9144  -46.5501 C.3       3 UNK        -0.1800 
     59 N           1.0809  -12.9639  -46.3774 N.am      3 UNK        -0.5000 
     60 C           0.7374  -11.6684  -46.3737 C.2       2 UNK         0.5000 
     61 O           1.4692  -10.7754  -45.9437 O.2       2 UNK        -0.5000 
     62 CA         -0.6516  -11.3045  -46.9323 C.3       2 UNK         0.1400 
     63 CB         -0.5224  -10.7015  -48.3394 C.3       2 UNK        -0.1800 
     64 N          -1.5702  -12.4428  -46.9944 N.am      2 UNK        -0.5000 
     65 C          -2.2167  -12.9849  -45.9553 C.2       1 UNK         0.5000 
     66 O          -2.0862  -12.5756  -44.8008 O.2       1 UNK        -0.5000 
     67 C          -2.0705  -21.3178  -47.1201 C.2       11 UNK         0.5000 
     68 O          -2.7766  -21.4957  -48.1116 O.2       11 UNK        -0.5000 
     69 N          -2.5770  -21.1252  -45.8928 N.am      12 UNK        -0.5000 
     70 CA         -3.9968  -21.2475  -45.5463 C.3       12 UNK         0.1400 
     71 CB         -4.1976  -20.8723  -44.0699 C.3       12 UNK        -0.1800 
     72 C          -4.5934  -22.6473  -45.8151 C.2       12 UNK         0.5000 
     73 O          -5.8126  -22.7609  -45.9522 O.2       12 UNK        -0.5000 
     74 N          -3.7442  -23.6839  -45.8977 N.am      13 UNK        -0.5000 
     75 CA         -4.1065  -25.0559  -46.2512 C.3       13 UNK         0.1400 
     76 CB         -2.9505  -25.9936  -45.8629 C.3       13 UNK        -0.1800 
     77 C          -4.4769  -25.1781  -47.7441 C.2       13 UNK         0.5000 
     78 O          -3.6615  -25.6260  -48.5535 O.2       13 UNK        -0.5000 
     79 N          -5.7013  -24.7471  -48.0778 N.am      14 UNK        -0.5000 
     80 CA         -6.3393  -24.8056  -49.3975 C.3       14 UNK         0.1400 
     81 CB         -6.6646  -26.2685  -49.7667 C.3       14 UNK        -0.1800 
     82 C          -5.5286  -24.0811  -50.4910 C.2       14 UNK         0.5000 
     83 O          -5.3283  -24.6312  -51.5750 O.2       14 UNK        -0.5000 
     84 N          -5.0436  -22.8721  -50.1677 N.am      15 UNK        -0.5000 
     85 CA         -4.1784  -22.0316  -51.0049 C.3       15 UNK         0.1400 
     86 CB         -4.9366  -21.5551  -52.2630 C.3       15 UNK        -0.1800 
     87 C          -2.8481  -22.7355  -51.3393 C.2       15 UNK         0.5000 
     88 O          -2.4351  -22.7469  -52.4977 O.2       15 UNK        -0.5000 
     89 N          -2.2312  -23.3498  -50.3199 N.am      16 UNK        -0.5000 
     90 CA         -1.0386  -24.2022  -50.3855 C.3       16 UNK         0.1400 
     91 CB          0.2056  -23.3646  -50.7511 C.3       16 UNK        -0.1800 
     92 C          -1.2409  -25.4067  -51.3288 C.2       16 UNK         0.5000 
     93 O          -0.3864  -25.6812  -52.1712 O.2       16 UNK        -0.5000 
     94 N          -2.4019  -26.0672  -51.2058 N.am      17 UNK        -0.5000 
     95 CA         -2.9190  -27.1027  -52.1100 C.3       17 UNK         0.1400 
     96 CB         -2.1126  -28.4092  -51.9618 C.3       17 UNK        -0.1800 
     97 C          -3.0079  -26.6004  -53.5701 C.2       17 UNK         0.5000 
     98 O          -2.4965  -27.2422  -54.4891 O.2       17 UNK        -0.5000 
     99 N          -3.6305  -25.4249  -53.7281 N.am      18 UNK        -0.5000 
    100 CA        -3.8377  -24.6412  -54.9504 C.3       18 UNK         0.1400 
    101 CB        -4.6303  -25.4464  -56.0000 C.3       18 UNK        -0.1800 
    102 C         -2.5727  -23.9933  -55.5571 C.2       18 UNK         0.5000 
    103 O         -2.6980  -23.2971  -56.5659 O.2       18 UNK        -0.5000 
    104 N         -1.3909  -24.1800  -54.9509 N.am      19 UNK        -0.5000 
    105 CA        -0.1205  -23.6317  -55.4357 C.3       19 UNK         0.1400 
    106 CB         1.0499  -24.3391  -54.7383 C.3       19 UNK        -0.1800 
    107 C          0.0064  -22.1027  -55.2809 C.2       19 UNK         0.5000 
    108 O          0.7179  -21.4821  -56.0722 O.2       19 UNK        -0.5000 
    109 N         -0.6788  -21.5143  -54.2887 N.am      20 UNK        -0.5000 
    110 CA        -0.7208  -20.0644  -54.0660 C.3       20 UNK         0.1400 
    111 CB        -1.0991  -19.7708  -52.6045 C.3       20 UNK        -0.1800 
    112 C         -1.6819  -19.3443  -55.0334 C.2       20 UNK         0.5000 
    113 O         -1.5576  -18.1316  -55.2065 O.2       20 UNK        -0.5000 
    114 N         -2.5988  -20.1050  -55.6540 N.am      21 UNK        -0.5000 
    115 CA        -3.5500  -19.6924  -56.6909 C.3       21 UNK         0.1400 
    116 CB        -2.8028  -19.3718  -58.0022 C.3       21 UNK        -0.1800 
    117 C         -4.5007  -18.5611  -56.2426 C.2       21 UNK         0.5000 
    118 O         -4.7034  -17.5919  -56.9771 O.2       21 UNK        -0.5000 
    119 N         -5.0721  -18.7103  -55.0399 N.am      22 UNK        -0.5000 
    120 CA        -6.0332  -17.7611  -54.4464 C.3       22 UNK         0.1400 
    121 C         -7.4232  -17.7058  -55.1503 C.2       22 UNK         0.5000 
    122 N         -7.7866  -18.6659  -55.9925 N.am      22 UNK        -0.7600 
    123 O         -8.1864  -16.7697  -54.9285 O.2       22 UNK        -0.5000 
    124 C124       -6.2215  -17.9940  -52.9256 C.3       23 UNK        -0.0398 
    125 S125       -4.6757  -17.8487  -51.9711 S.3       23 UNK        -0.2404 
    126 C126       -5.2849  -18.3258  -50.3160 C.3       23 UNK        -0.0205 
    127 H127       -4.3975  -15.0889  -50.4580 H         1 UNK         0.0600 
    128 H128       -4.1911  -13.3380  -50.5801 H         1 UNK         0.0600 
    129 H129       -5.4546  -14.0114  -49.5434 H         1 UNK         0.0600 
    130 H130       -4.9063  -13.8715  -47.3948 H         1 UNK         0.3000 
    131 H131       -2.4954  -15.0239  -46.3839 H         1 UNK         0.0600 
    132 H132       -4.5842  -13.5978  -44.7052 H         1 UNK         0.0800 
    133 H133       -3.4969  -14.8595  -44.2047 H         1 UNK         0.0800 
    134 H134       -3.7621  -17.3378  -44.6646 H         1 UNK         0.0800 
    135 H135       -5.2431  -18.1072  -45.1761 H         1 UNK         0.0800 
    136 H136       -5.8847  -17.8670  -47.7265 H         1 UNK         0.1150 
    137 H137       -2.4992  -18.2359  -50.3397 H         1 UNK         0.1150 
    138 H138       -1.9264  -17.3638  -46.1926 H         1 UNK         0.1150 
    139 H139       -0.3026  -17.8562  -49.5699 H         1 UNK         0.0800 
    140 H140       -0.2621  -16.6427  -48.3169 H         1 UNK         0.0800 
    141 H141        1.0627  -20.7831  -48.5523 H         1 UNK         0.0800 
    142 H142       -0.5017  -20.2918  -49.1177 H         1 UNK         0.0800 
    143 H143       -0.4158  -22.4055  -47.7808 H         1 UNK         0.0600 
    144 H144        0.7265  -20.8115  -45.6749 H         1 UNK         0.3000 
    145 H145        0.6829  -23.6240  -43.3805 H         1 UNK         0.0600 
    146 H146        3.0278  -22.7870  -43.2908 H         1 UNK         0.0600 
    147 H147        2.7126  -23.6852  -44.7672 H         1 UNK         0.0600 
    148 H148        2.7973  -21.9319  -44.8138 H         1 UNK         0.0600 
    149 H149        1.1888  -20.7207  -43.2930 H         1 UNK         0.3000 
    150 H150       -1.7224  -19.9867  -41.4743 H         1 UNK         0.0600 
    151 H151       -0.5461  -21.0295  -39.5609 H         1 UNK         0.0600 
    152 H152       -0.2494  -19.2976  -39.5758 H         1 UNK         0.0600 
    153 H153        0.9989  -20.4132  -40.1307 H         1 UNK         0.0600 
    154 H154        0.8010  -18.6204  -41.8545 H         1 UNK         0.3000 
    155 H155        0.0707  -17.3749  -45.0902 H         1 UNK         0.0600 
    156 H156       -1.4446  -15.9774  -43.5742 H         1 UNK         0.0600 
    157 H157       -0.0317  -15.1518  -44.1900 H         1 UNK         0.0600 
    158 H158       -0.0540  -15.7345  -42.5239 H         1 UNK         0.0600 
    159 H159        2.0927  -16.4904  -43.4362 H         1 UNK         0.3000 
    160 H160        4.2953  -19.2765  -43.4108 H         1 UNK         0.0600 
    161 H161        5.8826  -17.8322  -44.5303 H         1 UNK         0.0600 
    162 H162        4.6537  -16.6230  -44.8757 H         1 UNK         0.0600 
    163 H163        4.6172  -18.1814  -45.6993 H         1 UNK         0.0600 
    164 H164        4.8962  -16.7654  -42.4495 H         1 UNK         0.3000 
    165 H165        3.2019  -16.6767  -39.3786 H         1 UNK         0.0600 
    166 H166        6.0817  -17.6159  -39.8291 H         1 UNK         0.0600 
    167 H167        5.4554  -16.8755  -38.3560 H         1 UNK         0.0600 
    168 H168        4.8592  -18.4435  -38.8769 H         1 UNK         0.0600 
    169 H169        3.8076  -14.6864  -40.0472 H         1 UNK         0.3000 
    170 H170        5.6437  -12.9883  -40.2870 H         1 UNK         0.0600 
    171 H171        7.7140  -13.3395  -41.6260 H         1 UNK         0.0600 
    172 H172        6.7725  -13.3502  -43.1133 H         1 UNK         0.0600 
    173 H173        6.8726  -11.8856  -42.1363 H         1 UNK         0.0600 
    174 H174        4.4389  -12.6745  -42.9252 H         1 UNK         0.3000 
    175 H175        1.1321  -12.8487  -41.9902 H         1 UNK         0.0600 
    176 H176        2.4853  -10.1170  -42.3014 H         1 UNK         0.0600 
    177 H177        0.7748  -10.4661  -42.5531 H         1 UNK         0.0600 
    178 H178        1.4701  -10.5968  -40.9459 H         1 UNK         0.0600 
    179 H179        2.0352  -11.6144  -44.2916 H         1 UNK         0.3000 
    180 H180        3.1619  -12.8947  -46.2336 H         1 UNK         0.0600 
    181 H181        1.7655  -15.6256  -46.2144 H         1 UNK         0.0600 
    182 H182        3.4989  -15.3318  -46.3152 H         1 UNK         0.0600 
    183 H183        2.4575  -14.8490  -47.6363 H         1 UNK         0.0600 
    184 H184        0.4052  -13.6212  -46.7367 H         1 UNK         0.3000 
    185 H185       -1.0813  -10.5471  -46.2734 H         1 UNK         0.0600 
    186 H186        0.1345   -9.8306  -48.3342 H         1 UNK         0.0600 
    187 H187       -0.1103  -11.4207  -49.0485 H         1 UNK         0.0600 
    188 H188       -1.4909  -10.3742  -48.7182 H         1 UNK         0.0600 
    189 H189       -1.7070  -12.8790  -47.9021 H         1 UNK         0.3000 
    190 H190       -1.9424  -20.9145  -45.1346 H         1 UNK         0.3000 
    191 H191       -4.5509  -20.5367  -46.1623 H         1 UNK         0.0600 
    192 H192       -3.5871  -21.4911  -43.4114 H         1 UNK         0.0600 
    193 H193       -3.9414  -19.8307  -43.8858 H         1 UNK         0.0600 
    194 H194       -5.2384  -20.9993  -43.7691 H         1 UNK         0.0600 
    195 H195       -2.7544  -23.5071  -45.7751 H         1 UNK         0.3000 
    196 H196       -4.9794  -25.3469  -45.6632 H         1 UNK         0.0600 
    197 H197       -2.7223  -25.9206  -44.7994 H         1 UNK         0.0600 
    198 H198       -2.0392  -25.7640  -46.4163 H         1 UNK         0.0600 
    199 H199       -3.2060  -27.0331  -46.0713 H         1 UNK         0.0600 
    200 H200       -6.2419  -24.2971  -47.3470 H         1 UNK         0.3000 
    201 H201       -7.2843  -24.2677  -49.3113 H         1 UNK         0.0600 
    202 H202       -7.2315  -26.3212  -50.6970 H         1 UNK         0.0600 
    203 H203       -7.2676  -26.7449  -48.9939 H         1 UNK         0.0600 
    204 H204       -5.7607  -26.8637  -49.9003 H         1 UNK         0.0600 
    205 H205       -5.2188  -22.5236  -49.2356 H         1 UNK         0.3000 
    206 H206       -3.9230  -21.1481  -50.4200 H         1 UNK         0.0600 
    207 H207       -5.8831  -21.0875  -51.9964 H         1 UNK         0.0600 
    208 H208       -5.1591  -22.3759  -52.9430 H         1 UNK         0.0600 
    209 H209       -4.3515  -20.8231  -52.8185 H         1 UNK         0.0600 
    210 H210       -2.6565  -23.2539  -49.4063 H         1 UNK         0.3000 
    211 H211       -0.8894  -24.6105  -49.3848 H         1 UNK         0.0600 
    212 H212        0.3388  -22.5305  -50.0672 H         1 UNK         0.0600 
    213 H213        1.1118  -23.9694  -50.7037 H         1 UNK         0.0600 
    214 H214        0.1386  -22.9554  -51.7589 H         1 UNK         0.0600 
    215 H215       -3.0236  -25.7863  -50.4528 H         1 UNK         0.3000 
    216 H216       -3.9421  -27.3072  -51.7912 H         1 UNK         0.0600 
    217 H217       -2.5564  -29.2096  -52.5548 H         1 UNK         0.0600 
    218 H218       -1.0806  -28.2909  -52.2932 H         1 UNK         0.0600 
    219 H219       -2.0953  -28.7446  -50.9249 H         1 UNK         0.0600 
    220 H220       -4.0366  -25.0079  -52.8929 H         1 UNK         0.3000 
    221 H221       -4.4692  -23.8065  -54.6473 H         1 UNK         0.0600 
    222 H222       -4.0422  -26.2659  -56.4136 H         1 UNK         0.0600 
    223 H223       -5.5396  -25.8668  -55.5706 H         1 UNK         0.0600 
    224 H224       -4.9313  -24.8117  -56.8342 H         1 UNK         0.0600 
    225 H225       -1.3594  -24.7226  -54.0972 H         1 UNK         0.3000 
    226 H226       -0.0525  -23.8559  -56.5024 H         1 UNK         0.0600 
    227 H227        0.9725  -25.4225  -54.8317 H         1 UNK         0.0600 
    228 H228        2.0021  -24.0407  -55.1786 H         1 UNK         0.0600 
    229 H229        1.0932  -24.0947  -53.6773 H         1 UNK         0.0600 
    230 H230       -1.2591  -22.0867  -53.6756 H         1 UNK         0.3000 
    231 H231        0.2796  -19.6607  -54.2354 H         1 UNK         0.0600 
    232 H232       -0.9848  -18.7092  -52.3825 H         1 UNK         0.0600 
    233 H233       -0.4640  -20.3195  -51.9088 H         1 UNK         0.0600 
    234 H234       -2.1354  -20.0312  -52.3946 H         1 UNK         0.0600 
    235 H235       -2.5850  -21.0951  -55.4511 H         1 UNK         0.3000 
    236 H236       -4.1829  -20.5600  -56.8830 H         1 UNK         0.0600 
    237 H237       -2.1723  -20.2068  -58.3085 H         1 UNK         0.0600 
    238 H238       -3.5032  -19.1800  -58.8159 H         1 UNK         0.0600 
    239 H239       -2.1672  -18.4914  -57.9018 H         1 UNK         0.0600 
    240 H240       -4.8349  -19.5166  -54.4833 H         1 UNK         0.3000 
    241 H241       -5.6049  -16.7640  -54.5671 H         1 UNK         0.0600 
    242 H242       -7.1741  -19.4414  -56.1857 H         1 UNK         0.3800 
    243 H243       -8.6868  -18.6146  -56.4433 H         1 UNK         0.3800 
    244 H244       -6.9236  -17.2655  -52.5153 H         1 UNK         0.0800 
    245 H245       -6.6617  -18.9754  -52.7454 H         1 UNK         0.0800 
    246 H246       -5.5645  -19.3785  -50.3190 H         1 UNK         0.0800 
    247 H247       -6.2007  -17.7648  -50.1228 H         1 UNK         0.0800 
@<TRIPOS>BOND
     1    1    2 1    
     2    1  127 1    
     3    1  128 1    
     4    1  129 1    
     5    2    3 2    
     6    2    4 am   BACKBONE|DICT|INTERRES
     7    4    5 1    
     8    4  130 1    
     9    5    6 1    
    10    5   65 1    
    11    5  131 1    
    12    6    7 1    
    13    6  132 1    
    14    6  133 1    
    15    7    8 1    
    16    8    9 1    
    17    8  134 1    
    18    8  135 1    
    19    9   10 ar   
    20    9   14 ar   
    21   10   11 ar   
    22   10  136 1    
    23   11   12 ar   
    24   11  126 1    
    25   12   13 ar   
    26   12  137 1    
    27   13   14 ar   
    28   13   15 1    
    29   14  138 1    
    30   15   16 1    
    31   15  139 1    
    32   15  140 1    
    33   16   17 1    
    34   17   18 1    
    35   17  141 1    
    36   17  142 1    
    37   18   19 1    
    38   18   67 1    
    39   18  143 1    
    40   19   20 am   BACKBONE|DICT|INTERRES
    41   19  144 1    
    42   20   21 2    
    43   20   22 1    
    44   22   23 1    
    45   22   24 1    
    46   22  145 1    
    47   23  146 1    
    48   23  147 1    
    49   23  148 1    
    50   24   25 am   BACKBONE|DICT|INTERRES
    51   24  149 1    
    52   25   26 2    
    53   25   27 1    
    54   27   28 1    
    55   27   29 1    
    56   27  150 1    
    57   28  151 1    
    58   28  152 1    
    59   28  153 1    
    60   29   30 am   BACKBONE|DICT|INTERRES
    61   29  154 1    
    62   30   31 2    
    63   30   32 1    
    64   32   33 1    
    65   32   34 1    
    66   32  155 1    
    67   33  156 1    
    68   33  157 1    
    69   33  158 1    
    70   34   35 am   BACKBONE|DICT|INTERRES
    71   34  159 1    
    72   35   36 2    
    73   35   37 1    
    74   37   38 1    
    75   37   39 1    
    76   37  160 1    
    77   38  161 1    
    78   38  162 1    
    79   38  163 1    
    80   39   40 am   BACKBONE|DICT|INTERRES
    81   39  164 1    
    82   40   41 2    
    83   40   42 1    
    84   42   43 1    
    85   42   44 1    
    86   42  165 1    
    87   43  166 1    
    88   43  167 1    
    89   43  168 1    
    90   44   45 am   BACKBONE|DICT|INTERRES
    91   44  169 1    
    92   45   46 2    
    93   45   47 1    
    94   47   48 1    
    95   47   49 1    
    96   47  170 1    
    97   48  171 1    
    98   48  172 1    
    99   48  173 1    
   100   49   50 am   BACKBONE|DICT|INTERRES
   101   49  174 1    
   102   50   51 2    
   103   50   52 1    
   104   52   53 1    
   105   52   54 1    
   106   52  175 1    
   107   53  176 1    
   108   53  177 1    
   109   53  178 1    
   110   54   55 am   BACKBONE|DICT|INTERRES
   111   54  179 1    
   112   55   56 2    
   113   55   57 1    
   114   57   58 1    
   115   57   59 1    
   116   57  180 1    
   117   58  181 1    
   118   58  182 1    
   119   58  183 1    
   120   59   60 am   BACKBONE|DICT|INTERRES
   121   59  184 1    
   122   60   61 2    
   123   60   62 1    
   124   62   63 1    
   125   62   64 1    
   126   62  185 1    
   127   63  186 1    
   128   63  187 1    
   129   63  188 1    
   130   64   65 am   BACKBONE|DICT|INTERRES
   131   64  189 1    
   132   65   66 2    
   133   67   68 2    
   134   67   69 am   BACKBONE|DICT|INTERRES
   135   69   70 1    
   136   69  190 1    
   137   70   71 1    
   138   70   72 1    
   139   70  191 1    
   140   71  192 1    
   141   71  193 1    
   142   71  194 1    
   143   72   73 2    
   144   72   74 am   BACKBONE|DICT|INTERRES
   145   74   75 1    
   146   74  195 1    
   147   75   76 1    
   148   75   77 1    
   149   75  196 1    
   150   76  197 1    
   151   76  198 1    
   152   76  199 1    
   153   77   78 2    
   154   77   79 am   BACKBONE|DICT|INTERRES
   155   79   80 1    
   156   79  200 1    
   157   80   81 1    
   158   80   82 1    
   159   80  201 1    
   160   81  202 1    
   161   81  203 1    
   162   81  204 1    
   163   82   83 2    
   164   82   84 am   BACKBONE|DICT|INTERRES
   165   84   85 1    
   166   84  205 1    
   167   85   86 1    
   168   85   87 1    
   169   85  206 1    
   170   86  207 1    
   171   86  208 1    
   172   86  209 1    
   173   87   88 2    
   174   87   89 am   BACKBONE|DICT|INTERRES
   175   89   90 1    
   176   89  210 1    
   177   90   91 1    
   178   90   92 1    
   179   90  211 1    
   180   91  212 1    
   181   91  213 1    
   182   91  214 1    
   183   92   93 2    
   184   92   94 am   BACKBONE|DICT|INTERRES
   185   94   95 1    
   186   94  215 1    
   187   95   96 1    
   188   95   97 1    
   189   95  216 1    
   190   96  217 1    
   191   96  218 1    
   192   96  219 1    
   193   97   98 2    
   194   97   99 am   BACKBONE|DICT|INTERRES
   195   99  100 1    
   196   99  220 1    
   197  100  101 1    
   198  100  102 1    
   199  100  221 1    
   200  101  222 1    
   201  101  223 1    
   202  101  224 1    
   203  102  103 2    
   204  102  104 am   BACKBONE|DICT|INTERRES
   205  104  105 1    
   206  104  225 1    
   207  105  106 1    
   208  105  107 1    
   209  105  226 1    
   210  106  227 1    
   211  106  228 1    
   212  106  229 1    
   213  107  108 2    
   214  107  109 am   BACKBONE|DICT|INTERRES
   215  109  110 1    
   216  109  230 1    
   217  110  111 1    
   218  110  112 1    
   219  110  231 1    
   220  111  232 1    
   221  111  233 1    
   222  111  234 1    
   223  112  113 2    
   224  112  114 am   BACKBONE|DICT|INTERRES
   225  114  115 1    
   226  114  235 1    
   227  115  116 1    
   228  115  117 1    
   229  115  236 1    
   230  116  237 1    
   231  116  238 1    
   232  116  239 1    
   233  117  118 2    
   234  117  119 am   BACKBONE|DICT|INTERRES
   235  119  120 1    
   236  119  240 1    
   237  120  121 1    
   238  120  124 1    
   239  120  241 1    
   240  121  122 am   BACKBONE|DICT|INTERRES
   241  121  123 2    
   242  122  242 1    
   243  122  243 1    
   244  124  125 1    
   245  124  244 1    
   246  124  245 1    
   247  125  126 1    
   248  126  246 1    
   249  126  247 1    
@<TRIPOS>SUBSTRUCTURE
     1 UNK         1 GROUP             0       ****    0 ROOT    
