@<TRIPOS>MOLECULE
3R540
247   249    1
SMALL
USER_CHARGES


@<TRIPOS>ATOM
      1 CA          7.4674  -17.7032  -48.8837 C.3       0 UNK        -0.1800 
      2 C           6.6713  -17.4913  -47.6037 C.2       0 UNK         0.5000 
      3 O           7.0897  -17.9434  -46.5376 O.2       0 UNK        -0.5000 
      4 N           5.5241  -16.8126  -47.7085 N.am      1 UNK        -0.5000 
      5 CA          4.6506  -16.4639  -46.5887 C.3       1 UNK         0.1400 
      6 C6          3.1907  -16.2304  -47.0540 C.3       23 UNK        -0.0398 
      7 S7          2.9140  -14.8253  -48.2011 S.3       23 UNK        -0.2404 
      8 C8          3.2042  -15.5229  -49.8653 C.3       23 UNK        -0.0205 
      9 C9          2.3703  -16.7643  -50.1386 C.ar      23 UNK        -0.0193 
     10 C10         1.0160  -16.6498  -50.4642 C.ar      23 UNK        -0.1150 
     11 C11         0.2336  -17.7929  -50.6545 C.ar      23 UNK        -0.0193 
     12 C12         0.8195  -19.0554  -50.5162 C.ar      23 UNK        -0.1150 
     13 C13         2.1769  -19.1814  -50.2073 C.ar      23 UNK        -0.0193 
     14 C14         2.9508  -18.0315  -50.0402 C.ar      23 UNK        -0.1150 
     15 C15         2.7992  -20.5582  -50.0176 C.3       23 UNK        -0.0205 
     16 S16         3.4770  -20.8073  -48.3382 S.3       23 UNK        -0.2404 
     17 C17         2.0538  -20.4103  -47.2620 C.3       23 UNK        -0.0398 
     18 CA          1.2458  -21.6397  -46.7841 C.3       11 UNK         0.1400 
     19 N           0.3121  -21.2754  -45.7162 N.am      11 UNK        -0.5000 
     20 C          -0.4391  -22.1346  -45.0138 C.2       10 UNK         0.5000 
     21 O          -0.3864  -23.3572  -45.1444 O.2       10 UNK        -0.5000 
     22 CA         -1.4531  -21.5213  -44.0311 C.3       10 UNK         0.1400 
     23 CB         -0.7631  -21.1053  -42.7238 C.3       10 UNK        -0.1800 
     24 N          -2.1702  -20.3776  -44.5994 N.am      10 UNK        -0.5000 
     25 C          -2.9937  -20.4511  -45.6556 C.2       9 UNK         0.5000 
     26 O          -3.2678  -21.5007  -46.2356 O.2       9 UNK        -0.5000 
     27 CA         -3.5746  -19.1286  -46.1872 C.3       9 UNK         0.1400 
     28 CB         -4.7729  -18.6769  -45.3404 C.3       9 UNK        -0.1800 
     29 N          -2.5815  -18.0568  -46.2589 N.am      9 UNK        -0.5000 
     30 C          -1.4794  -18.1001  -47.0206 C.2       8 UNK         0.5000 
     31 O          -1.1966  -19.0458  -47.7549 O.2       8 UNK        -0.5000 
     32 CA         -0.4969  -16.9230  -46.8926 C.3       8 UNK         0.1400 
     33 CB         -1.0189  -15.6727  -47.6147 C.3       8 UNK        -0.1800 
     34 N          -0.2070  -16.5934  -45.4978 N.am      8 UNK        -0.5000 
     35 C           0.3553  -17.4288  -44.6140 C.2       7 UNK         0.5000 
     36 O           0.7712  -18.5503  -44.8990 O.2       7 UNK        -0.5000 
     37 CA          0.4245  -16.9455  -43.1569 C.3       7 UNK         0.1400 
     38 CB          1.6329  -16.0219  -42.9385 C.3       7 UNK        -0.1800 
     39 N          -0.8062  -16.2658  -42.7531 N.am      7 UNK        -0.5000 
     40 C          -1.9868  -16.8806  -42.5881 C.2       6 UNK         0.5000 
     41 O          -2.1530  -18.0920  -42.7274 O.2       6 UNK        -0.5000 
     42 CA         -3.1914  -15.9834  -42.2517 C.3       6 UNK         0.1400 
     43 CB         -3.2343  -15.6738  -40.7479 C.3       6 UNK        -0.1800 
     44 N          -3.1806  -14.7297  -43.0060 N.am      6 UNK        -0.5000 
     45 C          -3.3398  -14.6456  -44.3345 C.2       5 UNK         0.5000 
     46 O          -3.5623  -15.6150  -45.0581 O.2       5 UNK        -0.5000 
     47 CA         -3.1709  -13.2506  -44.9646 C.3       5 UNK         0.1400 
     48 CB         -4.5032  -12.4869  -44.9502 C.3       5 UNK        -0.1800 
     49 N          -2.1386  -12.4423  -44.3090 N.am      5 UNK        -0.5000 
     50 C          -0.8400  -12.7663  -44.2535 C.2       4 UNK         0.5000 
     51 O          -0.3720  -13.8032  -44.7296 O.2       4 UNK        -0.5000 
     52 CA          0.0672  -11.8031  -43.4688 C.3       4 UNK         0.1400 
     53 CB          0.1358  -12.2300  -41.9941 C.3       4 UNK        -0.1800 
     54 N           1.4268  -11.7503  -44.0009 N.am      4 UNK        -0.5000 
     55 C           1.7840  -11.2889  -45.2040 C.2       3 UNK         0.5000 
     56 O           0.9828  -10.8247  -46.0167 O.2       3 UNK        -0.5000 
     57 CA          3.2842  -11.3227  -45.5692 C.3       3 UNK         0.1400 
     58 CB          3.9646   -9.9930  -45.1933 C.3       3 UNK        -0.1800 
     59 N           4.0553  -12.4652  -45.0548 N.am      3 UNK        -0.5000 
     60 C           4.3429  -12.8193  -43.7939 C.2       2 UNK         0.5000 
     61 O           3.9232  -12.2148  -42.8061 O.2       2 UNK        -0.5000 
     62 CA          5.2262  -14.0762  -43.6101 C.3       2 UNK         0.1400 
     63 CB          5.2012  -14.6076  -42.1651 C.3       2 UNK        -0.1800 
     64 N           4.8580  -15.1686  -44.5169 N.am      2 UNK        -0.5000 
     65 C           5.2108  -15.2595  -45.8049 C.2       1 UNK         0.5000 
     66 O           5.8987  -14.4104  -46.3776 O.2       1 UNK        -0.5000 
     67 C           0.5193  -22.3458  -47.9468 C.2       11 UNK         0.5000 
     68 O           0.9558  -23.4150  -48.3734 O.2       11 UNK        -0.5000 
     69 N          -0.5977  -21.7644  -48.4074 N.am      12 UNK        -0.5000 
     70 CA         -1.4537  -22.3364  -49.4445 C.3       12 UNK         0.1400 
     71 CB         -2.5527  -21.3400  -49.8280 C.3       12 UNK        -0.1800 
     72 C          -2.0595  -23.6891  -49.0395 C.2       12 UNK         0.5000 
     73 O          -2.0212  -24.6211  -49.8393 O.2       12 UNK        -0.5000 
     74 N          -2.5578  -23.7935  -47.8000 N.am      13 UNK        -0.5000 
     75 CA         -3.0895  -25.0306  -47.2272 C.3       13 UNK         0.1400 
     76 CB         -3.7111  -24.7427  -45.8528 C.3       13 UNK        -0.1800 
     77 C          -2.0340  -26.1485  -47.1330 C.2       13 UNK         0.5000 
     78 O          -2.3312  -27.2884  -47.4910 O.2       13 UNK        -0.5000 
     79 N          -0.8119  -25.7984  -46.7057 N.am      14 UNK        -0.5000 
     80 CA          0.3417  -26.7007  -46.6521 C.3       14 UNK         0.1400 
     81 CB          1.4920  -26.0189  -45.8961 C.3       14 UNK        -0.1800 
     82 C           0.8052  -27.1689  -48.0457 C.2       14 UNK         0.5000 
     83 O           1.1829  -28.3305  -48.2026 O.2       14 UNK        -0.5000 
     84 N           0.7369  -26.2696  -49.0361 N.am      15 UNK        -0.5000 
     85 CA          1.0297  -26.5413  -50.4455 C.3       15 UNK         0.1400 
     86 CB          1.3067  -25.2054  -51.1552 C.3       15 UNK        -0.1800 
     87 C          -0.0895  -27.3153  -51.1760 C.2       15 UNK         0.5000 
     88 O           0.1297  -27.7521  -52.3066 O.2       15 UNK        -0.5000 
     89 N          -1.2616  -27.4517  -50.5369 N.am      16 UNK        -0.5000 
     90 CA         -2.5114  -28.0173  -51.0577 C.3       16 UNK         0.1400 
     91 CB         -2.3543  -29.5171  -51.3847 C.3       16 UNK        -0.1800 
     92 C          -3.1029  -27.1939  -52.2240 C.2       16 UNK         0.5000 
     93 O          -3.7227  -27.7533  -53.1311 O.2       16 UNK        -0.5000 
     94 N          -2.9047  -25.8727  -52.1689 N.am      17 UNK        -0.5000 
     95 CA         -3.4641  -24.8826  -53.0815 C.3       17 UNK         0.1400 
     96 CB         -2.4345  -23.7532  -53.2571 C.3       17 UNK        -0.1800 
     97 C          -4.7883  -24.3290  -52.5246 C.2       17 UNK         0.5000 
     98 O          -5.1175  -24.5439  -51.3545 O.2       17 UNK        -0.5000 
     99 N          -5.5236  -23.6048  -53.3761 N.am      18 UNK        -0.5000 
    100 CA        -6.7687  -22.9211  -53.0339 C.3       18 UNK         0.1400 
    101 CB        -7.5235  -22.5822  -54.3309 C.3       18 UNK        -0.1800 
    102 C         -6.4882  -21.6646  -52.1890 C.2       18 UNK         0.5000 
    103 O         -6.3111  -20.5774  -52.7411 O.2       18 UNK        -0.5000 
    104 N         -6.4476  -21.8322  -50.8615 N.am      19 UNK        -0.5000 
    105 CA        -6.1523  -20.7861  -49.8756 C.3       19 UNK         0.1400 
    106 CB        -6.0999  -21.4216  -48.4772 C.3       19 UNK        -0.1800 
    107 C         -7.1174  -19.5839  -49.8946 C.2       19 UNK         0.5000 
    108 O         -6.7212  -18.4896  -49.4961 O.2       19 UNK        -0.5000 
    109 N         -8.3498  -19.7987  -50.3740 N.am      20 UNK        -0.5000 
    110 CA        -9.3509  -18.7524  -50.5834 C.3       20 UNK         0.1400 
    111 CB       -10.7362  -19.4076  -50.6957 C.3       20 UNK        -0.1800 
    112 C         -9.0681  -17.8813  -51.8249 C.2       20 UNK         0.5000 
    113 O         -9.4927  -16.7255  -51.8539 O.2       20 UNK        -0.5000 
    114 N         -8.3803  -18.4451  -52.8280 N.am      21 UNK        -0.5000 
    115 CA        -8.0278  -17.7678  -54.0772 C.3       21 UNK         0.1400 
    116 CB        -8.1137  -18.7731  -55.2362 C.3       21 UNK        -0.1800 
    117 C         -6.6233  -17.1443  -54.0105 C.2       21 UNK         0.5000 
    118 O         -6.4086  -16.0764  -54.5854 O.2       21 UNK        -0.5000 
    119 N         -5.6978  -17.8244  -53.3216 N.am      22 UNK        -0.5000 
    120 CA        -4.3153  -17.3938  -53.0741 C.3       22 UNK         0.1400 
    121 C         -4.2287  -16.0436  -52.3044 C.2       22 UNK         0.5000 
    122 N         -3.3731  -15.1265  -52.7359 N.am      22 UNK        -0.7600 
    123 O         -4.9045  -15.8356  -51.3001 O.2       22 UNK        -0.5000 
    124 C124       -3.5319  -18.5146  -52.3447 C.3       23 UNK        -0.0398 
    125 S125       -1.7214  -18.3903  -52.5464 S.3       23 UNK        -0.2404 
    126 C126       -1.2558  -17.6672  -50.9422 C.3       23 UNK        -0.0205 
    127 H127        7.5917  -18.7690  -49.0753 H         1 UNK         0.0600 
    128 H128        8.4561  -17.2542  -48.7896 H         1 UNK         0.0600 
    129 H129        6.9725  -17.2588  -49.7477 H         1 UNK         0.0600 
    130 H130        5.2666  -16.4074  -48.5948 H         1 UNK         0.3000 
    131 H131        4.6343  -17.3161  -45.9053 H         1 UNK         0.0600 
    132 H132        2.7986  -17.1488  -47.4873 H         1 UNK         0.0800 
    133 H133        2.5613  -16.0487  -46.1822 H         1 UNK         0.0800 
    134 H134        4.2652  -15.7350  -49.9971 H         1 UNK         0.0800 
    135 H135        2.9625  -14.7598  -50.6065 H         1 UNK         0.0800 
    136 H136        0.5680  -15.6690  -50.5394 H         1 UNK         0.1150 
    137 H137        0.2105  -19.9396  -50.6362 H         1 UNK         0.1150 
    138 H138        3.9972  -18.1300  -49.7890 H         1 UNK         0.1150 
    139 H139        2.0743  -21.3446  -50.2320 H         1 UNK         0.0800 
    140 H140        3.6044  -20.6837  -50.7424 H         1 UNK         0.0800 
    141 H141        1.4022  -19.6749  -47.7324 H         1 UNK         0.0800 
    142 H142        2.4739  -19.9034  -46.3929 H         1 UNK         0.0800 
    143 H143        1.9485  -22.3576  -46.3558 H         1 UNK         0.0600 
    144 H144        0.2346  -20.2830  -45.5107 H         1 UNK         0.3000 
    145 H145       -2.1905  -22.2907  -43.7938 H         1 UNK         0.0600 
    146 H146       -0.2329  -21.9471  -42.2767 H         1 UNK         0.0600 
    147 H147       -0.0375  -20.3081  -42.8864 H         1 UNK         0.0600 
    148 H148       -1.4888  -20.7520  -41.9911 H         1 UNK         0.0600 
    149 H149       -2.0308  -19.4808  -44.1440 H         1 UNK         0.3000 
    150 H150       -3.9290  -19.3098  -47.2037 H         1 UNK         0.0600 
    151 H151       -5.5280  -19.4616  -45.2810 H         1 UNK         0.0600 
    152 H152       -5.2509  -17.7983  -45.7740 H         1 UNK         0.0600 
    153 H153       -4.4749  -18.4273  -44.3217 H         1 UNK         0.0600 
    154 H154       -2.7703  -17.2240  -45.7072 H         1 UNK         0.3000 
    155 H155        0.4357  -17.2242  -47.3713 H         1 UNK         0.0600 
    156 H156       -1.9386  -15.3004  -47.1661 H         1 UNK         0.0600 
    157 H157       -0.2835  -14.8682  -47.5877 H         1 UNK         0.0600 
    158 H158       -1.2327  -15.8834  -48.6610 H         1 UNK         0.0600 
    159 H159       -0.4635  -15.6599  -45.1871 H         1 UNK         0.3000 
    160 H160        0.5511  -17.8227  -42.5189 H         1 UNK         0.0600 
    161 H161        1.6000  -15.1405  -43.5795 H         1 UNK         0.0600 
    162 H162        2.5611  -16.5511  -43.1538 H         1 UNK         0.0600 
    163 H163        1.6872  -15.6822  -41.9042 H         1 UNK         0.0600 
    164 H164       -0.7676  -15.2607  -42.6797 H         1 UNK         0.3000 
    165 H165       -4.0991  -16.5312  -42.5141 H         1 UNK         0.0600 
    166 H166       -4.1256  -15.1020  -40.4887 H         1 UNK         0.0600 
    167 H167       -3.2575  -16.5932  -40.1614 H         1 UNK         0.0600 
    168 H168       -2.3628  -15.1015  -40.4273 H         1 UNK         0.0600 
    169 H169       -3.0074  -13.8823  -42.4864 H         1 UNK         0.3000 
    170 H170       -2.8711  -13.3913  -46.0048 H         1 UNK         0.0600 
    171 H171       -5.2857  -13.0588  -45.4509 H         1 UNK         0.0600 
    172 H172       -4.8429  -12.2859  -43.9334 H         1 UNK         0.0600 
    173 H173       -4.4169  -11.5330  -45.4709 H         1 UNK         0.0600 
    174 H174       -2.4476  -11.5805  -43.8825 H         1 UNK         0.3000 
    175 H175       -0.3546  -10.7977  -43.5261 H         1 UNK         0.0600 
    176 H176        0.5806  -13.2196  -41.8821 H         1 UNK         0.0600 
    177 H177        0.7324  -11.5294  -41.4095 H         1 UNK         0.0600 
    178 H178       -0.8576  -12.2618  -41.5449 H         1 UNK         0.0600 
    179 H179        2.1739  -12.0711  -43.3919 H         1 UNK         0.3000 
    180 H180        3.3281  -11.4152  -46.6557 H         1 UNK         0.0600 
    181 H181        3.9590   -9.8238  -44.1161 H         1 UNK         0.0600 
    182 H182        3.4533   -9.1488  -45.6575 H         1 UNK         0.0600 
    183 H183        5.0005   -9.9706  -45.5316 H         1 UNK         0.0600 
    184 H184        4.4683  -13.0475  -45.7750 H         1 UNK         0.3000 
    185 H185        6.2520  -13.7722  -43.8284 H         1 UNK         0.0600 
    186 H186        5.5592  -13.8531  -41.4634 H         1 UNK         0.0600 
    187 H187        4.1949  -14.8911  -41.8560 H         1 UNK         0.0600 
    188 H188        5.8457  -15.4798  -42.0535 H         1 UNK         0.0600 
    189 H189        4.2820  -15.8930  -44.1160 H         1 UNK         0.3000 
    190 H190       -0.8802  -20.8632  -48.0273 H         1 UNK         0.3000 
    191 H191       -0.8327  -22.5063  -50.3262 H         1 UNK         0.0600 
    192 H192       -3.1277  -21.0256  -48.9576 H         1 UNK         0.0600 
    193 H193       -3.2449  -21.7770  -50.5490 H         1 UNK         0.0600 
    194 H194       -2.1279  -20.4502  -50.2861 H         1 UNK         0.0600 
    195 H195       -2.5969  -22.9650  -47.2111 H         1 UNK         0.3000 
    196 H196       -3.8836  -25.3822  -47.8894 H         1 UNK         0.0600 
    197 H197       -4.1284  -25.6499  -45.4143 H         1 UNK         0.0600 
    198 H198       -4.5209  -24.0172  -45.9321 H         1 UNK         0.0600 
    199 H199       -2.9753  -24.3467  -45.1527 H         1 UNK         0.0600 
    200 H200       -0.6580  -24.8452  -46.3881 H         1 UNK         0.3000 
    201 H201        0.0450  -27.5873  -46.0881 H         1 UNK         0.0600 
    202 H202        1.1955  -25.7592  -44.8797 H         1 UNK         0.0600 
    203 H203        1.8148  -25.1037  -46.3932 H         1 UNK         0.0600 
    204 H204        2.3582  -26.6778  -45.8244 H         1 UNK         0.0600 
    205 H205        0.4812  -25.3138  -48.8060 H         1 UNK         0.3000 
    206 H206        1.9350  -27.1491  -50.4996 H         1 UNK         0.0600 
    207 H207        2.1271  -24.6677  -50.6794 H         1 UNK         0.0600 
    208 H208        1.5838  -25.3638  -52.1980 H         1 UNK         0.0600 
    209 H209        0.4307  -24.5564  -51.1442 H         1 UNK         0.0600 
    210 H210       -1.3359  -27.0250  -49.6224 H         1 UNK         0.3000 
    211 H211       -3.2326  -27.9364  -50.2432 H         1 UNK         0.0600 
    212 H212       -1.7058  -29.6808  -52.2456 H         1 UNK         0.0600 
    213 H213       -3.3199  -29.9688  -51.6146 H         1 UNK         0.0600 
    214 H214       -1.9353  -30.0625  -50.5391 H         1 UNK         0.0600 
    215 H215       -2.4706  -25.4913  -51.3291 H         1 UNK         0.3000 
    216 H216       -3.6570  -25.3391  -54.0544 H         1 UNK         0.0600 
    217 H217       -2.7813  -23.0068  -53.9725 H         1 UNK         0.0600 
    218 H218       -1.4859  -24.1412  -53.6288 H         1 UNK         0.0600 
    219 H219       -2.2366  -23.2384  -52.3172 H         1 UNK         0.0600 
    220 H220       -5.1757  -23.4492  -54.3111 H         1 UNK         0.3000 
    221 H221       -7.3980  -23.5956  -52.4492 H         1 UNK         0.0600 
    222 H222       -6.9185  -21.9748  -55.0050 H         1 UNK         0.0600 
    223 H223       -7.8097  -23.4877  -54.8661 H         1 UNK         0.0600 
    224 H224       -8.4387  -22.0276  -54.1193 H         1 UNK         0.0600 
    225 H225       -6.5424  -22.7725  -50.5011 H         1 UNK         0.3000 
    226 H226       -5.1658  -20.3864  -50.1102 H         1 UNK         0.0600 
    227 H227       -5.3246  -22.1862  -48.4173 H         1 UNK         0.0600 
    228 H228       -5.8773  -20.6765  -47.7132 H         1 UNK         0.0600 
    229 H229       -7.0503  -21.8863  -48.2123 H         1 UNK         0.0600 
    230 H230       -8.5991  -20.7343  -50.6582 H         1 UNK         0.3000 
    231 H231       -9.3557  -18.0948  -49.7113 H         1 UNK         0.0600 
    232 H232      -11.5149  -18.6546  -50.8252 H         1 UNK         0.0600 
    233 H233      -10.9796  -19.9729  -49.7960 H         1 UNK         0.0600 
    234 H234      -10.7928  -20.0877  -51.5466 H         1 UNK         0.0600 
    235 H235       -8.0060  -19.3771  -52.7037 H         1 UNK         0.3000 
    236 H236       -8.7418  -16.9663  -54.2785 H         1 UNK         0.0600 
    237 H237       -9.1085  -19.2134  -55.3048 H         1 UNK         0.0600 
    238 H238       -7.9065  -18.2859  -56.1898 H         1 UNK         0.0600 
    239 H239       -7.3945  -19.5841  -55.1208 H         1 UNK         0.0600 
    240 H240       -5.9595  -18.7255  -52.9344 H         1 UNK         0.3000 
    241 H241       -3.8671  -17.2536  -54.0597 H         1 UNK         0.0600 
    242 H242       -2.8009  -15.2816  -53.5513 H         1 UNK         0.3800 
    243 H243       -3.3045  -14.2503  -52.2428 H         1 UNK         0.3800 
    244 H244       -3.8046  -18.5619  -51.2889 H         1 UNK         0.0800 
    245 H245       -3.8081  -19.4855  -52.7586 H         1 UNK         0.0800 
    246 H246       -1.5633  -16.6211  -50.9312 H         1 UNK         0.0800 
    247 H247       -1.8069  -18.1557  -50.1400 H         1 UNK         0.0800 
@<TRIPOS>BOND
     1    1    2 1    
     2    1  127 1    
     3    1  128 1    
     4    1  129 1    
     5    2    3 2    
     6    2    4 am   BACKBONE|DICT|INTERRES
     7    4    5 1    
     8    4  130 1    
     9    5    6 1    
    10    5   65 1    
    11    5  131 1    
    12    6    7 1    
    13    6  132 1    
    14    6  133 1    
    15    7    8 1    
    16    8    9 1    
    17    8  134 1    
    18    8  135 1    
    19    9   10 ar   
    20    9   14 ar   
    21   10   11 ar   
    22   10  136 1    
    23   11   12 ar   
    24   11  126 1    
    25   12   13 ar   
    26   12  137 1    
    27   13   14 ar   
    28   13   15 1    
    29   14  138 1    
    30   15   16 1    
    31   15  139 1    
    32   15  140 1    
    33   16   17 1    
    34   17   18 1    
    35   17  141 1    
    36   17  142 1    
    37   18   19 1    
    38   18   67 1    
    39   18  143 1    
    40   19   20 am   BACKBONE|DICT|INTERRES
    41   19  144 1    
    42   20   21 2    
    43   20   22 1    
    44   22   23 1    
    45   22   24 1    
    46   22  145 1    
    47   23  146 1    
    48   23  147 1    
    49   23  148 1    
    50   24   25 am   BACKBONE|DICT|INTERRES
    51   24  149 1    
    52   25   26 2    
    53   25   27 1    
    54   27   28 1    
    55   27   29 1    
    56   27  150 1    
    57   28  151 1    
    58   28  152 1    
    59   28  153 1    
    60   29   30 am   BACKBONE|DICT|INTERRES
    61   29  154 1    
    62   30   31 2    
    63   30   32 1    
    64   32   33 1    
    65   32   34 1    
    66   32  155 1    
    67   33  156 1    
    68   33  157 1    
    69   33  158 1    
    70   34   35 am   BACKBONE|DICT|INTERRES
    71   34  159 1    
    72   35   36 2    
    73   35   37 1    
    74   37   38 1    
    75   37   39 1    
    76   37  160 1    
    77   38  161 1    
    78   38  162 1    
    79   38  163 1    
    80   39   40 am   BACKBONE|DICT|INTERRES
    81   39  164 1    
    82   40   41 2    
    83   40   42 1    
    84   42   43 1    
    85   42   44 1    
    86   42  165 1    
    87   43  166 1    
    88   43  167 1    
    89   43  168 1    
    90   44   45 am   BACKBONE|DICT|INTERRES
    91   44  169 1    
    92   45   46 2    
    93   45   47 1    
    94   47   48 1    
    95   47   49 1    
    96   47  170 1    
    97   48  171 1    
    98   48  172 1    
    99   48  173 1    
   100   49   50 am   BACKBONE|DICT|INTERRES
   101   49  174 1    
   102   50   51 2    
   103   50   52 1    
   104   52   53 1    
   105   52   54 1    
   106   52  175 1    
   107   53  176 1    
   108   53  177 1    
   109   53  178 1    
   110   54   55 am   BACKBONE|DICT|INTERRES
   111   54  179 1    
   112   55   56 2    
   113   55   57 1    
   114   57   58 1    
   115   57   59 1    
   116   57  180 1    
   117   58  181 1    
   118   58  182 1    
   119   58  183 1    
   120   59   60 am   BACKBONE|DICT|INTERRES
   121   59  184 1    
   122   60   61 2    
   123   60   62 1    
   124   62   63 1    
   125   62   64 1    
   126   62  185 1    
   127   63  186 1    
   128   63  187 1    
   129   63  188 1    
   130   64   65 am   BACKBONE|DICT|INTERRES
   131   64  189 1    
   132   65   66 2    
   133   67   68 2    
   134   67   69 am   BACKBONE|DICT|INTERRES
   135   69   70 1    
   136   69  190 1    
   137   70   71 1    
   138   70   72 1    
   139   70  191 1    
   140   71  192 1    
   141   71  193 1    
   142   71  194 1    
   143   72   73 2    
   144   72   74 am   BACKBONE|DICT|INTERRES
   145   74   75 1    
   146   74  195 1    
   147   75   76 1    
   148   75   77 1    
   149   75  196 1    
   150   76  197 1    
   151   76  198 1    
   152   76  199 1    
   153   77   78 2    
   154   77   79 am   BACKBONE|DICT|INTERRES
   155   79   80 1    
   156   79  200 1    
   157   80   81 1    
   158   80   82 1    
   159   80  201 1    
   160   81  202 1    
   161   81  203 1    
   162   81  204 1    
   163   82   83 2    
   164   82   84 am   BACKBONE|DICT|INTERRES
   165   84   85 1    
   166   84  205 1    
   167   85   86 1    
   168   85   87 1    
   169   85  206 1    
   170   86  207 1    
   171   86  208 1    
   172   86  209 1    
   173   87   88 2    
   174   87   89 am   BACKBONE|DICT|INTERRES
   175   89   90 1    
   176   89  210 1    
   177   90   91 1    
   178   90   92 1    
   179   90  211 1    
   180   91  212 1    
   181   91  213 1    
   182   91  214 1    
   183   92   93 2    
   184   92   94 am   BACKBONE|DICT|INTERRES
   185   94   95 1    
   186   94  215 1    
   187   95   96 1    
   188   95   97 1    
   189   95  216 1    
   190   96  217 1    
   191   96  218 1    
   192   96  219 1    
   193   97   98 2    
   194   97   99 am   BACKBONE|DICT|INTERRES
   195   99  100 1    
   196   99  220 1    
   197  100  101 1    
   198  100  102 1    
   199  100  221 1    
   200  101  222 1    
   201  101  223 1    
   202  101  224 1    
   203  102  103 2    
   204  102  104 am   BACKBONE|DICT|INTERRES
   205  104  105 1    
   206  104  225 1    
   207  105  106 1    
   208  105  107 1    
   209  105  226 1    
   210  106  227 1    
   211  106  228 1    
   212  106  229 1    
   213  107  108 2    
   214  107  109 am   BACKBONE|DICT|INTERRES
   215  109  110 1    
   216  109  230 1    
   217  110  111 1    
   218  110  112 1    
   219  110  231 1    
   220  111  232 1    
   221  111  233 1    
   222  111  234 1    
   223  112  113 2    
   224  112  114 am   BACKBONE|DICT|INTERRES
   225  114  115 1    
   226  114  235 1    
   227  115  116 1    
   228  115  117 1    
   229  115  236 1    
   230  116  237 1    
   231  116  238 1    
   232  116  239 1    
   233  117  118 2    
   234  117  119 am   BACKBONE|DICT|INTERRES
   235  119  120 1    
   236  119  240 1    
   237  120  121 1    
   238  120  124 1    
   239  120  241 1    
   240  121  122 am   BACKBONE|DICT|INTERRES
   241  121  123 2    
   242  122  242 1    
   243  122  243 1    
   244  124  125 1    
   245  124  244 1    
   246  124  245 1    
   247  125  126 1    
   248  126  246 1    
   249  126  247 1    
@<TRIPOS>SUBSTRUCTURE
     1 UNK         1 GROUP             0       ****    0 ROOT    
