@<TRIPOS>MOLECULE
3R540
247   249    1
SMALL
USER_CHARGES


@<TRIPOS>ATOM
      1 CA         -3.9381  -17.6979  -43.2982 C.3       0 UNK        -0.1800 
      2 C          -2.5560  -17.0805  -43.0987 C.2       0 UNK         0.5000 
      3 O          -1.9905  -17.2269  -42.0183 O.2       0 UNK        -0.5000 
      4 N          -1.9815  -16.3850  -44.0870 N.am      1 UNK        -0.5000 
      5 CA         -2.5603  -16.0478  -45.3883 C.3       1 UNK         0.1400 
      6 C6         -2.3492  -17.1707  -46.4443 C.3       23 UNK        -0.0398 
      7 S7         -3.9027  -17.6422  -47.2727 S.3       23 UNK        -0.2404 
      8 C8         -3.7097  -16.8909  -48.9239 C.3       23 UNK        -0.0205 
      9 C9         -2.6282  -17.5123  -49.8058 C.ar      23 UNK        -0.0193 
     10 C10        -2.0156  -16.7147  -50.7783 C.ar      23 UNK        -0.1150 
     11 C11        -1.0985  -17.2579  -51.6831 C.ar      23 UNK        -0.0193 
     12 C12        -0.7870  -18.6188  -51.5952 C.ar      23 UNK        -0.1150 
     13 C13        -1.3787  -19.4288  -50.6257 C.ar      23 UNK        -0.0193 
     14 C14        -2.2968  -18.8717  -49.7316 C.ar      23 UNK        -0.1150 
     15 C15        -1.0982  -20.9231  -50.6207 C.3       23 UNK        -0.0205 
     16 S16         0.6226  -21.3360  -50.1776 S.3       23 UNK        -0.2404 
     17 C17         0.6349  -21.1148  -48.3669 C.3       23 UNK        -0.0398 
     18 CA          0.2951  -22.4275  -47.6111 C.3       11 UNK         0.1400 
     19 N           0.9135  -22.5071  -46.2858 N.am      11 UNK        -0.5000 
     20 C           0.9546  -23.6172  -45.5314 C.2       10 UNK         0.5000 
     21 O           0.5523  -24.7172  -45.9100 O.2       10 UNK        -0.5000 
     22 CA          1.4867  -23.4621  -44.0938 C.3       10 UNK         0.1400 
     23 CB          3.0166  -23.5918  -44.0655 C.3       10 UNK        -0.1800 
     24 N           1.0987  -22.1886  -43.4865 N.am      10 UNK        -0.5000 
     25 C          -0.1629  -21.8338  -43.2015 C.2       9 UNK         0.5000 
     26 O          -1.1291  -22.5829  -43.3406 O.2       9 UNK        -0.5000 
     27 CA         -0.3871  -20.3786  -42.7452 C.3       9 UNK         0.1400 
     28 CB         -0.3267  -20.2853  -41.2146 C.3       9 UNK        -0.1800 
     29 N           0.5664  -19.4339  -43.3394 N.am      9 UNK        -0.5000 
     30 C           0.6903  -19.2116  -44.6575 C.2       8 UNK         0.5000 
     31 O          -0.0189  -19.7698  -45.4957 O.2       8 UNK        -0.5000 
     32 CA          1.8003  -18.2586  -45.1406 C.3       8 UNK         0.1400 
     33 CB          1.2381  -17.1633  -46.0570 C.3       8 UNK        -0.1800 
     34 N           2.5376  -17.6403  -44.0386 N.am      8 UNK        -0.5000 
     35 C           3.6604  -18.1385  -43.4996 C.2       7 UNK         0.5000 
     36 O           4.2059  -19.1671  -43.9002 O.2       7 UNK        -0.5000 
     37 CA          4.2678  -17.3873  -42.2965 C.3       7 UNK         0.1400 
     38 CB          5.4453  -16.5085  -42.7418 C.3       7 UNK        -0.1800 
     39 N           3.2918  -16.5652  -41.5780 N.am      7 UNK        -0.5000 
     40 C           2.2946  -17.0660  -40.8343 C.2       6 UNK         0.5000 
     41 O           2.1508  -18.2706  -40.6287 O.2       6 UNK        -0.5000 
     42 CA          1.2637  -16.0760  -40.2528 C.3       6 UNK         0.1400 
     43 CB          1.5685  -15.7923  -38.7743 C.3       6 UNK        -0.1800 
     44 N           1.1604  -14.8010  -40.9702 N.am      6 UNK        -0.5000 
     45 C           0.8360  -14.6641  -42.2626 C.2       5 UNK         0.5000 
     46 O           0.6391  -15.6206  -43.0148 O.2       5 UNK        -0.5000 
     47 CA          0.7450  -13.2338  -42.8350 C.3       5 UNK         0.1400 
     48 CB          1.2243  -12.1215  -41.8744 C.3       5 UNK        -0.1800 
     49 N           1.4324  -13.1513  -44.1272 N.am      5 UNK        -0.5000 
     50 C           2.7313  -13.3940  -44.3535 C.2       4 UNK         0.5000 
     51 O           3.5442  -13.6080  -43.4523 O.2       4 UNK        -0.5000 
     52 CA          3.2050  -13.4243  -45.8186 C.3       4 UNK         0.1400 
     53 CB          4.3275  -14.4626  -46.0365 C.3       4 UNK        -0.1800 
     54 N           2.1121  -13.6526  -46.7734 N.am      4 UNK        -0.5000 
     55 C           2.1757  -13.3012  -48.0664 C.2       3 UNK         0.5000 
     56 O           3.1175  -12.6758  -48.5563 O.2       3 UNK        -0.5000 
     57 CA          1.0141  -13.7285  -48.9844 C.3       3 UNK         0.1400 
     58 CB          1.2615  -15.1425  -49.5300 C.3       3 UNK        -0.1800 
     59 N          -0.3042  -13.6811  -48.3525 N.am      3 UNK        -0.5000 
     60 C          -0.9224  -12.5618  -47.9512 C.2       2 UNK         0.5000 
     61 O          -0.4371  -11.4365  -48.0722 O.2       2 UNK        -0.5000 
     62 CA         -2.3225  -12.7088  -47.3136 C.3       2 UNK         0.1400 
     63 CB         -3.4079  -12.2961  -48.3204 C.3       2 UNK        -0.1800 
     64 N          -2.6560  -14.0413  -46.7931 N.am      2 UNK        -0.5000 
     65 C          -1.9712  -14.7049  -45.8543 C.2       1 UNK         0.5000 
     66 O          -0.9042  -14.3036  -45.3886 O.2       1 UNK        -0.5000 
     67 C          -1.2250  -22.6174  -47.4960 C.2       11 UNK         0.5000 
     68 O          -1.7866  -23.4426  -48.2136 O.2       11 UNK        -0.5000 
     69 N          -1.8515  -21.8774  -46.5691 N.am      12 UNK        -0.5000 
     70 CA         -3.2873  -21.9339  -46.2963 C.3       12 UNK         0.1400 
     71 CB         -3.6540  -20.9115  -45.2133 C.3       12 UNK        -0.1800 
     72 C          -3.7681  -23.3401  -45.9007 C.2       12 UNK         0.5000 
     73 O          -4.7940  -23.7884  -46.4101 O.2       12 UNK        -0.5000 
     74 N          -2.9973  -24.0227  -45.0442 N.am      13 UNK        -0.5000 
     75 CA         -3.2370  -25.4046  -44.6332 C.3       13 UNK         0.1400 
     76 CB         -2.2683  -25.7714  -43.4986 C.3       13 UNK        -0.1800 
     77 C          -3.1197  -26.4094  -45.7952 C.2       13 UNK         0.5000 
     78 O          -3.9574  -27.3052  -45.9053 O.2       13 UNK        -0.5000 
     79 N          -2.0926  -26.2431  -46.6398 N.am      14 UNK        -0.5000 
     80 CA         -1.8163  -27.1151  -47.7817 C.3       14 UNK         0.1400 
     81 CB         -0.3761  -26.8813  -48.2640 C.3       14 UNK        -0.1800 
     82 C          -2.8111  -26.9270  -48.9410 C.2       14 UNK         0.5000 
     83 O          -3.2910  -27.9151  -49.4980 O.2       14 UNK        -0.5000 
     84 N          -3.0915  -25.6662  -49.2911 N.am      15 UNK        -0.5000 
     85 CA         -3.9113  -25.2823  -50.4413 C.3       15 UNK         0.1400 
     86 CB         -3.3981  -23.9357  -50.9759 C.3       15 UNK        -0.1800 
     87 C          -5.4160  -25.1937  -50.1252 C.2       15 UNK         0.5000 
     88 O          -6.1990  -24.9522  -51.0433 O.2       15 UNK        -0.5000 
     89 N          -5.7972  -25.3518  -48.8486 N.am      16 UNK        -0.5000 
     90 CA         -7.1513  -25.1799  -48.3052 C.3       16 UNK         0.1400 
     91 CB         -8.1146  -26.2536  -48.8534 C.3       16 UNK        -0.1800 
     92 C          -7.6615  -23.7359  -48.5024 C.2       16 UNK         0.5000 
     93 O          -8.7647  -23.5177  -49.0053 O.2       16 UNK        -0.5000 
     94 N          -6.8027  -22.7808  -48.1204 N.am      17 UNK        -0.5000 
     95 CA         -6.9570  -21.3225  -48.1827 C.3       17 UNK         0.1400 
     96 CB         -8.1442  -20.8590  -47.3143 C.3       17 UNK        -0.1800 
     97 C          -7.0052  -20.7215  -49.6055 C.2       17 UNK         0.5000 
     98 O          -7.2334  -19.5175  -49.7344 O.2       17 UNK        -0.5000 
     99 N          -6.7721  -21.5318  -50.6477 N.am      18 UNK        -0.5000 
    100 CA        -6.6584  -21.0709  -52.0308 C.3       18 UNK         0.1400 
    101 CB        -6.8208  -22.2638  -52.9840 C.3       18 UNK        -0.1800 
    102 C         -5.3057  -20.3769  -52.2624 C.2       18 UNK         0.5000 
    103 O         -4.2822  -20.8512  -51.7652 O.2       18 UNK        -0.5000 
    104 N         -5.3158  -19.2883  -53.0399 N.am      19 UNK        -0.5000 
    105 CA        -4.1351  -18.4911  -53.3722 C.3       19 UNK         0.1400 
    106 CB        -4.5763  -17.0524  -53.6941 C.3       19 UNK        -0.1800 
    107 C         -3.3139  -19.1347  -54.5075 C.2       19 UNK         0.5000 
    108 O         -3.2251  -18.5787  -55.6041 O.2       19 UNK        -0.5000 
    109 N         -2.7594  -20.3221  -54.2375 N.am      20 UNK        -0.5000 
    110 CA        -1.9501  -21.1045  -55.1712 C.3       20 UNK         0.1400 
    111 CB        -1.6024  -22.4571  -54.5305 C.3       20 UNK        -0.1800 
    112 C         -0.6732  -20.3565  -55.6018 C.2       20 UNK         0.5000 
    113 O          0.0557  -19.8537  -54.7461 O.2       20 UNK        -0.5000 
    114 N         -0.4337  -20.3058  -56.9185 N.am      21 UNK        -0.5000 
    115 CA         0.6772  -19.6537  -57.6241 C.3       21 UNK         0.1400 
    116 CB         2.0441  -20.2249  -57.1970 C.3       21 UNK        -0.1800 
    117 C          0.6582  -18.1132  -57.5545 C.2       21 UNK         0.5000 
    118 O          0.6262  -17.4679  -58.6033 O.2       21 UNK        -0.5000 
    119 N          0.6857  -17.5498  -56.3415 N.am      22 UNK        -0.5000 
    120 CA         0.6852  -16.0993  -56.0812 C.3       22 UNK         0.1400 
    121 C         -0.6931  -15.3907  -56.2346 C.2       22 UNK         0.5000 
    122 N         -1.8077  -16.0950  -56.3808 N.am      22 UNK        -0.7600 
    123 O         -0.7510  -14.1641  -56.2402 O.2       22 UNK        -0.5000 
    124 C124        1.4096  -15.7168  -54.7555 C.3       23 UNK        -0.0398 
    125 S125        1.1423  -16.8334  -53.3347 S.3       23 UNK        -0.2404 
    126 C126       -0.5411  -16.3806  -52.8019 C.3       23 UNK        -0.0205 
    127 H127       -4.1008  -18.0321  -44.3203 H         1 UNK         0.0600 
    128 H128       -4.0593  -18.5662  -42.6502 H         1 UNK         0.0600 
    129 H129       -4.7124  -16.9747  -43.0433 H         1 UNK         0.0600 
    130 H130       -1.0705  -15.9635  -43.9165 H         1 UNK         0.3000 
    131 H131       -3.6257  -15.8641  -45.2362 H         1 UNK         0.0600 
    132 H132       -1.5985  -16.9113  -47.1925 H         1 UNK         0.0800 
    133 H133       -1.9632  -18.0723  -45.9707 H         1 UNK         0.0800 
    134 H134       -3.5323  -15.8219  -48.8079 H         1 UNK         0.0800 
    135 H135       -4.6609  -16.9866  -49.4493 H         1 UNK         0.0800 
    136 H136       -2.2883  -15.6718  -50.8617 H         1 UNK         0.1150 
    137 H137       -0.1083  -19.0691  -52.3045 H         1 UNK         0.1150 
    138 H138       -2.7866  -19.5112  -49.0116 H         1 UNK         0.1150 
    139 H139       -1.7981  -21.4421  -49.9687 H         1 UNK         0.0800 
    140 H140       -1.2965  -21.3082  -51.6201 H         1 UNK         0.0800 
    141 H141       -0.0192  -20.2863  -48.0882 H         1 UNK         0.0800 
    142 H142        1.6427  -20.7907  -48.1048 H         1 UNK         0.0800 
    143 H143        0.6899  -23.2682  -48.1864 H         1 UNK         0.0600 
    144 H144        1.1847  -21.6290  -45.8679 H         1 UNK         0.3000 
    145 H145        1.0618  -24.2686  -43.4924 H         1 UNK         0.0600 
    146 H146        3.3959  -23.5606  -43.0439 H         1 UNK         0.0600 
    147 H147        3.3358  -24.5397  -44.5009 H         1 UNK         0.0600 
    148 H148        3.5004  -22.7920  -44.6278 H         1 UNK         0.0600 
    149 H149        1.8329  -21.5125  -43.3343 H         1 UNK         0.3000 
    150 H150       -1.3872  -20.0808  -43.0652 H         1 UNK         0.0600 
    151 H151       -1.0689  -20.9390  -40.7546 H         1 UNK         0.0600 
    152 H152       -0.5314  -19.2711  -40.8719 H         1 UNK         0.0600 
    153 H153        0.6517  -20.5779  -40.8319 H         1 UNK         0.0600 
    154 H154        1.1719  -18.9378  -42.6994 H         1 UNK         0.3000 
    155 H155        2.4827  -18.8610  -45.7434 H         1 UNK         0.0600 
    156 H156        0.5497  -16.5110  -45.5244 H         1 UNK         0.0600 
    157 H157        0.7034  -17.5959  -46.9032 H         1 UNK         0.0600 
    158 H158        2.0370  -16.5482  -46.4669 H         1 UNK         0.0600 
    159 H159        2.1034  -16.8228  -43.6195 H         1 UNK         0.3000 
    160 H160        4.6536  -18.1388  -41.6043 H         1 UNK         0.0600 
    161 H161        5.9129  -16.0125  -41.8912 H         1 UNK         0.0600 
    162 H162        5.1295  -15.7402  -43.4461 H         1 UNK         0.0600 
    163 H163        6.2143  -17.1058  -43.2331 H         1 UNK         0.0600 
    164 H164        3.3346  -15.5664  -41.7304 H         1 UNK         0.3000 
    165 H165        0.2877  -16.5622  -40.3137 H         1 UNK         0.0600 
    166 H166        0.7902  -15.1782  -38.3209 H         1 UNK         0.0600 
    167 H167        1.6230  -16.7190  -38.2011 H         1 UNK         0.0600 
    168 H168        2.5207  -15.2745  -38.6529 H         1 UNK         0.0600 
    169 H169        1.3349  -13.9668  -40.4292 H         1 UNK         0.3000 
    170 H170       -0.3121  -13.0583  -43.0381 H         1 UNK         0.0600 
    171 H171        0.6080  -12.0841  -40.9754 H         1 UNK         0.0600 
    172 H172        2.2602  -12.2592  -41.5632 H         1 UNK         0.0600 
    173 H173        1.1514  -11.1428  -42.3486 H         1 UNK         0.0600 
    174 H174        0.8107  -13.0612  -44.9198 H         1 UNK         0.3000 
    175 H175        3.6213  -12.4325  -46.0058 H         1 UNK         0.0600 
    176 H176        4.0002  -15.4688  -45.7756 H         1 UNK         0.0600 
    177 H177        4.6693  -14.4795  -47.0711 H         1 UNK         0.0600 
    178 H178        5.1983  -14.2322  -45.4220 H         1 UNK         0.0600 
    179 H179        1.3000  -14.1518  -46.4339 H         1 UNK         0.3000 
    180 H180        0.9997  -13.0403  -49.8322 H         1 UNK         0.0600 
    181 H181        2.2411  -15.2166  -50.0040 H         1 UNK         0.0600 
    182 H182        0.5221  -15.4029  -50.2835 H         1 UNK         0.0600 
    183 H183        1.2179  -15.8964  -48.7445 H         1 UNK         0.0600 
    184 H184       -0.7758  -14.5611  -48.2158 H         1 UNK         0.3000 
    185 H185       -2.3585  -12.0153  -46.4711 H         1 UNK         0.0600 
    186 H186       -3.2226  -11.2940  -48.7097 H         1 UNK         0.0600 
    187 H187       -3.4448  -12.9770  -49.1718 H         1 UNK         0.0600 
    188 H188       -4.3942  -12.2829  -47.8563 H         1 UNK         0.0600 
    189 H189       -3.5256  -14.4335  -47.1230 H         1 UNK         0.3000 
    190 H190       -1.3048  -21.2108  -46.0332 H         1 UNK         0.3000 
    191 H191       -3.7962  -21.6518  -47.2198 H         1 UNK         0.0600 
    192 H192       -3.2499  -21.1859  -44.2393 H         1 UNK         0.0600 
    193 H193       -4.7362  -20.8278  -45.1073 H         1 UNK         0.0600 
    194 H194       -3.2727  -19.9248  -45.4641 H         1 UNK         0.0600 
    195 H195       -2.2000  -23.5526  -44.6244 H         1 UNK         0.3000 
    196 H196       -4.2554  -25.4647  -44.2437 H         1 UNK         0.0600 
    197 H197       -2.4316  -26.7951  -43.1594 H         1 UNK         0.0600 
    198 H198       -2.4052  -25.1171  -42.6375 H         1 UNK         0.0600 
    199 H199       -1.2280  -25.6908  -43.8161 H         1 UNK         0.0600 
    200 H200       -1.4364  -25.4886  -46.4761 H         1 UNK         0.3000 
    201 H201       -1.8915  -28.1513  -47.4451 H         1 UNK         0.0600 
    202 H202       -0.2173  -25.8476  -48.5738 H         1 UNK         0.0600 
    203 H203        0.3434  -27.1071  -47.4768 H         1 UNK         0.0600 
    204 H204       -0.1386  -27.5209  -49.1150 H         1 UNK         0.0600 
    205 H205       -2.6361  -24.9021  -48.7919 H         1 UNK         0.3000 
    206 H206       -3.7878  -26.0249  -51.2322 H         1 UNK         0.0600 
    207 H207       -3.5866  -23.1273  -50.2685 H         1 UNK         0.0600 
    208 H208       -2.3263  -23.9660  -51.1724 H         1 UNK         0.0600 
    209 H209       -3.8896  -23.6708  -51.9121 H         1 UNK         0.0600 
    210 H210       -5.0693  -25.5018  -48.1627 H         1 UNK         0.3000 
    211 H211       -7.0710  -25.3331  -47.2279 H         1 UNK         0.0600 
    212 H212       -8.2927  -26.1374  -49.9227 H         1 UNK         0.0600 
    213 H213       -9.0828  -26.1964  -48.3549 H         1 UNK         0.0600 
    214 H214       -7.7218  -27.2565  -48.6858 H         1 UNK         0.0600 
    215 H215       -5.9482  -23.1068  -47.6736 H         1 UNK         0.3000 
    216 H216       -6.0529  -20.9144  -47.7297 H         1 UNK         0.0600 
    217 H217       -9.1007  -21.1679  -47.7363 H         1 UNK         0.0600 
    218 H218       -8.1641  -19.7723  -47.2251 H         1 UNK         0.0600 
    219 H219       -8.0752  -21.2632  -46.3043 H         1 UNK         0.0600 
    220 H220       -6.5787  -22.5084  -50.4770 H         1 UNK         0.3000 
    221 H221       -7.4655  -20.3623  -52.2291 H         1 UNK         0.0600 
    222 H222       -6.0074  -22.9811  -52.8751 H         1 UNK         0.0600 
    223 H223       -7.7580  -22.7906  -52.8035 H         1 UNK         0.0600 
    224 H224       -6.8260  -21.9335  -54.0233 H         1 UNK         0.0600 
    225 H225       -6.1879  -18.9826  -53.4465 H         1 UNK         0.3000 
    226 H226       -3.4933  -18.4466  -52.4940 H         1 UNK         0.0600 
    227 H227       -5.0884  -16.6000  -52.8447 H         1 UNK         0.0600 
    228 H228       -3.7162  -16.4225  -53.9238 H         1 UNK         0.0600 
    229 H229       -5.2492  -17.0174  -54.5516 H         1 UNK         0.0600 
    230 H230       -2.9124  -20.7116  -53.3140 H         1 UNK         0.3000 
    231 H231       -2.5657  -21.2944  -56.0528 H         1 UNK         0.0600 
    232 H232       -2.4987  -22.9852  -54.2040 H         1 UNK         0.0600 
    233 H233       -0.9475  -22.3392  -53.6671 H         1 UNK         0.0600 
    234 H234       -1.0860  -23.1014  -55.2429 H         1 UNK         0.0600 
    235 H235       -1.1183  -20.7298  -57.5292 H         1 UNK         0.3000 
    236 H236        0.5410  -19.9153  -58.6748 H         1 UNK         0.0600 
    237 H237        2.8452  -19.8082  -57.8086 H         1 UNK         0.0600 
    238 H238        2.2808  -19.9975  -56.1574 H         1 UNK         0.0600 
    239 H239        2.0732  -21.3078  -57.3177 H         1 UNK         0.0600 
    240 H240        0.6614  -18.1585  -55.5276 H         1 UNK         0.3000 
    241 H241        1.2859  -15.6493  -56.8743 H         1 UNK         0.0600 
    242 H242       -2.6803  -15.6057  -56.4957 H         1 UNK         0.3800 
    243 H243       -1.8160  -17.1051  -56.3393 H         1 UNK         0.3800 
    244 H244        1.1885  -14.6920  -54.4516 H         1 UNK         0.0800 
    245 H245        2.4841  -15.7254  -54.9421 H         1 UNK         0.0800 
    246 H246       -0.5447  -15.3312  -52.5039 H         1 UNK         0.0800 
    247 H247       -1.2189  -16.4710  -53.6489 H         1 UNK         0.0800 
@<TRIPOS>BOND
     1    1    2 1    
     2    1  127 1    
     3    1  128 1    
     4    1  129 1    
     5    2    3 2    
     6    2    4 am   BACKBONE|DICT|INTERRES
     7    4    5 1    
     8    4  130 1    
     9    5    6 1    
    10    5   65 1    
    11    5  131 1    
    12    6    7 1    
    13    6  132 1    
    14    6  133 1    
    15    7    8 1    
    16    8    9 1    
    17    8  134 1    
    18    8  135 1    
    19    9   10 ar   
    20    9   14 ar   
    21   10   11 ar   
    22   10  136 1    
    23   11   12 ar   
    24   11  126 1    
    25   12   13 ar   
    26   12  137 1    
    27   13   14 ar   
    28   13   15 1    
    29   14  138 1    
    30   15   16 1    
    31   15  139 1    
    32   15  140 1    
    33   16   17 1    
    34   17   18 1    
    35   17  141 1    
    36   17  142 1    
    37   18   19 1    
    38   18   67 1    
    39   18  143 1    
    40   19   20 am   BACKBONE|DICT|INTERRES
    41   19  144 1    
    42   20   21 2    
    43   20   22 1    
    44   22   23 1    
    45   22   24 1    
    46   22  145 1    
    47   23  146 1    
    48   23  147 1    
    49   23  148 1    
    50   24   25 am   BACKBONE|DICT|INTERRES
    51   24  149 1    
    52   25   26 2    
    53   25   27 1    
    54   27   28 1    
    55   27   29 1    
    56   27  150 1    
    57   28  151 1    
    58   28  152 1    
    59   28  153 1    
    60   29   30 am   BACKBONE|DICT|INTERRES
    61   29  154 1    
    62   30   31 2    
    63   30   32 1    
    64   32   33 1    
    65   32   34 1    
    66   32  155 1    
    67   33  156 1    
    68   33  157 1    
    69   33  158 1    
    70   34   35 am   BACKBONE|DICT|INTERRES
    71   34  159 1    
    72   35   36 2    
    73   35   37 1    
    74   37   38 1    
    75   37   39 1    
    76   37  160 1    
    77   38  161 1    
    78   38  162 1    
    79   38  163 1    
    80   39   40 am   BACKBONE|DICT|INTERRES
    81   39  164 1    
    82   40   41 2    
    83   40   42 1    
    84   42   43 1    
    85   42   44 1    
    86   42  165 1    
    87   43  166 1    
    88   43  167 1    
    89   43  168 1    
    90   44   45 am   BACKBONE|DICT|INTERRES
    91   44  169 1    
    92   45   46 2    
    93   45   47 1    
    94   47   48 1    
    95   47   49 1    
    96   47  170 1    
    97   48  171 1    
    98   48  172 1    
    99   48  173 1    
   100   49   50 am   BACKBONE|DICT|INTERRES
   101   49  174 1    
   102   50   51 2    
   103   50   52 1    
   104   52   53 1    
   105   52   54 1    
   106   52  175 1    
   107   53  176 1    
   108   53  177 1    
   109   53  178 1    
   110   54   55 am   BACKBONE|DICT|INTERRES
   111   54  179 1    
   112   55   56 2    
   113   55   57 1    
   114   57   58 1    
   115   57   59 1    
   116   57  180 1    
   117   58  181 1    
   118   58  182 1    
   119   58  183 1    
   120   59   60 am   BACKBONE|DICT|INTERRES
   121   59  184 1    
   122   60   61 2    
   123   60   62 1    
   124   62   63 1    
   125   62   64 1    
   126   62  185 1    
   127   63  186 1    
   128   63  187 1    
   129   63  188 1    
   130   64   65 am   BACKBONE|DICT|INTERRES
   131   64  189 1    
   132   65   66 2    
   133   67   68 2    
   134   67   69 am   BACKBONE|DICT|INTERRES
   135   69   70 1    
   136   69  190 1    
   137   70   71 1    
   138   70   72 1    
   139   70  191 1    
   140   71  192 1    
   141   71  193 1    
   142   71  194 1    
   143   72   73 2    
   144   72   74 am   BACKBONE|DICT|INTERRES
   145   74   75 1    
   146   74  195 1    
   147   75   76 1    
   148   75   77 1    
   149   75  196 1    
   150   76  197 1    
   151   76  198 1    
   152   76  199 1    
   153   77   78 2    
   154   77   79 am   BACKBONE|DICT|INTERRES
   155   79   80 1    
   156   79  200 1    
   157   80   81 1    
   158   80   82 1    
   159   80  201 1    
   160   81  202 1    
   161   81  203 1    
   162   81  204 1    
   163   82   83 2    
   164   82   84 am   BACKBONE|DICT|INTERRES
   165   84   85 1    
   166   84  205 1    
   167   85   86 1    
   168   85   87 1    
   169   85  206 1    
   170   86  207 1    
   171   86  208 1    
   172   86  209 1    
   173   87   88 2    
   174   87   89 am   BACKBONE|DICT|INTERRES
   175   89   90 1    
   176   89  210 1    
   177   90   91 1    
   178   90   92 1    
   179   90  211 1    
   180   91  212 1    
   181   91  213 1    
   182   91  214 1    
   183   92   93 2    
   184   92   94 am   BACKBONE|DICT|INTERRES
   185   94   95 1    
   186   94  215 1    
   187   95   96 1    
   188   95   97 1    
   189   95  216 1    
   190   96  217 1    
   191   96  218 1    
   192   96  219 1    
   193   97   98 2    
   194   97   99 am   BACKBONE|DICT|INTERRES
   195   99  100 1    
   196   99  220 1    
   197  100  101 1    
   198  100  102 1    
   199  100  221 1    
   200  101  222 1    
   201  101  223 1    
   202  101  224 1    
   203  102  103 2    
   204  102  104 am   BACKBONE|DICT|INTERRES
   205  104  105 1    
   206  104  225 1    
   207  105  106 1    
   208  105  107 1    
   209  105  226 1    
   210  106  227 1    
   211  106  228 1    
   212  106  229 1    
   213  107  108 2    
   214  107  109 am   BACKBONE|DICT|INTERRES
   215  109  110 1    
   216  109  230 1    
   217  110  111 1    
   218  110  112 1    
   219  110  231 1    
   220  111  232 1    
   221  111  233 1    
   222  111  234 1    
   223  112  113 2    
   224  112  114 am   BACKBONE|DICT|INTERRES
   225  114  115 1    
   226  114  235 1    
   227  115  116 1    
   228  115  117 1    
   229  115  236 1    
   230  116  237 1    
   231  116  238 1    
   232  116  239 1    
   233  117  118 2    
   234  117  119 am   BACKBONE|DICT|INTERRES
   235  119  120 1    
   236  119  240 1    
   237  120  121 1    
   238  120  124 1    
   239  120  241 1    
   240  121  122 am   BACKBONE|DICT|INTERRES
   241  121  123 2    
   242  122  242 1    
   243  122  243 1    
   244  124  125 1    
   245  124  244 1    
   246  124  245 1    
   247  125  126 1    
   248  126  246 1    
   249  126  247 1    
@<TRIPOS>SUBSTRUCTURE
     1 UNK         1 GROUP             0       ****    0 ROOT    
