@<TRIPOS>MOLECULE
3R540
247   249    1
SMALL
USER_CHARGES


@<TRIPOS>ATOM
      1 CA          5.0665  -11.9634  -51.5576 C.3       0 UNK        -0.1800 
      2 C           4.5612  -11.9030  -50.1234 C.2       0 UNK         0.5000 
      3 O           5.0501  -11.0959  -49.3317 O.2       0 UNK        -0.5000 
      4 N           3.5739  -12.7411  -49.7857 N.am      1 UNK        -0.5000 
      5 CA          2.9585  -12.8484  -48.4565 C.3       1 UNK         0.1400 
      6 C6          2.3774  -14.2620  -48.1924 C.3       23 UNK        -0.0398 
      7 S7          3.6449  -15.5764  -48.2610 S.3       23 UNK        -0.2404 
      8 C8          3.4092  -16.2576  -49.9344 C.3       23 UNK        -0.0205 
      9 C9          2.3989  -17.3952  -49.9607 C.ar      23 UNK        -0.0193 
     10 C10         1.0334  -17.1289  -50.0915 C.ar      23 UNK        -0.1150 
     11 C11         0.1057  -18.1724  -50.1535 C.ar      23 UNK        -0.0193 
     12 C12         0.5552  -19.4945  -50.0789 C.ar      23 UNK        -0.1150 
     13 C13         1.9193  -19.7770  -49.9531 C.ar      23 UNK        -0.0193 
     14 C14         2.8350  -18.7220  -49.8942 C.ar      23 UNK        -0.1150 
     15 C15         2.4020  -21.2226  -49.9105 C.3       23 UNK        -0.0205 
     16 S16         3.2759  -21.6538  -48.3662 S.3       23 UNK        -0.2404 
     17 C17         2.0214  -21.2906  -47.0918 C.3       23 UNK        -0.0398 
     18 CA          1.2318  -22.5241  -46.5909 C.3       11 UNK         0.1400 
     19 N           0.4622  -22.1992  -45.3880 N.am      11 UNK        -0.5000 
     20 C          -0.2462  -23.0641  -44.6500 C.2       10 UNK         0.5000 
     21 O          -0.2753  -24.2762  -44.8561 O.2       10 UNK        -0.5000 
     22 CA         -1.1099  -22.4670  -43.5231 C.3       10 UNK         0.1400 
     23 CB         -0.2710  -22.2223  -42.2607 C.3       10 UNK        -0.1800 
     24 N          -1.7829  -21.2289  -43.9251 N.am      10 UNK        -0.5000 
     25 C          -2.7082  -21.1564  -44.8937 C.2       9 UNK         0.5000 
     26 O          -3.1269  -22.1365  -45.5078 O.2       9 UNK        -0.5000 
     27 CA         -3.2207  -19.7569  -45.2775 C.3       9 UNK         0.1400 
     28 CB         -4.3065  -19.2797  -44.3028 C.3       9 UNK        -0.1800 
     29 N          -2.1501  -18.7641  -45.3533 N.am      9 UNK        -0.5000 
     30 C          -1.1467  -18.7972  -46.2417 C.2       8 UNK         0.5000 
     31 O          -1.0546  -19.6455  -47.1290 O.2       8 UNK        -0.5000 
     32 CA         -0.0323  -17.7452  -46.0655 C.3       8 UNK         0.1400 
     33 CB         -0.4611  -16.3800  -46.6238 C.3       8 UNK        -0.1800 
     34 N           0.3584  -17.5888  -44.6626 N.am      8 UNK        -0.5000 
     35 C           0.9014  -18.5556  -43.9098 C.2       7 UNK         0.5000 
     36 O           1.1940  -19.6701  -44.3373 O.2       7 UNK        -0.5000 
     37 CA          1.0968  -18.2488  -42.4162 C.3       7 UNK         0.1400 
     38 CB          2.4333  -17.5334  -42.1688 C.3       7 UNK        -0.1800 
     39 N          -0.0090  -17.4532  -41.8827 N.am      7 UNK        -0.5000 
     40 C          -1.2409  -17.9356  -41.6627 C.2       6 UNK         0.5000 
     41 O          -1.5528  -19.1125  -41.8428 O.2       6 UNK        -0.5000 
     42 CA         -2.3137  -16.9277  -41.2075 C.3       6 UNK         0.1400 
     43 CB         -2.2576  -16.7278  -39.6859 C.3       6 UNK        -0.1800 
     44 N          -2.1869  -15.6299  -41.8729 N.am      6 UNK        -0.5000 
     45 C          -2.3831  -15.4305  -43.1841 C.2       5 UNK         0.5000 
     46 O          -2.7581  -16.3122  -43.9552 O.2       5 UNK        -0.5000 
     47 CA         -2.0571  -14.0287  -43.7381 C.3       5 UNK         0.1400 
     48 CB         -3.3101  -13.1412  -43.7270 C.3       5 UNK        -0.1800 
     49 N          -0.9718  -13.3427  -43.0284 N.am      5 UNK        -0.5000 
     50 C           0.2785  -13.8086  -42.8981 C.2       4 UNK         0.5000 
     51 O           0.6501  -14.8896  -43.3576 O.2       4 UNK        -0.5000 
     52 CA          1.2510  -12.9068  -42.1121 C.3       4 UNK         0.1400 
     53 CB          2.6454  -13.5394  -41.9170 C.3       4 UNK        -0.1800 
     54 N           1.3483  -11.5661  -42.7015 N.am      4 UNK        -0.5000 
     55 C           1.8126  -11.2563  -43.9202 C.2       3 UNK         0.5000 
     56 O           2.2848  -12.0756  -44.7146 O.2       3 UNK        -0.5000 
     57 CA          1.7487   -9.7693  -44.3070 C.3       3 UNK         0.1400 
     58 CB          2.8245   -8.9576  -43.5662 C.3       3 UNK        -0.1800 
     59 N           1.9832   -9.6623  -45.7407 N.am      3 UNK        -0.5000 
     60 C           1.2049   -9.0434  -46.6333 C.2       2 UNK         0.5000 
     61 O           0.2414   -8.3370  -46.3341 O.2       2 UNK        -0.5000 
     62 CA          1.5587   -9.2658  -48.1182 C.3       2 UNK         0.1400 
     63 CB          2.3218   -8.0560  -48.6790 C.3       2 UNK        -0.1800 
     64 N           2.3602  -10.4736  -48.3401 N.am      2 UNK        -0.5000 
     65 C           1.9077  -11.7321  -48.2559 C.2       1 UNK         0.5000 
     66 O           0.7255  -12.0136  -48.0523 O.2       1 UNK        -0.5000 
     67 C           0.3289  -23.1231  -47.6891 C.2       11 UNK         0.5000 
     68 O           0.6501  -24.1822  -48.2288 O.2       11 UNK        -0.5000 
     69 N          -0.8054  -22.4637  -47.9665 N.am      12 UNK        -0.5000 
     70 CA         -1.8207  -22.9345  -48.9084 C.3       12 UNK         0.1400 
     71 CB         -2.8992  -21.8606  -49.0835 C.3       12 UNK        -0.1800 
     72 C          -2.4472  -24.2786  -48.4955 C.2       12 UNK         0.5000 
     73 O          -2.5902  -25.1607  -49.3411 O.2       12 UNK        -0.5000 
     74 N          -2.7624  -24.4315  -47.2016 N.am      13 UNK        -0.5000 
     75 CA         -3.2832  -25.6670  -46.6159 C.3       13 UNK         0.1400 
     76 CB         -3.7065  -25.4168  -45.1610 C.3       13 UNK        -0.1800 
     77 C          -2.2866  -26.8372  -46.7063 C.2       13 UNK         0.5000 
     78 O          -2.6899  -27.9434  -47.0649 O.2       13 UNK        -0.5000 
     79 N          -1.0018  -26.5687  -46.4318 N.am      14 UNK        -0.5000 
     80 CA          0.0999  -27.5258  -46.5679 C.3       14 UNK         0.1400 
     81 CB          1.3761  -26.9328  -45.9521 C.3       14 UNK        -0.1800 
     82 C           0.3457  -27.9537  -48.0276 C.2       14 UNK         0.5000 
     83 O           0.6491  -29.1209  -48.2765 O.2       14 UNK        -0.5000 
     84 N           0.1708  -27.0143  -48.9667 N.am      15 UNK        -0.5000 
     85 CA          0.2122  -27.2501  -50.4117 C.3       15 UNK         0.1400 
     86 CB          0.4290  -25.9053  -51.1251 C.3       15 UNK        -0.1800 
     87 C          -1.0483  -27.9559  -50.9591 C.2       15 UNK         0.5000 
     88 O          -1.0365  -28.3827  -52.1144 O.2       15 UNK        -0.5000 
     89 N          -2.1039  -28.0549  -50.1358 N.am      16 UNK        -0.5000 
     90 CA         -3.4395  -28.5792  -50.4375 C.3       16 UNK         0.1400 
     91 CB         -3.3852  -30.0938  -50.7269 C.3       16 UNK        -0.1800 
     92 C          -4.1539  -27.7676  -51.5390 C.2       16 UNK         0.5000 
     93 O          -4.7843  -28.3439  -52.4282 O.2       16 UNK        -0.5000 
     94 N          -4.0252  -26.4392  -51.4607 N.am      17 UNK        -0.5000 
     95 CA         -4.5649  -25.4688  -52.4066 C.3       17 UNK         0.1400 
     96 CB         -3.3800  -24.7916  -53.1150 C.3       17 UNK        -0.1800 
     97 C          -5.4332  -24.4306  -51.6753 C.2       17 UNK         0.5000 
     98 O          -5.4847  -24.4108  -50.4427 O.2       17 UNK        -0.5000 
     99 N          -6.1022  -23.5729  -52.4558 N.am      18 UNK        -0.5000 
    100 CA        -6.8519  -22.4190  -51.9593 C.3       18 UNK         0.1400 
    101 CB        -7.7331  -21.8691  -53.0917 C.3       18 UNK        -0.1800 
    102 C         -5.9032  -21.3209  -51.4470 C.2       18 UNK         0.5000 
    103 O         -4.8188  -21.1462  -52.0076 O.2       18 UNK        -0.5000 
    104 N         -6.3367  -20.5950  -50.4094 N.am      19 UNK        -0.5000 
    105 CA        -5.5950  -19.4782  -49.8173 C.3       19 UNK         0.1400 
    106 CB        -5.8377  -19.4666  -48.2999 C.3       19 UNK        -0.1800 
    107 C         -5.9861  -18.1211  -50.4299 C.2       19 UNK         0.5000 
    108 O         -5.1781  -17.1940  -50.3997 O.2       19 UNK        -0.5000 
    109 N         -7.2113  -18.0195  -50.9687 N.am      20 UNK        -0.5000 
    110 CA        -7.7488  -16.8050  -51.5942 C.3       20 UNK         0.1400 
    111 CB        -9.2691  -16.9563  -51.7571 C.3       20 UNK        -0.1800 
    112 C         -7.0905  -16.4853  -52.9503 C.2       20 UNK         0.5000 
    113 O         -6.9911  -15.3168  -53.3259 O.2       20 UNK        -0.5000 
    114 N         -6.6420  -17.5350  -53.6427 N.am      21 UNK        -0.5000 
    115 CA        -5.8527  -17.4931  -54.8632 C.3       21 UNK         0.1400 
    116 CB        -6.7689  -17.7087  -56.0817 C.3       21 UNK        -0.1800 
    117 C         -4.8034  -18.5953  -54.6910 C.2       21 UNK         0.5000 
    118 O         -5.0744  -19.7426  -55.0458 O.2       21 UNK        -0.5000 
    119 N         -3.6903  -18.2222  -54.0444 N.am      22 UNK        -0.5000 
    120 CA        -2.6239  -19.0741  -53.4885 C.3       22 UNK         0.1400 
    121 C         -2.2172  -20.2924  -54.3619 C.2       22 UNK         0.5000 
    122 N         -2.6387  -21.4885  -53.9785 N.am      22 UNK        -0.7600 
    123 O         -1.5046  -20.1595  -55.3542 O.2       22 UNK        -0.5000 
    124 C124       -1.3786  -18.2377  -53.1048 C.3       23 UNK        -0.0398 
    125 S125       -1.7538  -16.9693  -51.8479 S.3       23 UNK        -0.2404 
    126 C126       -1.3799  -17.8690  -50.3073 C.3       23 UNK        -0.0205 
    127 H127        4.9191  -11.0012  -52.0479 H         1 UNK         0.0600 
    128 H128        4.5469  -12.7254  -52.1390 H         1 UNK         0.0600 
    129 H129        6.1317  -12.1943  -51.5699 H         1 UNK         0.0600 
    130 H130        3.1868  -13.3480  -50.4926 H         1 UNK         0.3000 
    131 H131        3.7317  -12.6795  -47.7033 H         1 UNK         0.0600 
    132 H132        1.9437  -14.2946  -47.1919 H         1 UNK         0.0800 
    133 H133        1.5645  -14.4843  -48.8827 H         1 UNK         0.0800 
    134 H134        3.1061  -15.4722  -50.6270 H         1 UNK         0.0800 
    135 H135        4.3739  -16.6159  -50.2970 H         1 UNK         0.0800 
    136 H136        0.6851  -16.1094  -50.1650 H         1 UNK         0.1150 
    137 H137       -0.1577  -20.3054  -50.1241 H         1 UNK         0.1150 
    138 H138        3.8903  -18.9373  -49.8020 H         1 UNK         0.1150 
    139 H139        1.5705  -21.9135  -50.0560 H         1 UNK         0.0800 
    140 H140        3.0789  -21.3883  -50.7495 H         1 UNK         0.0800 
    141 H141        1.3487  -20.5072  -47.4361 H         1 UNK         0.0800 
    142 H142        2.5664  -20.8528  -46.2551 H         1 UNK         0.0800 
    143 H143        1.9523  -23.2932  -46.3048 H         1 UNK         0.0600 
    144 H144        0.4814  -21.2248  -45.0975 H         1 UNK         0.3000 
    145 H145       -1.8826  -23.1974  -43.2755 H         1 UNK         0.0600 
    146 H146        0.1975  -23.1465  -41.9202 H         1 UNK         0.0600 
    147 H147        0.5241  -21.4988  -42.4377 H         1 UNK         0.0600 
    148 H148       -0.8878  -21.8497  -41.4428 H         1 UNK         0.0600 
    149 H149       -1.5300  -20.3857  -43.4208 H         1 UNK         0.3000 
    150 H150       -3.6679  -19.8340  -46.2696 H         1 UNK         0.0600 
    151 H151       -5.1257  -19.9977  -44.2491 H         1 UNK         0.0600 
    152 H152       -4.7292  -18.3268  -44.6216 H         1 UNK         0.0600 
    153 H153       -3.9146  -19.1504  -43.2937 H         1 UNK         0.0600 
    154 H154       -2.1952  -17.9933  -44.6928 H         1 UNK         0.3000 
    155 H155        0.8471  -18.0807  -46.6197 H         1 UNK         0.0600 
    156 H156       -1.4513  -16.0878  -46.2755 H         1 UNK         0.0600 
    157 H157        0.2362  -15.5957  -46.3325 H         1 UNK         0.0600 
    158 H158       -0.4909  -16.3975  -47.7115 H         1 UNK         0.0600 
    159 H159        0.2019  -16.6817  -44.2363 H         1 UNK         0.3000 
    160 H160        1.1236  -19.1983  -41.8778 H         1 UNK         0.0600 
    161 H161        2.5107  -16.6044  -42.7330 H         1 UNK         0.0600 
    162 H162        3.2695  -18.1649  -42.4713 H         1 UNK         0.0600 
    163 H163        2.5682  -17.2992  -41.1128 H         1 UNK         0.0600 
    164 H164        0.1524  -16.4597  -41.7958 H         1 UNK         0.3000 
    165 H165       -3.2905  -17.3452  -41.4611 H         1 UNK         0.0600 
    166 H166       -3.0615  -16.0757  -39.3441 H         1 UNK         0.0600 
    167 H167       -2.3682  -17.6792  -39.1637 H         1 UNK         0.0600 
    168 H168       -1.3106  -16.2882  -39.3704 H         1 UNK         0.0600 
    169 H169       -1.8868  -14.8507  -41.3064 H         1 UNK         0.3000 
    170 H170       -1.7392  -14.1543  -44.7747 H         1 UNK         0.0600 
    171 H171       -4.1292  -13.6153  -44.2696 H         1 UNK         0.0600 
    172 H172       -3.6576  -12.9474  -42.7114 H         1 UNK         0.0600 
    173 H173       -3.1181  -12.1811  -44.2065 H         1 UNK         0.0600 
    174 H174       -1.1950  -12.4421  -42.6304 H         1 UNK         0.3000 
    175 H175        0.8159  -12.7765  -41.1202 H         1 UNK         0.0600 
    176 H176        3.1265  -13.7763  -42.8664 H         1 UNK         0.0600 
    177 H177        3.3067  -12.8733  -41.3631 H         1 UNK         0.0600 
    178 H178        2.5726  -14.4681  -41.3502 H         1 UNK         0.0600 
    179 H179        0.9908  -10.8160  -42.1261 H         1 UNK         0.3000 
    180 H180        0.7584   -9.3887  -44.0483 H         1 UNK         0.0600 
    181 H181        3.8267   -9.3358  -43.7719 H         1 UNK         0.0600 
    182 H182        2.6739   -8.9940  -42.4868 H         1 UNK         0.0600 
    183 H183        2.7965   -7.9085  -43.8614 H         1 UNK         0.0600 
    184 H184        2.6969  -10.2858  -46.0920 H         1 UNK         0.3000 
    185 H185        0.6216   -9.3671  -48.6695 H         1 UNK         0.0600 
    186 H186        1.7441   -7.1387  -48.5580 H         1 UNK         0.0600 
    187 H187        3.2768   -7.9128  -48.1717 H         1 UNK         0.0600 
    188 H188        2.5219   -8.1751  -49.7441 H         1 UNK         0.0600 
    189 H189        3.3436  -10.3425  -48.5560 H         1 UNK         0.3000 
    190 H190       -0.9877  -21.5784  -47.5020 H         1 UNK         0.3000 
    191 H191       -1.3336  -23.0821  -49.8744 H         1 UNK         0.0600 
    192 H192       -3.3784  -21.6096  -48.1380 H         1 UNK         0.0600 
    193 H193       -3.6768  -22.2067  -49.7634 H         1 UNK         0.0600 
    194 H194       -2.4804  -20.9467  -49.5009 H         1 UNK         0.0600 
    195 H195       -2.6664  -23.6350  -46.5767 H         1 UNK         0.3000 
    196 H196       -4.1738  -25.9473  -47.1824 H         1 UNK         0.0600 
    197 H197       -4.1314  -26.3182  -44.7178 H         1 UNK         0.0600 
    198 H198       -4.4643  -24.6355  -45.1001 H         1 UNK         0.0600 
    199 H199       -2.8627  -25.1130  -44.5418 H         1 UNK         0.0600 
    200 H200       -0.7571  -25.6425  -46.0902 H         1 UNK         0.3000 
    201 H201       -0.1651  -28.4211  -46.0018 H         1 UNK         0.0600 
    202 H202        1.2343  -26.7060  -44.8953 H         1 UNK         0.0600 
    203 H203        1.6752  -26.0120  -46.4537 H         1 UNK         0.0600 
    204 H204        2.2086  -27.6335  -46.0259 H         1 UNK         0.0600 
    205 H205       -0.0089  -26.0599  -48.6703 H         1 UNK         0.3000 
    206 H206        1.0670  -27.8927  -50.6319 H         1 UNK         0.0600 
    207 H207        1.3395  -25.4160  -50.7783 H         1 UNK         0.0600 
    208 H208        0.5242  -26.0433  -52.2027 H         1 UNK         0.0600 
    209 H209       -0.4029  -25.2215  -50.9556 H         1 UNK         0.0600 
    210 H210       -2.0065  -27.6492  -49.2140 H         1 UNK         0.3000 
    211 H211       -4.0300  -28.4406  -49.5309 H         1 UNK         0.0600 
    212 H212       -2.8564  -30.3127  -51.6548 H         1 UNK         0.0600 
    213 H213       -4.3894  -30.5093  -50.8178 H         1 UNK         0.0600 
    214 H214       -2.8847  -30.6300  -49.9206 H         1 UNK         0.0600 
    215 H215       -3.5358  -26.0348  -50.6630 H         1 UNK         0.3000 
    216 H216       -5.1917  -25.9629  -53.1515 H         1 UNK         0.0600 
    217 H217       -3.7249  -24.1217  -53.9024 H         1 UNK         0.0600 
    218 H218       -2.7274  -25.5291  -53.5831 H         1 UNK         0.0600 
    219 H219       -2.7765  -24.2077  -52.4181 H         1 UNK         0.0600 
    220 H220       -5.9869  -23.6295  -53.4568 H         1 UNK         0.3000 
    221 H221       -7.4955  -22.7474  -51.1404 H         1 UNK         0.0600 
    222 H222       -7.1342  -21.5235  -53.9359 H         1 UNK         0.0600 
    223 H223       -8.4237  -22.6285  -53.4589 H         1 UNK         0.0600 
    224 H224       -8.3326  -21.0251  -52.7485 H         1 UNK         0.0600 
    225 H225       -7.2251  -20.8226  -49.9862 H         1 UNK         0.3000 
    226 H226       -4.5249  -19.6134  -49.9856 H         1 UNK         0.0600 
    227 H227       -5.5360  -20.4099  -47.8447 H         1 UNK         0.0600 
    228 H228       -5.2628  -18.6736  -47.8195 H         1 UNK         0.0600 
    229 H229       -6.8887  -19.3013  -48.0599 H         1 UNK         0.0600 
    230 H230       -7.8205  -18.8228  -50.9428 H         1 UNK         0.3000 
    231 H231       -7.5584  -15.9617  -50.9269 H         1 UNK         0.0600 
    232 H232       -9.7052  -16.0592  -52.1988 H         1 UNK         0.0600 
    233 H233       -9.7557  -17.1119  -50.7941 H         1 UNK         0.0600 
    234 H234       -9.5240  -17.7972  -52.4033 H         1 UNK         0.0600 
    235 H235       -6.7430  -18.4525  -53.2323 H         1 UNK         0.3000 
    236 H236       -5.3438  -16.5320  -54.9663 H         1 UNK         0.0600 
    237 H237       -7.4892  -16.8962  -56.1777 H         1 UNK         0.0600 
    238 H238       -6.1875  -17.7411  -57.0037 H         1 UNK         0.0600 
    239 H239       -7.3285  -18.6422  -56.0103 H         1 UNK         0.0600 
    240 H240       -3.6083  -17.2497  -53.7859 H         1 UNK         0.3000 
    241 H241       -3.0238  -19.4655  -52.5534 H         1 UNK         0.0600 
    242 H242       -3.3200  -21.5579  -53.2278 H         1 UNK         0.3800 
    243 H243       -2.3901  -22.2989  -54.5208 H         1 UNK         0.3800 
    244 H244       -0.5779  -18.8807  -52.7362 H         1 UNK         0.0800 
    245 H245       -0.9751  -17.7355  -53.9856 H         1 UNK         0.0800 
    246 H246       -1.7156  -17.2687  -49.4622 H         1 UNK         0.0800 
    247 H247       -1.9714  -18.7840  -50.2785 H         1 UNK         0.0800 
@<TRIPOS>BOND
     1    1    2 1    
     2    1  127 1    
     3    1  128 1    
     4    1  129 1    
     5    2    3 2    
     6    2    4 am   BACKBONE|DICT|INTERRES
     7    4    5 1    
     8    4  130 1    
     9    5    6 1    
    10    5   65 1    
    11    5  131 1    
    12    6    7 1    
    13    6  132 1    
    14    6  133 1    
    15    7    8 1    
    16    8    9 1    
    17    8  134 1    
    18    8  135 1    
    19    9   10 ar   
    20    9   14 ar   
    21   10   11 ar   
    22   10  136 1    
    23   11   12 ar   
    24   11  126 1    
    25   12   13 ar   
    26   12  137 1    
    27   13   14 ar   
    28   13   15 1    
    29   14  138 1    
    30   15   16 1    
    31   15  139 1    
    32   15  140 1    
    33   16   17 1    
    34   17   18 1    
    35   17  141 1    
    36   17  142 1    
    37   18   19 1    
    38   18   67 1    
    39   18  143 1    
    40   19   20 am   BACKBONE|DICT|INTERRES
    41   19  144 1    
    42   20   21 2    
    43   20   22 1    
    44   22   23 1    
    45   22   24 1    
    46   22  145 1    
    47   23  146 1    
    48   23  147 1    
    49   23  148 1    
    50   24   25 am   BACKBONE|DICT|INTERRES
    51   24  149 1    
    52   25   26 2    
    53   25   27 1    
    54   27   28 1    
    55   27   29 1    
    56   27  150 1    
    57   28  151 1    
    58   28  152 1    
    59   28  153 1    
    60   29   30 am   BACKBONE|DICT|INTERRES
    61   29  154 1    
    62   30   31 2    
    63   30   32 1    
    64   32   33 1    
    65   32   34 1    
    66   32  155 1    
    67   33  156 1    
    68   33  157 1    
    69   33  158 1    
    70   34   35 am   BACKBONE|DICT|INTERRES
    71   34  159 1    
    72   35   36 2    
    73   35   37 1    
    74   37   38 1    
    75   37   39 1    
    76   37  160 1    
    77   38  161 1    
    78   38  162 1    
    79   38  163 1    
    80   39   40 am   BACKBONE|DICT|INTERRES
    81   39  164 1    
    82   40   41 2    
    83   40   42 1    
    84   42   43 1    
    85   42   44 1    
    86   42  165 1    
    87   43  166 1    
    88   43  167 1    
    89   43  168 1    
    90   44   45 am   BACKBONE|DICT|INTERRES
    91   44  169 1    
    92   45   46 2    
    93   45   47 1    
    94   47   48 1    
    95   47   49 1    
    96   47  170 1    
    97   48  171 1    
    98   48  172 1    
    99   48  173 1    
   100   49   50 am   BACKBONE|DICT|INTERRES
   101   49  174 1    
   102   50   51 2    
   103   50   52 1    
   104   52   53 1    
   105   52   54 1    
   106   52  175 1    
   107   53  176 1    
   108   53  177 1    
   109   53  178 1    
   110   54   55 am   BACKBONE|DICT|INTERRES
   111   54  179 1    
   112   55   56 2    
   113   55   57 1    
   114   57   58 1    
   115   57   59 1    
   116   57  180 1    
   117   58  181 1    
   118   58  182 1    
   119   58  183 1    
   120   59   60 am   BACKBONE|DICT|INTERRES
   121   59  184 1    
   122   60   61 2    
   123   60   62 1    
   124   62   63 1    
   125   62   64 1    
   126   62  185 1    
   127   63  186 1    
   128   63  187 1    
   129   63  188 1    
   130   64   65 am   BACKBONE|DICT|INTERRES
   131   64  189 1    
   132   65   66 2    
   133   67   68 2    
   134   67   69 am   BACKBONE|DICT|INTERRES
   135   69   70 1    
   136   69  190 1    
   137   70   71 1    
   138   70   72 1    
   139   70  191 1    
   140   71  192 1    
   141   71  193 1    
   142   71  194 1    
   143   72   73 2    
   144   72   74 am   BACKBONE|DICT|INTERRES
   145   74   75 1    
   146   74  195 1    
   147   75   76 1    
   148   75   77 1    
   149   75  196 1    
   150   76  197 1    
   151   76  198 1    
   152   76  199 1    
   153   77   78 2    
   154   77   79 am   BACKBONE|DICT|INTERRES
   155   79   80 1    
   156   79  200 1    
   157   80   81 1    
   158   80   82 1    
   159   80  201 1    
   160   81  202 1    
   161   81  203 1    
   162   81  204 1    
   163   82   83 2    
   164   82   84 am   BACKBONE|DICT|INTERRES
   165   84   85 1    
   166   84  205 1    
   167   85   86 1    
   168   85   87 1    
   169   85  206 1    
   170   86  207 1    
   171   86  208 1    
   172   86  209 1    
   173   87   88 2    
   174   87   89 am   BACKBONE|DICT|INTERRES
   175   89   90 1    
   176   89  210 1    
   177   90   91 1    
   178   90   92 1    
   179   90  211 1    
   180   91  212 1    
   181   91  213 1    
   182   91  214 1    
   183   92   93 2    
   184   92   94 am   BACKBONE|DICT|INTERRES
   185   94   95 1    
   186   94  215 1    
   187   95   96 1    
   188   95   97 1    
   189   95  216 1    
   190   96  217 1    
   191   96  218 1    
   192   96  219 1    
   193   97   98 2    
   194   97   99 am   BACKBONE|DICT|INTERRES
   195   99  100 1    
   196   99  220 1    
   197  100  101 1    
   198  100  102 1    
   199  100  221 1    
   200  101  222 1    
   201  101  223 1    
   202  101  224 1    
   203  102  103 2    
   204  102  104 am   BACKBONE|DICT|INTERRES
   205  104  105 1    
   206  104  225 1    
   207  105  106 1    
   208  105  107 1    
   209  105  226 1    
   210  106  227 1    
   211  106  228 1    
   212  106  229 1    
   213  107  108 2    
   214  107  109 am   BACKBONE|DICT|INTERRES
   215  109  110 1    
   216  109  230 1    
   217  110  111 1    
   218  110  112 1    
   219  110  231 1    
   220  111  232 1    
   221  111  233 1    
   222  111  234 1    
   223  112  113 2    
   224  112  114 am   BACKBONE|DICT|INTERRES
   225  114  115 1    
   226  114  235 1    
   227  115  116 1    
   228  115  117 1    
   229  115  236 1    
   230  116  237 1    
   231  116  238 1    
   232  116  239 1    
   233  117  118 2    
   234  117  119 am   BACKBONE|DICT|INTERRES
   235  119  120 1    
   236  119  240 1    
   237  120  121 1    
   238  120  124 1    
   239  120  241 1    
   240  121  122 am   BACKBONE|DICT|INTERRES
   241  121  123 2    
   242  122  242 1    
   243  122  243 1    
   244  124  125 1    
   245  124  244 1    
   246  124  245 1    
   247  125  126 1    
   248  126  246 1    
   249  126  247 1    
@<TRIPOS>SUBSTRUCTURE
     1 UNK         1 GROUP             0       ****    0 ROOT    
