@<TRIPOS>MOLECULE
3R540
247   249    1
SMALL
USER_CHARGES


@<TRIPOS>ATOM
      1 CA          4.3423  -17.5591  -51.0582 C.3       0 UNK        -0.1800 
      2 C           3.5420  -16.7398  -50.0578 C.2       0 UNK         0.5000 
      3 O           4.0762  -16.3440  -49.0211 O.2       0 UNK        -0.5000 
      4 N           2.2669  -16.4678  -50.3675 N.am      1 UNK        -0.5000 
      5 CA          1.2905  -15.7805  -49.5058 C.3       1 UNK         0.1400 
      6 C6         -0.1379  -15.8143  -50.0927 C.3       23 UNK        -0.0398 
      7 S7         -0.7134  -17.5247  -50.3429 S.3       23 UNK        -0.2404 
      8 C8         -2.4580  -17.2450  -50.7589 C.3       23 UNK        -0.0205 
      9 C9         -3.2998  -16.9140  -49.5362 C.ar      23 UNK        -0.0193 
     10 C10        -3.8690  -15.6470  -49.3860 C.ar      23 UNK        -0.1150 
     11 C11        -4.7132  -15.3749  -48.3051 C.ar      23 UNK        -0.0193 
     12 C12        -4.9675  -16.3722  -47.3590 C.ar      23 UNK        -0.1150 
     13 C13        -4.3932  -17.6382  -47.4915 C.ar      23 UNK        -0.0193 
     14 C14        -3.5630  -17.9022  -48.5843 C.ar      23 UNK        -0.1150 
     15 C15        -4.6949  -18.7315  -46.4765 C.3       23 UNK        -0.0205 
     16 S16        -3.7599  -18.5594  -44.9147 S.3       23 UNK        -0.2404 
     17 C17        -2.0170  -18.3980  -45.4546 C.3       23 UNK        -0.0398 
     18 CA         -1.1950  -19.6847  -45.7465 C.3       11 UNK         0.1400 
     19 N          -0.3904  -20.1345  -44.6097 N.am      11 UNK        -0.5000 
     20 C           0.6448  -20.9792  -44.7260 C.2       10 UNK         0.5000 
     21 O           1.0191  -21.4542  -45.7985 O.2       10 UNK        -0.5000 
     22 CA          1.3513  -21.4050  -43.4303 C.3       10 UNK         0.1400 
     23 CB          2.3175  -20.3194  -42.9341 C.3       10 UNK        -0.1800 
     24 N           0.3932  -21.7392  -42.3798 N.am      10 UNK        -0.5000 
     25 C          -0.4019  -22.8180  -42.4035 C.2       9 UNK         0.5000 
     26 O          -0.3827  -23.6651  -43.2973 O.2       9 UNK        -0.5000 
     27 CA         -1.4108  -22.9492  -41.2482 C.3       9 UNK         0.1400 
     28 CB         -0.7514  -23.5997  -40.0230 C.3       9 UNK        -0.1800 
     29 N          -1.9907  -21.6613  -40.8616 N.am      9 UNK        -0.5000 
     30 C          -2.8134  -20.9447  -41.6404 C.2       8 UNK         0.5000 
     31 O          -3.1825  -21.3074  -42.7556 O.2       8 UNK        -0.5000 
     32 CA         -3.2672  -19.5782  -41.0965 C.3       8 UNK         0.1400 
     33 CB         -4.4818  -19.7397  -40.1704 C.3       8 UNK        -0.1800 
     34 N          -2.2075  -18.8517  -40.3908 N.am      8 UNK        -0.5000 
     35 C          -1.0752  -18.4251  -40.9644 C.2       7 UNK         0.5000 
     36 O          -0.7756  -18.6558  -42.1361 O.2       7 UNK        -0.5000 
     37 CA         -0.1015  -17.6484  -40.0718 C.3       7 UNK         0.1400 
     38 CB          0.9734  -18.5799  -39.4871 C.3       7 UNK        -0.1800 
     39 N           0.5315  -16.5871  -40.8510 N.am      7 UNK        -0.5000 
     40 C           0.8709  -15.3874  -40.3587 C.2       6 UNK         0.5000 
     41 O           0.7389  -15.0833  -39.1719 O.2       6 UNK        -0.5000 
     42 CA          1.4534  -14.3353  -41.3281 C.3       6 UNK         0.1400 
     43 CB          2.9804  -14.2597  -41.1766 C.3       6 UNK        -0.1800 
     44 N           1.1357  -14.5577  -42.7384 N.am      6 UNK        -0.5000 
     45 C          -0.0913  -14.5459  -43.2793 C.2       5 UNK         0.5000 
     46 O          -1.1090  -14.2761  -42.6404 O.2       5 UNK        -0.5000 
     47 CA         -0.2149  -14.9036  -44.7785 C.3       5 UNK         0.1400 
     48 CB         -0.6718  -13.6825  -45.5905 C.3       5 UNK        -0.1800 
     49 N           1.0014  -15.4720  -45.3804 N.am      5 UNK        -0.5000 
     50 C           1.5666  -16.6306  -45.0040 C.2       4 UNK         0.5000 
     51 O           1.0816  -17.3586  -44.1432 O.2       4 UNK        -0.5000 
     52 CA          2.9188  -17.0318  -45.6223 C.3       4 UNK         0.1400 
     53 CB          2.7602  -18.2109  -46.5946 C.3       4 UNK        -0.1800 
     54 N           3.6469  -15.9417  -46.2757 N.am      4 UNK        -0.5000 
     55 C           4.2102  -14.9100  -45.6283 C.2       3 UNK         0.5000 
     56 O           4.0526  -14.6986  -44.4253 O.2       3 UNK        -0.5000 
     57 CA          5.0941  -13.9593  -46.4534 C.3       3 UNK         0.1400 
     58 CB          6.4895  -14.5691  -46.6594 C.3       3 UNK        -0.1800 
     59 N           4.4949  -13.6847  -47.7575 N.am      3 UNK        -0.5000 
     60 C           4.0158  -12.4956  -48.1491 C.2       2 UNK         0.5000 
     61 O           4.1255  -11.4597  -47.4917 O.2       2 UNK        -0.5000 
     62 CA          3.2597  -12.4544  -49.4960 C.3       2 UNK         0.1400 
     63 CB          4.2074  -12.0409  -50.6322 C.3       2 UNK        -0.1800 
     64 N           2.6199  -13.7251  -49.8483 N.am      2 UNK        -0.5000 
     65 C           1.6901  -14.3453  -49.1075 C.2       1 UNK         0.5000 
     66 O           1.1957  -13.8523  -48.0960 O.2       1 UNK        -0.5000 
     67 C          -1.9863  -20.8464  -46.3788 C.2       11 UNK         0.5000 
     68 O          -2.0604  -20.9177  -47.6029 O.2       11 UNK        -0.5000 
     69 N          -2.5111  -21.7678  -45.5563 N.am      12 UNK        -0.5000 
     70 CA         -3.1731  -22.9911  -46.0111 C.3       12 UNK         0.1400 
     71 CB         -3.7773  -23.7409  -44.8154 C.3       12 UNK        -0.1800 
     72 C          -2.2325  -23.9068  -46.8140 C.2       12 UNK         0.5000 
     73 O          -2.6360  -24.4146  -47.8593 O.2       12 UNK        -0.5000 
     74 N          -0.9850  -24.0577  -46.3465 N.am      13 UNK        -0.5000 
     75 CA          0.0685  -24.7993  -47.0414 C.3       13 UNK         0.1400 
     76 CB          1.2749  -24.9784  -46.1075 C.3       13 UNK        -0.1800 
     77 C           0.4897  -24.1439  -48.3720 C.2       13 UNK         0.5000 
     78 O           0.7494  -24.8599  -49.3389 O.2       13 UNK        -0.5000 
     79 N           0.5290  -22.8040  -48.4076 N.am      14 UNK        -0.5000 
     80 CA          0.7912  -22.0154  -49.6141 C.3       14 UNK         0.1400 
     81 CB          1.1246  -20.5687  -49.2179 C.3       14 UNK        -0.1800 
     82 C          -0.3771  -22.0537  -50.6196 C.2       14 UNK         0.5000 
     83 O          -0.1413  -22.0173  -51.8274 O.2       14 UNK        -0.5000 
     84 N          -1.6144  -22.1241  -50.1129 N.am      15 UNK        -0.5000 
     85 CA         -2.8336  -22.2352  -50.9055 C.3       15 UNK         0.1400 
     86 CB         -4.0543  -21.8888  -50.0405 C.3       15 UNK        -0.1800 
     87 C          -3.0000  -23.6186  -51.5538 C.2       15 UNK         0.5000 
     88 O          -3.3031  -23.6836  -52.7474 O.2       15 UNK        -0.5000 
     89 N          -2.8195  -24.6782  -50.7516 N.am      16 UNK        -0.5000 
     90 CA         -3.0402  -26.0867  -51.0889 C.3       16 UNK         0.1400 
     91 CB         -2.6338  -26.9624  -49.8918 C.3       16 UNK        -0.1800 
     92 C          -2.3200  -26.5394  -52.3729 C.2       16 UNK         0.5000 
     93 O          -1.1027  -26.7305  -52.3595 O.2       16 UNK        -0.5000 
     94 N          -3.1013  -26.6854  -53.4539 N.am      17 UNK        -0.5000 
     95 CA         -2.6879  -27.0743  -54.8081 C.3       17 UNK         0.1400 
     96 CB         -2.2123  -28.5424  -54.8282 C.3       17 UNK        -0.1800 
     97 C          -1.6687  -26.1063  -55.4508 C.2       17 UNK         0.5000 
     98 O          -0.8771  -26.5246  -56.2985 O.2       17 UNK        -0.5000 
     99 N          -1.7040  -24.8329  -55.0405 N.am      18 UNK        -0.5000 
    100 CA        -0.7797  -23.7937  -55.4729 C.3       18 UNK         0.1400 
    101 CB         0.4569  -23.7807  -54.5545 C.3       18 UNK        -0.1800 
    102 C         -1.5295  -22.4582  -55.5752 C.2       18 UNK         0.5000 
    103 O         -2.1942  -22.2336  -56.5878 O.2       18 UNK        -0.5000 
    104 N         -1.4148  -21.5878  -54.5608 N.am      19 UNK        -0.5000 
    105 CA        -1.9544  -20.2230  -54.5964 C.3       19 UNK         0.1400 
    106 CB        -1.2901  -19.3834  -53.4948 C.3       19 UNK        -0.1800 
    107 C         -3.4937  -20.1288  -54.5163 C.2       19 UNK         0.5000 
    108 O         -4.0407  -19.0821  -54.8612 O.2       19 UNK        -0.5000 
    109 N         -4.1610  -21.2020  -54.0625 N.am      20 UNK        -0.5000 
    110 CA        -5.6175  -21.4045  -53.9937 C.3       20 UNK         0.1400 
    111 CB        -6.2315  -21.3874  -55.4088 C.3       20 UNK        -0.1800 
    112 C         -6.3864  -20.4818  -53.0179 C.2       20 UNK         0.5000 
    113 O         -7.6168  -20.5388  -52.9911 O.2       20 UNK        -0.5000 
    114 N         -5.6545  -19.6948  -52.2161 N.am      21 UNK        -0.5000 
    115 CA        -6.1061  -18.6981  -51.2364 C.3       21 UNK         0.1400 
    116 CB        -7.0349  -19.3149  -50.1710 C.3       21 UNK        -0.1800 
    117 C         -6.7184  -17.4309  -51.8686 C.2       21 UNK         0.5000 
    118 O         -7.1373  -17.4380  -53.0285 O.2       21 UNK        -0.5000 
    119 N         -6.7364  -16.3436  -51.0877 N.am      22 UNK        -0.5000 
    120 CA        -7.3487  -15.0608  -51.4631 C.3       22 UNK         0.1400 
    121 C         -8.9057  -15.0973  -51.4722 C.2       22 UNK         0.5000 
    122 N         -9.5458  -14.1865  -52.1939 N.am      22 UNK        -0.7600 
    123 O         -9.5422  -15.9223  -50.8194 O.2       22 UNK        -0.5000 
    124 C124       -6.7882  -13.8814  -50.6231 C.3       23 UNK        -0.0398 
    125 S125       -7.0656  -14.0088  -48.8184 S.3       23 UNK        -0.2404 
    126 C126       -5.3666  -14.0107  -48.1603 C.3       23 UNK        -0.0205 
    127 H127        5.2088  -16.9924  -51.3986 H         1 UNK         0.0600 
    128 H128        3.7462  -17.8297  -51.9300 H         1 UNK         0.0600 
    129 H129        4.6960  -18.4771  -50.5891 H         1 UNK         0.0600 
    130 H130        1.8896  -16.8241  -51.2342 H         1 UNK         0.3000 
    131 H131        1.2559  -16.3331  -48.5679 H         1 UNK         0.0600 
    132 H132       -0.8388  -15.3147  -49.4208 H         1 UNK         0.0800 
    133 H133       -0.1804  -15.2815  -51.0441 H         1 UNK         0.0800 
    134 H134       -2.8505  -18.1516  -51.2187 H         1 UNK         0.0800 
    135 H135       -2.5342  -16.4626  -51.5156 H         1 UNK         0.0800 
    136 H136       -3.6749  -14.8809  -50.1232 H         1 UNK         0.1150 
    137 H137       -5.6208  -16.1661  -46.5226 H         1 UNK         0.1150 
    138 H138       -3.1254  -18.8820  -48.7060 H         1 UNK         0.1150 
    139 H139       -5.7600  -18.7132  -46.2414 H         1 UNK         0.0800 
    140 H140       -4.5120  -19.7138  -46.9120 H         1 UNK         0.0800 
    141 H141       -1.5114  -17.8304  -44.6749 H         1 UNK         0.0800 
    142 H142       -1.9823  -17.7457  -46.3263 H         1 UNK         0.0800 
    143 H143       -0.4661  -19.3865  -46.5038 H         1 UNK         0.0600 
    144 H144       -0.6030  -19.7248  -43.7031 H         1 UNK         0.3000 
    145 H145        1.9385  -22.2988  -43.6525 H         1 UNK         0.0600 
    146 H146        2.8829  -20.6611  -42.0673 H         1 UNK         0.0600 
    147 H147        3.0373  -20.0535  -43.7092 H         1 UNK         0.0600 
    148 H148        1.7910  -19.4084  -42.6521 H         1 UNK         0.0600 
    149 H149        0.2731  -21.0636  -41.6407 H         1 UNK         0.3000 
    150 H150       -2.2203  -23.6000  -41.5859 H         1 UNK         0.0600 
    151 H151       -0.3240  -24.5699  -40.2798 H         1 UNK         0.0600 
    152 H152       -1.4772  -23.7661  -39.2267 H         1 UNK         0.0600 
    153 H153        0.0531  -22.9824  -39.6211 H         1 UNK         0.0600 
    154 H154       -1.7351  -21.2927  -39.9576 H         1 UNK         0.3000 
    155 H155       -3.5722  -18.9702  -41.9499 H         1 UNK         0.0600 
    156 H156       -4.2344  -20.3110  -39.2749 H         1 UNK         0.0600 
    157 H157       -4.8692  -18.7707  -39.8553 H         1 UNK         0.0600 
    158 H158       -5.2930  -20.2620  -40.6797 H         1 UNK         0.0600 
    159 H159       -2.3793  -18.6372  -39.4191 H         1 UNK         0.3000 
    160 H160       -0.6758  -17.2110  -39.2522 H         1 UNK         0.0600 
    161 H161        1.5927  -19.0212  -40.2678 H         1 UNK         0.0600 
    162 H162        0.5216  -19.3964  -38.9226 H         1 UNK         0.0600 
    163 H163        1.6318  -18.0404  -38.8060 H         1 UNK         0.0600 
    164 H164        0.6234  -16.7757  -41.8439 H         1 UNK         0.3000 
    165 H165        1.0337  -13.3680  -41.0447 H         1 UNK         0.0600 
    166 H166        3.3986  -13.4578  -41.7855 H         1 UNK         0.0600 
    167 H167        3.2642  -14.0629  -40.1419 H         1 UNK         0.0600 
    168 H168        3.4590  -15.1925  -41.4781 H         1 UNK         0.0600 
    169 H169        1.9184  -14.7746  -43.3416 H         1 UNK         0.3000 
    170 H170       -1.0035  -15.6518  -44.8510 H         1 UNK         0.0600 
    171 H171       -1.5446  -13.2089  -45.1393 H         1 UNK         0.0600 
    172 H172        0.1132  -12.9286  -45.6595 H         1 UNK         0.0600 
    173 H173       -0.9579  -13.9710  -46.6019 H         1 UNK         0.0600 
    174 H174        1.4489  -14.9162  -46.0981 H         1 UNK         0.3000 
    175 H175        3.5430  -17.3797  -44.7964 H         1 UNK         0.0600 
    176 H176        2.0704  -17.9919  -47.4063 H         1 UNK         0.0600 
    177 H177        3.7164  -18.4959  -47.0337 H         1 UNK         0.0600 
    178 H178        2.3741  -19.0866  -46.0760 H         1 UNK         0.0600 
    179 H179        3.8360  -16.0661  -47.2680 H         1 UNK         0.3000 
    180 H180        5.2095  -13.0384  -45.8782 H         1 UNK         0.0600 
    181 H181        6.4451  -15.4945  -47.2355 H         1 UNK         0.0600 
    182 H182        6.9617  -14.7976  -45.7031 H         1 UNK         0.0600 
    183 H183        7.1449  -13.8774  -47.1889 H         1 UNK         0.0600 
    184 H184        4.3518  -14.4868  -48.3622 H         1 UNK         0.3000 
    185 H185        2.4753  -11.6998  -49.4091 H         1 UNK         0.0600 
    186 H186        4.6834  -11.0838  -50.4150 H         1 UNK         0.0600 
    187 H187        4.9999  -12.7754  -50.7817 H         1 UNK         0.0600 
    188 H188        3.6700  -11.9286  -51.5740 H         1 UNK         0.0600 
    189 H189        2.9840  -14.2082  -50.6566 H         1 UNK         0.3000 
    190 H190       -2.4794  -21.6115  -44.5528 H         1 UNK         0.3000 
    191 H191       -3.9912  -22.6965  -46.6712 H         1 UNK         0.0600 
    192 H192       -3.0169  -24.0129  -44.0832 H         1 UNK         0.0600 
    193 H193       -4.2682  -24.6600  -45.1377 H         1 UNK         0.0600 
    194 H194       -4.5277  -23.1333  -44.3094 H         1 UNK         0.0600 
    195 H195       -0.7347  -23.6250  -45.4650 H         1 UNK         0.3000 
    196 H196       -0.3248  -25.7910  -47.2750 H         1 UNK         0.0600 
    197 H197        2.0569  -25.5662  -46.5896 H         1 UNK         0.0600 
    198 H198        0.9913  -25.5006  -45.1935 H         1 UNK         0.0600 
    199 H199        1.7126  -24.0219  -45.8226 H         1 UNK         0.0600 
    200 H200        0.3681  -22.2897  -47.5478 H         1 UNK         0.3000 
    201 H201        1.6667  -22.4377  -50.1115 H         1 UNK         0.0600 
    202 H202        1.9750  -20.5306  -48.5371 H         1 UNK         0.0600 
    203 H203        0.2820  -20.0806  -48.7284 H         1 UNK         0.0600 
    204 H204        1.3814  -19.9730  -50.0948 H         1 UNK         0.0600 
    205 H205       -1.7303  -22.0339  -49.1075 H         1 UNK         0.3000 
    206 H206       -2.7805  -21.4991  -51.7058 H         1 UNK         0.0600 
    207 H207       -4.9810  -22.0109  -50.6019 H         1 UNK         0.0600 
    208 H208       -4.1218  -22.5276  -49.1604 H         1 UNK         0.0600 
    209 H209       -4.0141  -20.8552  -49.6988 H         1 UNK         0.0600 
    210 H210       -2.5851  -24.4993  -49.7786 H         1 UNK         0.3000 
    211 H211       -4.1142  -26.2148  -51.2365 H         1 UNK         0.0600 
    212 H212       -1.5982  -26.7846  -49.5984 H         1 UNK         0.0600 
    213 H213       -2.7329  -28.0228  -50.1277 H         1 UNK         0.0600 
    214 H214       -3.2658  -26.7649  -49.0261 H         1 UNK         0.0600 
    215 H215       -4.0816  -26.4592  -53.3574 H         1 UNK         0.3000 
    216 H216       -3.5844  -27.0130  -55.4265 H         1 UNK         0.0600 
    217 H217       -2.0467  -28.8878  -55.8493 H         1 UNK         0.0600 
    218 H218       -2.9547  -29.2037  -54.3814 H         1 UNK         0.0600 
    219 H219       -1.2765  -28.6719  -54.2838 H         1 UNK         0.0600 
    220 H220       -2.3865  -24.5582  -54.3402 H         1 UNK         0.3000 
    221 H221       -0.4329  -24.0077  -56.4862 H         1 UNK         0.0600 
    222 H222        0.1776  -23.8526  -53.5046 H         1 UNK         0.0600 
    223 H223        1.1022  -24.6323  -54.7703 H         1 UNK         0.0600 
    224 H224        1.0565  -22.8799  -54.6913 H         1 UNK         0.0600 
    225 H225       -0.8720  -21.8421  -53.7402 H         1 UNK         0.3000 
    226 H226       -1.6678  -19.7829  -55.5540 H         1 UNK         0.0600 
    227 H227       -0.2049  -19.3842  -53.5981 H         1 UNK         0.0600 
    228 H228       -1.6169  -18.3440  -53.5437 H         1 UNK         0.0600 
    229 H229       -1.5266  -19.7546  -52.4992 H         1 UNK         0.0600 
    230 H230       -3.6160  -22.0153  -53.7947 H         1 UNK         0.3000 
    231 H231       -5.7480  -22.4132  -53.5993 H         1 UNK         0.0600 
    232 H232       -7.2752  -21.7029  -55.3889 H         1 UNK         0.0600 
    233 H233       -5.7017  -22.0672  -56.0763 H         1 UNK         0.0600 
    234 H234       -6.2014  -20.3910  -55.8504 H         1 UNK         0.0600 
    235 H235       -4.6606  -19.7068  -52.3833 H         1 UNK         0.3000 
    236 H236       -5.2007  -18.3844  -50.7267 H         1 UNK         0.0600 
    237 H237       -6.5966  -20.2105  -49.7317 H         1 UNK         0.0600 
    238 H238       -7.2120  -18.6117  -49.3564 H         1 UNK         0.0600 
    239 H239       -8.0084  -19.5816  -50.5825 H         1 UNK         0.0600 
    240 H240       -6.4023  -16.4039  -50.1364 H         1 UNK         0.3000 
    241 H241       -7.0499  -14.8690  -52.4958 H         1 UNK         0.0600 
    242 H242      -10.5543  -14.1916  -52.2027 H         1 UNK         0.3800 
    243 H243       -9.0527  -13.4973  -52.7407 H         1 UNK         0.3800 
    244 H244       -5.7208  -13.7818  -50.8190 H         1 UNK         0.0800 
    245 H245       -7.2239  -12.9397  -50.9606 H         1 UNK         0.0800 
    246 H246       -4.7723  -13.2390  -48.6518 H         1 UNK         0.0800 
    247 H247       -5.4004  -13.7373  -47.1046 H         1 UNK         0.0800 
@<TRIPOS>BOND
     1    1    2 1    
     2    1  127 1    
     3    1  128 1    
     4    1  129 1    
     5    2    3 2    
     6    2    4 am   BACKBONE|DICT|INTERRES
     7    4    5 1    
     8    4  130 1    
     9    5    6 1    
    10    5   65 1    
    11    5  131 1    
    12    6    7 1    
    13    6  132 1    
    14    6  133 1    
    15    7    8 1    
    16    8    9 1    
    17    8  134 1    
    18    8  135 1    
    19    9   10 ar   
    20    9   14 ar   
    21   10   11 ar   
    22   10  136 1    
    23   11   12 ar   
    24   11  126 1    
    25   12   13 ar   
    26   12  137 1    
    27   13   14 ar   
    28   13   15 1    
    29   14  138 1    
    30   15   16 1    
    31   15  139 1    
    32   15  140 1    
    33   16   17 1    
    34   17   18 1    
    35   17  141 1    
    36   17  142 1    
    37   18   19 1    
    38   18   67 1    
    39   18  143 1    
    40   19   20 am   BACKBONE|DICT|INTERRES
    41   19  144 1    
    42   20   21 2    
    43   20   22 1    
    44   22   23 1    
    45   22   24 1    
    46   22  145 1    
    47   23  146 1    
    48   23  147 1    
    49   23  148 1    
    50   24   25 am   BACKBONE|DICT|INTERRES
    51   24  149 1    
    52   25   26 2    
    53   25   27 1    
    54   27   28 1    
    55   27   29 1    
    56   27  150 1    
    57   28  151 1    
    58   28  152 1    
    59   28  153 1    
    60   29   30 am   BACKBONE|DICT|INTERRES
    61   29  154 1    
    62   30   31 2    
    63   30   32 1    
    64   32   33 1    
    65   32   34 1    
    66   32  155 1    
    67   33  156 1    
    68   33  157 1    
    69   33  158 1    
    70   34   35 am   BACKBONE|DICT|INTERRES
    71   34  159 1    
    72   35   36 2    
    73   35   37 1    
    74   37   38 1    
    75   37   39 1    
    76   37  160 1    
    77   38  161 1    
    78   38  162 1    
    79   38  163 1    
    80   39   40 am   BACKBONE|DICT|INTERRES
    81   39  164 1    
    82   40   41 2    
    83   40   42 1    
    84   42   43 1    
    85   42   44 1    
    86   42  165 1    
    87   43  166 1    
    88   43  167 1    
    89   43  168 1    
    90   44   45 am   BACKBONE|DICT|INTERRES
    91   44  169 1    
    92   45   46 2    
    93   45   47 1    
    94   47   48 1    
    95   47   49 1    
    96   47  170 1    
    97   48  171 1    
    98   48  172 1    
    99   48  173 1    
   100   49   50 am   BACKBONE|DICT|INTERRES
   101   49  174 1    
   102   50   51 2    
   103   50   52 1    
   104   52   53 1    
   105   52   54 1    
   106   52  175 1    
   107   53  176 1    
   108   53  177 1    
   109   53  178 1    
   110   54   55 am   BACKBONE|DICT|INTERRES
   111   54  179 1    
   112   55   56 2    
   113   55   57 1    
   114   57   58 1    
   115   57   59 1    
   116   57  180 1    
   117   58  181 1    
   118   58  182 1    
   119   58  183 1    
   120   59   60 am   BACKBONE|DICT|INTERRES
   121   59  184 1    
   122   60   61 2    
   123   60   62 1    
   124   62   63 1    
   125   62   64 1    
   126   62  185 1    
   127   63  186 1    
   128   63  187 1    
   129   63  188 1    
   130   64   65 am   BACKBONE|DICT|INTERRES
   131   64  189 1    
   132   65   66 2    
   133   67   68 2    
   134   67   69 am   BACKBONE|DICT|INTERRES
   135   69   70 1    
   136   69  190 1    
   137   70   71 1    
   138   70   72 1    
   139   70  191 1    
   140   71  192 1    
   141   71  193 1    
   142   71  194 1    
   143   72   73 2    
   144   72   74 am   BACKBONE|DICT|INTERRES
   145   74   75 1    
   146   74  195 1    
   147   75   76 1    
   148   75   77 1    
   149   75  196 1    
   150   76  197 1    
   151   76  198 1    
   152   76  199 1    
   153   77   78 2    
   154   77   79 am   BACKBONE|DICT|INTERRES
   155   79   80 1    
   156   79  200 1    
   157   80   81 1    
   158   80   82 1    
   159   80  201 1    
   160   81  202 1    
   161   81  203 1    
   162   81  204 1    
   163   82   83 2    
   164   82   84 am   BACKBONE|DICT|INTERRES
   165   84   85 1    
   166   84  205 1    
   167   85   86 1    
   168   85   87 1    
   169   85  206 1    
   170   86  207 1    
   171   86  208 1    
   172   86  209 1    
   173   87   88 2    
   174   87   89 am   BACKBONE|DICT|INTERRES
   175   89   90 1    
   176   89  210 1    
   177   90   91 1    
   178   90   92 1    
   179   90  211 1    
   180   91  212 1    
   181   91  213 1    
   182   91  214 1    
   183   92   93 2    
   184   92   94 am   BACKBONE|DICT|INTERRES
   185   94   95 1    
   186   94  215 1    
   187   95   96 1    
   188   95   97 1    
   189   95  216 1    
   190   96  217 1    
   191   96  218 1    
   192   96  219 1    
   193   97   98 2    
   194   97   99 am   BACKBONE|DICT|INTERRES
   195   99  100 1    
   196   99  220 1    
   197  100  101 1    
   198  100  102 1    
   199  100  221 1    
   200  101  222 1    
   201  101  223 1    
   202  101  224 1    
   203  102  103 2    
   204  102  104 am   BACKBONE|DICT|INTERRES
   205  104  105 1    
   206  104  225 1    
   207  105  106 1    
   208  105  107 1    
   209  105  226 1    
   210  106  227 1    
   211  106  228 1    
   212  106  229 1    
   213  107  108 2    
   214  107  109 am   BACKBONE|DICT|INTERRES
   215  109  110 1    
   216  109  230 1    
   217  110  111 1    
   218  110  112 1    
   219  110  231 1    
   220  111  232 1    
   221  111  233 1    
   222  111  234 1    
   223  112  113 2    
   224  112  114 am   BACKBONE|DICT|INTERRES
   225  114  115 1    
   226  114  235 1    
   227  115  116 1    
   228  115  117 1    
   229  115  236 1    
   230  116  237 1    
   231  116  238 1    
   232  116  239 1    
   233  117  118 2    
   234  117  119 am   BACKBONE|DICT|INTERRES
   235  119  120 1    
   236  119  240 1    
   237  120  121 1    
   238  120  124 1    
   239  120  241 1    
   240  121  122 am   BACKBONE|DICT|INTERRES
   241  121  123 2    
   242  122  242 1    
   243  122  243 1    
   244  124  125 1    
   245  124  244 1    
   246  124  245 1    
   247  125  126 1    
   248  126  246 1    
   249  126  247 1    
@<TRIPOS>SUBSTRUCTURE
     1 UNK         1 GROUP             0       ****    0 ROOT    
