@<TRIPOS>MOLECULE
3R540
247   249    1
SMALL
USER_CHARGES


@<TRIPOS>ATOM
      1 CA         -1.3087  -13.6916  -50.8369 C.3       0 UNK        -0.1800 
      2 C          -1.1081  -13.2918  -49.3819 C.2       0 UNK         0.5000 
      3 O          -1.9239  -12.5600  -48.8225 O.2       0 UNK        -0.5000 
      4 N          -0.0404  -13.7957  -48.7539 N.am      1 UNK        -0.5000 
      5 CA          0.3559  -13.5687  -47.3571 C.3       1 UNK         0.1400 
      6 C6          1.8850  -13.7707  -47.1703 C.3       23 UNK        -0.0398 
      7 S7          2.4775  -15.4056  -47.7342 S.3       23 UNK        -0.2404 
      8 C8          3.2791  -14.9918  -49.3131 C.3       23 UNK        -0.0205 
      9 C9          3.2416  -16.1641  -50.2825 C.ar      23 UNK        -0.0193 
     10 C10         2.4788  -16.0863  -51.4518 C.ar      23 UNK        -0.1150 
     11 C11         2.4753  -17.1411  -52.3687 C.ar      23 UNK        -0.0193 
     12 C12         3.2313  -18.2867  -52.1030 C.ar      23 UNK        -0.1150 
     13 C13         3.9927  -18.3812  -50.9340 C.ar      23 UNK        -0.0193 
     14 C14         3.9944  -17.3150  -50.0289 C.ar      23 UNK        -0.1150 
     15 C15         4.8515  -19.6122  -50.6714 C.3       23 UNK        -0.0205 
     16 S16         3.8763  -21.1361  -50.4533 S.3       23 UNK        -0.2404 
     17 C17         2.9909  -20.7967  -48.8954 C.3       23 UNK        -0.0398 
     18 CA          1.5177  -21.2731  -48.9333 C.3       11 UNK         0.1400 
     19 N           0.9723  -21.4447  -47.5864 N.am      11 UNK        -0.5000 
     20 C          -0.0978  -22.1983  -47.3002 C.2       10 UNK         0.5000 
     21 O          -0.6370  -22.9469  -48.1139 O.2       10 UNK        -0.5000 
     22 CA         -0.6767  -22.0883  -45.8778 C.3       10 UNK         0.1400 
     23 CB         -0.2001  -23.2580  -45.0053 C.3       10 UNK        -0.1800 
     24 N          -0.3617  -20.8192  -45.2164 N.am      10 UNK        -0.5000 
     25 C          -0.8793  -19.6335  -45.5687 C.2       9 UNK         0.5000 
     26 O          -1.7260  -19.4968  -46.4524 O.2       9 UNK        -0.5000 
     27 CA         -0.3412  -18.3847  -44.8504 C.3       9 UNK         0.1400 
     28 CB         -1.1160  -18.1214  -43.5533 C.3       9 UNK        -0.1800 
     29 N           1.0896  -18.4465  -44.5649 N.am      9 UNK        -0.5000 
     30 C           2.0473  -18.5497  -45.4949 C.2       8 UNK         0.5000 
     31 O           1.8162  -18.6702  -46.6972 O.2       8 UNK        -0.5000 
     32 CA          3.4963  -18.5922  -44.9870 C.3       8 UNK         0.1400 
     33 CB          3.9876  -17.1964  -44.5730 C.3       8 UNK        -0.1800 
     34 N           3.6151  -19.5031  -43.8514 N.am      8 UNK        -0.5000 
     35 C           3.7267  -20.8331  -43.9590 C.2       7 UNK         0.5000 
     36 O           3.8104  -21.4281  -45.0339 O.2       7 UNK        -0.5000 
     37 CA          3.7281  -21.6363  -42.6432 C.3       7 UNK         0.1400 
     38 CB          5.1565  -21.7672  -42.0935 C.3       7 UNK        -0.1800 
     39 N           2.8655  -21.0619  -41.6071 N.am      7 UNK        -0.5000 
     40 C           1.5304  -20.9886  -41.6926 C.2       6 UNK         0.5000 
     41 O           0.8857  -21.3857  -42.6616 O.2       6 UNK        -0.5000 
     42 CA          0.7888  -20.3228  -40.5185 C.3       6 UNK         0.1400 
     43 CB          0.5633  -21.3355  -39.3857 C.3       6 UNK        -0.1800 
     44 N           1.4243  -19.1181  -39.9710 N.am      6 UNK        -0.5000 
     45 C           1.8379  -18.0554  -40.6746 C.2       5 UNK         0.5000 
     46 O           1.9032  -18.0257  -41.9050 O.2       5 UNK        -0.5000 
     47 CA          2.2776  -16.8230  -39.8618 C.3       5 UNK         0.1400 
     48 CB          3.7595  -16.9448  -39.4756 C.3       5 UNK        -0.1800 
     49 N           2.0864  -15.5751  -40.6054 N.am      5 UNK        -0.5000 
     50 C           0.9107  -15.1085  -41.0505 C.2       4 UNK         0.5000 
     51 O          -0.1732  -15.6316  -40.7782 O.2       4 UNK        -0.5000 
     52 CA          0.9766  -13.8463  -41.9389 C.3       4 UNK         0.1400 
     53 CB          2.0713  -13.9564  -43.0174 C.3       4 UNK        -0.1800 
     54 N          -0.3016  -13.5605  -42.5955 N.am      4 UNK        -0.5000 
     55 C          -1.3357  -12.9331  -42.0152 C.2       3 UNK         0.5000 
     56 O          -1.3000  -12.4991  -40.8622 O.2       3 UNK        -0.5000 
     57 CA         -2.6160  -12.7117  -42.8508 C.3       3 UNK         0.1400 
     58 CB         -2.8373  -11.2121  -43.1097 C.3       3 UNK        -0.1800 
     59 N          -2.5995  -13.4009  -44.1413 N.am      3 UNK        -0.5000 
     60 C          -2.9563  -14.6760  -44.3432 C.2       2 UNK         0.5000 
     61 O          -3.4045  -15.4073  -43.4608 O.2       2 UNK        -0.5000 
     62 CA         -2.7713  -15.2345  -45.7709 C.3       2 UNK         0.1400 
     63 CB         -4.1127  -15.2998  -46.5156 C.3       2 UNK        -0.1800 
     64 N          -1.8100  -14.4883  -46.5910 N.am      2 UNK        -0.5000 
     65 C          -0.4987  -14.3724  -46.3415 C.2       1 UNK         0.5000 
     66 O           0.0224  -14.8568  -45.3380 O.2       1 UNK        -0.5000 
     67 C           0.6130  -20.3339  -49.7604 C.2       11 UNK         0.5000 
     68 O           0.3893  -20.5946  -50.9418 O.2       11 UNK        -0.5000 
     69 N           0.0874  -19.2848  -49.1106 N.am      12 UNK        -0.5000 
     70 CA         -0.8116  -18.3030  -49.7063 C.3       12 UNK         0.1400 
     71 CB         -0.9328  -17.0818  -48.7865 C.3       12 UNK        -0.1800 
     72 C          -2.1995  -18.8702  -50.0520 C.2       12 UNK         0.5000 
     73 O          -2.6019  -18.7897  -51.2124 O.2       12 UNK        -0.5000 
     74 N          -2.9192  -19.3969  -49.0478 N.am      13 UNK        -0.5000 
     75 CA         -4.2988  -19.8711  -49.2114 C.3       13 UNK         0.1400 
     76 CB         -5.2510  -18.6877  -49.4968 C.3       13 UNK        -0.1800 
     77 C          -4.8605  -20.6962  -48.0401 C.2       13 UNK         0.5000 
     78 O          -5.8478  -21.4048  -48.2533 O.2       13 UNK        -0.5000 
     79 N          -4.2860  -20.5886  -46.8331 N.am      14 UNK        -0.5000 
     80 CA         -4.7918  -21.2497  -45.6241 C.3       14 UNK         0.1400 
     81 CB         -4.0991  -20.6577  -44.3850 C.3       14 UNK        -0.1800 
     82 C          -4.6452  -22.7846  -45.6641 C.2       14 UNK         0.5000 
     83 O          -3.9939  -23.3271  -46.5580 O.2       14 UNK        -0.5000 
     84 N          -5.2801  -23.4620  -44.6964 N.am      15 UNK        -0.5000 
     85 CA         -5.3436  -24.9257  -44.5591 C.3       15 UNK         0.1400 
     86 CB         -3.9512  -25.5070  -44.2310 C.3       15 UNK        -0.1800 
     87 C          -6.0157  -25.6136  -45.7703 C.2       15 UNK         0.5000 
     88 O          -5.6602  -26.7391  -46.1233 O.2       15 UNK        -0.5000 
     89 N          -6.9730  -24.9002  -46.3840 N.am      16 UNK        -0.5000 
     90 CA         -7.7384  -25.2597  -47.5814 C.3       16 UNK         0.1400 
     91 CB         -8.6136  -26.5053  -47.3254 C.3       16 UNK        -0.1800 
     92 C          -6.8877  -25.3769  -48.8660 C.2       16 UNK         0.5000 
     93 O          -7.3091  -26.0506  -49.8081 O.2       16 UNK        -0.5000 
     94 N          -5.7239  -24.7084  -48.9080 N.am      17 UNK        -0.5000 
     95 CA         -4.8657  -24.6385  -50.0942 C.3       17 UNK         0.1400 
     96 CB         -3.4841  -24.0943  -49.7020 C.3       17 UNK        -0.1800 
     97 C          -5.4855  -23.7902  -51.2216 C.2       17 UNK         0.5000 
     98 O          -5.3416  -24.1487  -52.3914 O.2       17 UNK        -0.5000 
     99 N          -6.1819  -22.7092  -50.8320 N.am      18 UNK        -0.5000 
    100 CA        -6.8545  -21.7050  -51.6640 C.3       18 UNK         0.1400 
    101 CB        -7.9467  -22.3579  -52.5367 C.3       18 UNK        -0.1800 
    102 C         -5.8856  -20.8539  -52.5111 C.2       18 UNK         0.5000 
    103 O         -4.6967  -21.1582  -52.6139 O.2       18 UNK        -0.5000 
    104 N         -6.4198  -19.7895  -53.1273 N.am      19 UNK        -0.5000 
    105 CA        -5.6757  -18.8483  -53.9770 C.3       19 UNK         0.1400 
    106 CB        -6.6084  -17.7010  -54.3914 C.3       19 UNK        -0.1800 
    107 C         -5.0283  -19.4947  -55.2201 C.2       19 UNK         0.5000 
    108 O         -4.0654  -18.9488  -55.7609 O.2       19 UNK        -0.5000 
    109 N         -5.5282  -20.6740  -55.6157 N.am      20 UNK        -0.5000 
    110 CA        -4.9644  -21.5547  -56.6396 C.3       20 UNK         0.1400 
    111 CB        -5.9101  -22.7505  -56.8310 C.3       20 UNK        -0.1800 
    112 C         -3.5315  -22.0443  -56.3350 C.2       20 UNK         0.5000 
    113 O         -2.8330  -22.4512  -57.2641 O.2       20 UNK        -0.5000 
    114 N         -3.1044  -21.9801  -55.0635 N.am      21 UNK        -0.5000 
    115 CA        -1.7261  -22.2328  -54.6401 C.3       21 UNK         0.1400 
    116 CB        -1.6742  -22.3194  -53.1079 C.3       21 UNK        -0.1800 
    117 C         -0.7355  -21.1703  -55.1608 C.2       21 UNK         0.5000 
    118 O          0.4182  -21.5083  -55.4305 O.2       21 UNK        -0.5000 
    119 N         -1.2066  -19.9265  -55.3206 N.am      22 UNK        -0.5000 
    120 CA        -0.4593  -18.8171  -55.9315 C.3       22 UNK         0.1400 
    121 C         -0.8356  -18.6199  -57.4238 C.2       22 UNK         0.5000 
    122 N         -2.1020  -18.7466  -57.8013 N.am      22 UNK        -0.7600 
    123 O          0.0320  -18.3524  -58.2505 O.2       22 UNK        -0.5000 
    124 C124       -0.6437  -17.4896  -55.1551 C.3       23 UNK        -0.0398 
    125 S125       -0.0290  -17.5926  -53.4428 S.3       23 UNK        -0.2404 
    126 C126        1.6832  -17.0285  -53.6615 C.3       23 UNK        -0.0205 
    127 H127       -0.5516  -14.4016  -51.1712 H         1 UNK         0.0600 
    128 H128       -1.2588  -12.8118  -51.4782 H         1 UNK         0.0600 
    129 H129       -2.2865  -14.1554  -50.9669 H         1 UNK         0.0600 
    130 H130        0.5646  -14.4308  -49.2537 H         1 UNK         0.3000 
    131 H131        0.1537  -12.5203  -47.1286 H         1 UNK         0.0600 
    132 H132        2.4225  -12.9897  -47.7091 H         1 UNK         0.0800 
    133 H133        2.1732  -13.6402  -46.1264 H         1 UNK         0.0800 
    134 H134        4.3148  -14.7061  -49.1244 H         1 UNK         0.0800 
    135 H135        2.7976  -14.1209  -49.7600 H         1 UNK         0.0800 
    136 H136        1.8998  -15.1981  -51.6616 H         1 UNK         0.1150 
    137 H137        3.2328  -19.1054  -52.8091 H         1 UNK         0.1150 
    138 H138        4.5871  -17.3727  -49.1267 H         1 UNK         0.1150 
    139 H139        5.4827  -19.4669  -49.7933 H         1 UNK         0.0800 
    140 H140        5.5307  -19.7506  -51.5137 H         1 UNK         0.0800 
    141 H141        3.0550  -19.7364  -48.6514 H         1 UNK         0.0800 
    142 H142        3.5303  -21.3173  -48.1025 H         1 UNK         0.0800 
    143 H143        1.4999  -22.2524  -49.4173 H         1 UNK         0.0600 
    144 H144        1.3393  -20.8282  -46.8733 H         1 UNK         0.3000 
    145 H145       -1.7592  -22.1575  -45.9713 H         1 UNK         0.0600 
    146 H146       -0.6868  -23.2439  -44.0300 H         1 UNK         0.0600 
    147 H147       -0.4379  -24.2154  -45.4709 H         1 UNK         0.0600 
    148 H148        0.8784  -23.2255  -44.8450 H         1 UNK         0.0600 
    149 H149        0.2783  -20.8669  -44.4280 H         1 UNK         0.3000 
    150 H150       -0.4917  -17.5363  -45.5184 H         1 UNK         0.0600 
    151 H151       -0.9749  -18.9256  -42.8321 H         1 UNK         0.0600 
    152 H152       -2.1857  -18.0347  -43.7455 H         1 UNK         0.0600 
    153 H153       -0.7945  -17.1897  -43.0868 H         1 UNK         0.0600 
    154 H154        1.3664  -18.3437  -43.5902 H         1 UNK         0.3000 
    155 H155        4.1309  -18.9446  -45.8031 H         1 UNK         0.0600 
    156 H156        3.4018  -16.7862  -43.7506 H         1 UNK         0.0600 
    157 H157        3.9209  -16.4954  -45.4045 H         1 UNK         0.0600 
    158 H158        5.0302  -17.2253  -44.2569 H         1 UNK         0.0600 
    159 H159        3.4553  -19.1018  -42.9361 H         1 UNK         0.3000 
    160 H160        3.3575  -22.6382  -42.8706 H         1 UNK         0.0600 
    161 H161        5.5733  -20.7970  -41.8199 H         1 UNK         0.0600 
    162 H162        5.8209  -22.2127  -42.8352 H         1 UNK         0.0600 
    163 H163        5.1827  -22.4059  -41.2105 H         1 UNK         0.0600 
    164 H164        3.3178  -20.6947  -40.7829 H         1 UNK         0.3000 
    165 H165       -0.1910  -20.0196  -40.8907 H         1 UNK         0.0600 
    166 H166       -0.0765  -20.9211  -38.6063 H         1 UNK         0.0600 
    167 H167        1.5036  -21.6383  -38.9233 H         1 UNK         0.0600 
    168 H168        0.0749  -22.2372  -39.7580 H         1 UNK         0.0600 
    169 H169        1.4414  -19.0561  -38.9633 H         1 UNK         0.3000 
    170 H170        1.6751  -16.7696  -38.9529 H         1 UNK         0.0600 
    171 H171        3.9406  -17.8476  -38.8908 H         1 UNK         0.0600 
    172 H172        4.4019  -16.9904  -40.3563 H         1 UNK         0.0600 
    173 H173        4.0807  -16.0979  -38.8689 H         1 UNK         0.0600 
    174 H174        2.9289  -15.0988  -40.8899 H         1 UNK         0.3000 
    175 H175        1.2309  -13.0057  -41.2902 H         1 UNK         0.0600 
    176 H176        1.9593  -14.8644  -43.6103 H         1 UNK         0.0600 
    177 H177        2.0403  -13.1057  -43.6981 H         1 UNK         0.0600 
    178 H178        3.0688  -13.9730  -42.5780 H         1 UNK         0.0600 
    179 H179       -0.4150  -13.9461  -43.5261 H         1 UNK         0.3000 
    180 H180       -3.4567  -13.0804  -42.2593 H         1 UNK         0.0600 
    181 H181       -2.0212  -10.7791  -43.6895 H         1 UNK         0.0600 
    182 H182       -2.9046  -10.6572  -42.1730 H         1 UNK         0.0600 
    183 H183       -3.7658  -11.0384  -43.6540 H         1 UNK         0.0600 
    184 H184       -2.2503  -12.8757  -44.9291 H         1 UNK         0.3000 
    185 H185       -2.4004  -16.2546  -45.6687 H         1 UNK         0.0600 
    186 H186       -4.0007  -15.7845  -47.4859 H         1 UNK         0.0600 
    187 H187       -4.8473  -15.8749  -45.9501 H         1 UNK         0.0600 
    188 H188       -4.5286  -14.3053  -46.6813 H         1 UNK         0.0600 
    189 H189       -2.1740  -14.0059  -47.4053 H         1 UNK         0.3000 
    190 H190        0.3658  -19.1245  -48.1498 H         1 UNK         0.3000 
    191 H191       -0.3482  -17.9635  -50.6328 H         1 UNK         0.0600 
    192 H192       -1.5628  -16.3175  -49.2411 H         1 UNK         0.0600 
    193 H193        0.0441  -16.6408  -48.6029 H         1 UNK         0.0600 
    194 H194       -1.3715  -17.3296  -47.8218 H         1 UNK         0.0600 
    195 H195       -2.5005  -19.4557  -48.1231 H         1 UNK         0.3000 
    196 H196       -4.3044  -20.5425  -50.0699 H         1 UNK         0.0600 
    197 H197       -5.1836  -17.9277  -48.7178 H         1 UNK         0.0600 
    198 H198       -5.0327  -18.2096  -50.4512 H         1 UNK         0.0600 
    199 H199       -6.2903  -19.0153  -49.5450 H         1 UNK         0.0600 
    200 H200       -3.4345  -20.0479  -46.7183 H         1 UNK         0.3000 
    201 H201       -5.8576  -21.0223  -45.5538 H         1 UNK         0.0600 
    202 H202       -3.0693  -20.9988  -44.2923 H         1 UNK         0.0600 
    203 H203       -4.6150  -20.9525  -43.4707 H         1 UNK         0.0600 
    204 H204       -4.0954  -19.5680  -44.4127 H         1 UNK         0.0600 
    205 H205       -5.7940  -22.9400  -44.0000 H         1 UNK         0.3000 
    206 H206       -5.9909  -25.1252  -43.7040 H         1 UNK         0.0600 
    207 H207       -3.5030  -24.9991  -43.3771 H         1 UNK         0.0600 
    208 H208       -4.0193  -26.5657  -43.9786 H         1 UNK         0.0600 
    209 H209       -3.2635  -25.4169  -45.0724 H         1 UNK         0.0600 
    210 H210       -7.1710  -23.9833  -46.0093 H         1 UNK         0.3000 
    211 H211       -8.4152  -24.4227  -47.7590 H         1 UNK         0.0600 
    212 H212       -9.3105  -26.6705  -48.1479 H         1 UNK         0.0600 
    213 H213       -9.2079  -26.3909  -46.4189 H         1 UNK         0.0600 
    214 H214       -8.0131  -27.4093  -47.2221 H         1 UNK         0.0600 
    215 H215       -5.4172  -24.1880  -48.0946 H         1 UNK         0.3000 
    216 H216       -4.7301  -25.6530  -50.4752 H         1 UNK         0.0600 
    217 H217       -3.5401  -23.0706  -49.3317 H         1 UNK         0.0600 
    218 H218       -2.8062  -24.0948  -50.5557 H         1 UNK         0.0600 
    219 H219       -3.0246  -24.7032  -48.9231 H         1 UNK         0.0600 
    220 H220       -6.1822  -22.4967  -49.8386 H         1 UNK         0.3000 
    221 H221       -7.3423  -21.0249  -50.9643 H         1 UNK         0.0600 
    222 H222       -8.6016  -22.9914  -51.9382 H         1 UNK         0.0600 
    223 H223       -7.5218  -22.9730  -53.3305 H         1 UNK         0.0600 
    224 H224       -8.5763  -21.6055  -53.0124 H         1 UNK         0.0600 
    225 H225       -7.4030  -19.5944  -53.0044 H         1 UNK         0.3000 
    226 H226       -4.8650  -18.4317  -53.3750 H         1 UNK         0.0600 
    227 H227       -7.4565  -18.0628  -54.9741 H         1 UNK         0.0600 
    228 H228       -6.9976  -17.1742  -53.5200 H         1 UNK         0.0600 
    229 H229       -6.0790  -16.9681  -55.0019 H         1 UNK         0.0600 
    230 H230       -6.3152  -21.0393  -55.1012 H         1 UNK         0.3000 
    231 H231       -4.9235  -20.9921  -57.5744 H         1 UNK         0.0600 
    232 H232       -6.0070  -23.3350  -55.9149 H         1 UNK         0.0600 
    233 H233       -5.5428  -23.4196  -57.6103 H         1 UNK         0.0600 
    234 H234       -6.9064  -22.4234  -57.1291 H         1 UNK         0.0600 
    235 H235       -3.7426  -21.6645  -54.3389 H         1 UNK         0.3000 
    236 H236       -1.4219  -23.2001  -55.0451 H         1 UNK         0.0600 
    237 H237       -2.3600  -23.0786  -52.7324 H         1 UNK         0.0600 
    238 H238       -0.6729  -22.5816  -52.7645 H         1 UNK         0.0600 
    239 H239       -1.9396  -21.3689  -52.6420 H         1 UNK         0.0600 
    240 H240       -2.1791  -19.7419  -55.1123 H         1 UNK         0.3000 
    241 H241        0.6071  -19.0501  -55.9122 H         1 UNK         0.0600 
    242 H242       -2.3446  -18.6227  -58.7711 H         1 UNK         0.3800 
    243 H243       -2.8362  -18.8909  -57.1118 H         1 UNK         0.3800 
    244 H244       -1.6996  -17.2156  -55.1190 H         1 UNK         0.0800 
    245 H245       -0.1346  -16.6677  -55.6619 H         1 UNK         0.0800 
    246 H246        1.6837  -15.9947  -54.0104 H         1 UNK         0.0800 
    247 H247        2.1629  -17.6191  -54.4436 H         1 UNK         0.0800 
@<TRIPOS>BOND
     1    1    2 1    
     2    1  127 1    
     3    1  128 1    
     4    1  129 1    
     5    2    3 2    
     6    2    4 am   BACKBONE|DICT|INTERRES
     7    4    5 1    
     8    4  130 1    
     9    5    6 1    
    10    5   65 1    
    11    5  131 1    
    12    6    7 1    
    13    6  132 1    
    14    6  133 1    
    15    7    8 1    
    16    8    9 1    
    17    8  134 1    
    18    8  135 1    
    19    9   10 ar   
    20    9   14 ar   
    21   10   11 ar   
    22   10  136 1    
    23   11   12 ar   
    24   11  126 1    
    25   12   13 ar   
    26   12  137 1    
    27   13   14 ar   
    28   13   15 1    
    29   14  138 1    
    30   15   16 1    
    31   15  139 1    
    32   15  140 1    
    33   16   17 1    
    34   17   18 1    
    35   17  141 1    
    36   17  142 1    
    37   18   19 1    
    38   18   67 1    
    39   18  143 1    
    40   19   20 am   BACKBONE|DICT|INTERRES
    41   19  144 1    
    42   20   21 2    
    43   20   22 1    
    44   22   23 1    
    45   22   24 1    
    46   22  145 1    
    47   23  146 1    
    48   23  147 1    
    49   23  148 1    
    50   24   25 am   BACKBONE|DICT|INTERRES
    51   24  149 1    
    52   25   26 2    
    53   25   27 1    
    54   27   28 1    
    55   27   29 1    
    56   27  150 1    
    57   28  151 1    
    58   28  152 1    
    59   28  153 1    
    60   29   30 am   BACKBONE|DICT|INTERRES
    61   29  154 1    
    62   30   31 2    
    63   30   32 1    
    64   32   33 1    
    65   32   34 1    
    66   32  155 1    
    67   33  156 1    
    68   33  157 1    
    69   33  158 1    
    70   34   35 am   BACKBONE|DICT|INTERRES
    71   34  159 1    
    72   35   36 2    
    73   35   37 1    
    74   37   38 1    
    75   37   39 1    
    76   37  160 1    
    77   38  161 1    
    78   38  162 1    
    79   38  163 1    
    80   39   40 am   BACKBONE|DICT|INTERRES
    81   39  164 1    
    82   40   41 2    
    83   40   42 1    
    84   42   43 1    
    85   42   44 1    
    86   42  165 1    
    87   43  166 1    
    88   43  167 1    
    89   43  168 1    
    90   44   45 am   BACKBONE|DICT|INTERRES
    91   44  169 1    
    92   45   46 2    
    93   45   47 1    
    94   47   48 1    
    95   47   49 1    
    96   47  170 1    
    97   48  171 1    
    98   48  172 1    
    99   48  173 1    
   100   49   50 am   BACKBONE|DICT|INTERRES
   101   49  174 1    
   102   50   51 2    
   103   50   52 1    
   104   52   53 1    
   105   52   54 1    
   106   52  175 1    
   107   53  176 1    
   108   53  177 1    
   109   53  178 1    
   110   54   55 am   BACKBONE|DICT|INTERRES
   111   54  179 1    
   112   55   56 2    
   113   55   57 1    
   114   57   58 1    
   115   57   59 1    
   116   57  180 1    
   117   58  181 1    
   118   58  182 1    
   119   58  183 1    
   120   59   60 am   BACKBONE|DICT|INTERRES
   121   59  184 1    
   122   60   61 2    
   123   60   62 1    
   124   62   63 1    
   125   62   64 1    
   126   62  185 1    
   127   63  186 1    
   128   63  187 1    
   129   63  188 1    
   130   64   65 am   BACKBONE|DICT|INTERRES
   131   64  189 1    
   132   65   66 2    
   133   67   68 2    
   134   67   69 am   BACKBONE|DICT|INTERRES
   135   69   70 1    
   136   69  190 1    
   137   70   71 1    
   138   70   72 1    
   139   70  191 1    
   140   71  192 1    
   141   71  193 1    
   142   71  194 1    
   143   72   73 2    
   144   72   74 am   BACKBONE|DICT|INTERRES
   145   74   75 1    
   146   74  195 1    
   147   75   76 1    
   148   75   77 1    
   149   75  196 1    
   150   76  197 1    
   151   76  198 1    
   152   76  199 1    
   153   77   78 2    
   154   77   79 am   BACKBONE|DICT|INTERRES
   155   79   80 1    
   156   79  200 1    
   157   80   81 1    
   158   80   82 1    
   159   80  201 1    
   160   81  202 1    
   161   81  203 1    
   162   81  204 1    
   163   82   83 2    
   164   82   84 am   BACKBONE|DICT|INTERRES
   165   84   85 1    
   166   84  205 1    
   167   85   86 1    
   168   85   87 1    
   169   85  206 1    
   170   86  207 1    
   171   86  208 1    
   172   86  209 1    
   173   87   88 2    
   174   87   89 am   BACKBONE|DICT|INTERRES
   175   89   90 1    
   176   89  210 1    
   177   90   91 1    
   178   90   92 1    
   179   90  211 1    
   180   91  212 1    
   181   91  213 1    
   182   91  214 1    
   183   92   93 2    
   184   92   94 am   BACKBONE|DICT|INTERRES
   185   94   95 1    
   186   94  215 1    
   187   95   96 1    
   188   95   97 1    
   189   95  216 1    
   190   96  217 1    
   191   96  218 1    
   192   96  219 1    
   193   97   98 2    
   194   97   99 am   BACKBONE|DICT|INTERRES
   195   99  100 1    
   196   99  220 1    
   197  100  101 1    
   198  100  102 1    
   199  100  221 1    
   200  101  222 1    
   201  101  223 1    
   202  101  224 1    
   203  102  103 2    
   204  102  104 am   BACKBONE|DICT|INTERRES
   205  104  105 1    
   206  104  225 1    
   207  105  106 1    
   208  105  107 1    
   209  105  226 1    
   210  106  227 1    
   211  106  228 1    
   212  106  229 1    
   213  107  108 2    
   214  107  109 am   BACKBONE|DICT|INTERRES
   215  109  110 1    
   216  109  230 1    
   217  110  111 1    
   218  110  112 1    
   219  110  231 1    
   220  111  232 1    
   221  111  233 1    
   222  111  234 1    
   223  112  113 2    
   224  112  114 am   BACKBONE|DICT|INTERRES
   225  114  115 1    
   226  114  235 1    
   227  115  116 1    
   228  115  117 1    
   229  115  236 1    
   230  116  237 1    
   231  116  238 1    
   232  116  239 1    
   233  117  118 2    
   234  117  119 am   BACKBONE|DICT|INTERRES
   235  119  120 1    
   236  119  240 1    
   237  120  121 1    
   238  120  124 1    
   239  120  241 1    
   240  121  122 am   BACKBONE|DICT|INTERRES
   241  121  123 2    
   242  122  242 1    
   243  122  243 1    
   244  124  125 1    
   245  124  244 1    
   246  124  245 1    
   247  125  126 1    
   248  126  246 1    
   249  126  247 1    
@<TRIPOS>SUBSTRUCTURE
     1 UNK         1 GROUP             0       ****    0 ROOT    
