@<TRIPOS>MOLECULE
3R540
247   249    1
SMALL
USER_CHARGES


@<TRIPOS>ATOM
      1 CA          6.0487  -10.5361  -51.9213 C.3       0 UNK        -0.1800 
      2 C           5.3348  -11.5781  -51.0722 C.2       0 UNK         0.5000 
      3 O           5.8382  -11.9574  -50.0149 O.2       0 UNK        -0.5000 
      4 N           4.1621  -12.0380  -51.5270 N.am      1 UNK        -0.5000 
      5 CA          3.3406  -13.0558  -50.8551 C.3       1 UNK         0.1400 
      6 C6          2.3052  -13.6998  -51.8087 C.3       23 UNK        -0.0398 
      7 S7          3.0489  -14.4090  -53.3182 S.3       23 UNK        -0.2404 
      8 C8          3.5091  -16.0886  -52.7639 C.3       23 UNK        -0.0205 
      9 C9          2.3502  -16.9765  -52.3080 C.ar      23 UNK        -0.0193 
     10 C10         1.0505  -16.8268  -52.8101 C.ar      23 UNK        -0.1150 
     11 C11         0.0124  -17.6491  -52.3633 C.ar      23 UNK        -0.0193 
     12 C12         0.2863  -18.6547  -51.4350 C.ar      23 UNK        -0.1150 
     13 C13         1.5788  -18.8316  -50.9391 C.ar      23 UNK        -0.0193 
     14 C14         2.6035  -17.9864  -51.3737 C.ar      23 UNK        -0.1150 
     15 C15         1.8617  -19.9467  -49.9466 C.3       23 UNK        -0.0205 
     16 S16         1.1636  -19.5712  -48.3101 S.3       23 UNK        -0.2404 
     17 C17         1.6133  -21.0883  -47.3945 C.3       23 UNK        -0.0398 
     18 CA          0.4309  -22.0507  -47.1231 C.3       11 UNK         0.1400 
     19 N          -0.5986  -21.4456  -46.2695 N.am      11 UNK        -0.5000 
     20 C          -1.6909  -22.0746  -45.8148 C.2       10 UNK         0.5000 
     21 O          -1.9700  -23.2422  -46.0938 O.2       10 UNK        -0.5000 
     22 CA         -2.6159  -21.2470  -44.9076 C.3       10 UNK         0.1400 
     23 CB         -3.9170  -21.9810  -44.5257 C.3       10 UNK        -0.1800 
     24 N          -1.9216  -20.7611  -43.7172 N.am      10 UNK        -0.5000 
     25 C          -1.3357  -21.4724  -42.7435 C.2       9 UNK         0.5000 
     26 O          -1.3199  -22.7027  -42.6971 O.2       9 UNK        -0.5000 
     27 CA         -0.6387  -20.6699  -41.6249 C.3       9 UNK         0.1400 
     28 CB          0.8869  -20.7441  -41.7938 C.3       9 UNK        -0.1800 
     29 N          -1.0423  -19.2615  -41.5848 N.am      9 UNK        -0.5000 
     30 C          -2.2306  -18.8116  -41.1569 C.2       8 UNK         0.5000 
     31 O          -3.0914  -19.5305  -40.6487 O.2       8 UNK        -0.5000 
     32 CA         -2.5223  -17.3145  -41.3799 C.3       8 UNK         0.1400 
     33 CB         -1.9118  -16.4639  -40.2562 C.3       8 UNK        -0.1800 
     34 N          -2.0407  -16.8328  -42.6777 N.am      8 UNK        -0.5000 
     35 C          -2.5130  -17.2392  -43.8661 C.2       7 UNK         0.5000 
     36 O          -3.4456  -18.0308  -43.9924 O.2       7 UNK        -0.5000 
     37 CA         -1.7907  -16.7191  -45.1210 C.3       7 UNK         0.1400 
     38 CB         -2.3322  -15.3458  -45.5451 C.3       7 UNK        -0.1800 
     39 N          -0.3443  -16.6405  -44.9207 N.am      7 UNK        -0.5000 
     40 C           0.4717  -17.7038  -44.8998 C.2       6 UNK         0.5000 
     41 O           0.0925  -18.8607  -45.0867 O.2       6 UNK        -0.5000 
     42 CA          1.9525  -17.4288  -44.5725 C.3       6 UNK         0.1400 
     43 CB          2.7285  -17.0234  -45.8346 C.3       6 UNK        -0.1800 
     44 N           2.1226  -16.3870  -43.5585 N.am      6 UNK        -0.5000 
     45 C           1.7458  -16.5001  -42.2774 C.2       5 UNK         0.5000 
     46 O           1.2289  -17.5101  -41.8043 O.2       5 UNK        -0.5000 
     47 CA          1.9315  -15.2558  -41.3904 C.3       5 UNK         0.1400 
     48 CB          3.3463  -15.2233  -40.7946 C.3       5 UNK        -0.1800 
     49 N           1.6799  -14.0031  -42.1040 N.am      5 UNK        -0.5000 
     50 C           0.5193  -13.6469  -42.6675 C.2       4 UNK         0.5000 
     51 O          -0.4895  -14.3519  -42.6449 O.2       4 UNK        -0.5000 
     52 CA          0.4915  -12.3118  -43.4340 C.3       4 UNK         0.1400 
     53 CB          0.3902  -11.1121  -42.4735 C.3       4 UNK        -0.1800 
     54 N           1.5957  -12.1560  -44.3922 N.am      4 UNK        -0.5000 
     55 C           2.9104  -12.0061  -44.1633 C.2       3 UNK         0.5000 
     56 O           3.4116  -11.9669  -43.0390 O.2       3 UNK        -0.5000 
     57 CA          3.8302  -11.9314  -45.3976 C.3       3 UNK         0.1400 
     58 CB          4.6101  -13.2461  -45.5590 C.3       3 UNK        -0.1800 
     59 N           3.0993  -11.6714  -46.6384 N.am      3 UNK        -0.5000 
     60 C           2.6661  -10.4759  -47.0528 C.2       2 UNK         0.5000 
     61 O           2.8737   -9.4314  -46.4329 O.2       2 UNK        -0.5000 
     62 CA          1.8653  -10.4567  -48.3763 C.3       2 UNK         0.1400 
     63 CB          1.5553   -9.0285  -48.8603 C.3       2 UNK        -0.1800 
     64 N           2.5221  -11.1843  -49.4668 N.am      2 UNK        -0.5000 
     65 C           2.6253  -12.5153  -49.5970 C.2       1 UNK         0.5000 
     66 O           2.1829  -13.3099  -48.7657 O.2       1 UNK        -0.5000 
     67 C          -0.1221  -22.6755  -48.4255 C.2       11 UNK         0.5000 
     68 O           0.3639  -23.7249  -48.8441 O.2       11 UNK        -0.5000 
     69 N          -1.1580  -22.0576  -49.0134 N.am      12 UNK        -0.5000 
     70 CA         -1.8616  -22.5747  -50.1881 C.3       12 UNK         0.1400 
     71 CB         -2.7887  -21.4950  -50.7590 C.3       12 UNK        -0.1800 
     72 C          -2.6603  -23.8580  -49.8979 C.2       12 UNK         0.5000 
     73 O          -2.7394  -24.7276  -50.7651 O.2       12 UNK        -0.5000 
     74 N          -3.2228  -23.9766  -48.6878 N.am      13 UNK        -0.5000 
     75 CA         -3.9302  -25.1752  -48.2371 C.3       13 UNK         0.1400 
     76 CB         -4.8197  -24.8438  -47.0303 C.3       13 UNK        -0.1800 
     77 C          -2.9485  -26.3137  -47.9188 C.2       13 UNK         0.5000 
     78 O          -3.2160  -27.4583  -48.2829 O.2       13 UNK        -0.5000 
     79 N          -1.8013  -25.9712  -47.3143 N.am      14 UNK        -0.5000 
     80 CA         -0.6844  -26.8875  -47.0651 C.3       14 UNK         0.1400 
     81 CB          0.3700  -26.1843  -46.1976 C.3       14 UNK        -0.1800 
     82 C          -0.0564  -27.4313  -48.3656 C.2       14 UNK         0.5000 
     83 O           0.3071  -28.6062  -48.4226 O.2       14 UNK        -0.5000 
     84 N           0.0137  -26.5799  -49.3983 N.am      15 UNK        -0.5000 
     85 CA          0.4480  -26.9212  -50.7555 C.3       15 UNK         0.1400 
     86 CB          0.8473  -25.6262  -51.4818 C.3       15 UNK        -0.1800 
     87 C          -0.6111  -27.6892  -51.5770 C.2       15 UNK         0.5000 
     88 O          -0.2992  -28.1302  -52.6837 O.2       15 UNK        -0.5000 
     89 N          -1.8358  -27.8183  -51.0433 N.am      16 UNK        -0.5000 
     90 CA         -3.0174  -28.4525  -51.6410 C.3       16 UNK         0.1400 
     91 CB         -2.7740  -29.9527  -51.9081 C.3       16 UNK        -0.1800 
     92 C          -3.5785  -27.7044  -52.8711 C.2       16 UNK         0.5000 
     93 O          -4.3089  -28.2960  -53.6679 O.2       16 UNK        -0.5000 
     94 N          -3.2627  -26.4083  -52.9871 N.am      17 UNK        -0.5000 
     95 CA         -3.8311  -25.4886  -53.9735 C.3       17 UNK         0.1400 
     96 CB         -2.8087  -24.3776  -54.2614 C.3       17 UNK        -0.1800 
     97 C          -5.1584  -24.8772  -53.4843 C.2       17 UNK         0.5000 
     98 O          -5.9654  -24.4472  -54.3093 O.2       17 UNK        -0.5000 
     99 N          -5.3487  -24.8487  -52.1558 N.am      18 UNK        -0.5000 
    100 CA        -6.4506  -24.2529  -51.3978 C.3       18 UNK         0.1400 
    101 CB        -7.8177  -24.8638  -51.7683 C.3       18 UNK        -0.1800 
    102 C         -6.4257  -22.7193  -51.4849 C.2       18 UNK         0.5000 
    103 O         -5.9761  -22.0778  -50.5361 O.2       18 UNK        -0.5000 
    104 N         -6.8948  -22.1697  -52.6152 N.am      19 UNK        -0.5000 
    105 CA        -6.8502  -20.7581  -53.0276 C.3       19 UNK         0.1400 
    106 CB        -5.4214  -20.4020  -53.4868 C.3       19 UNK        -0.1800 
    107 C         -7.3833  -19.7524  -51.9817 C.2       19 UNK         0.5000 
    108 O         -6.8852  -18.6279  -51.9078 O.2       19 UNK        -0.5000 
    109 N         -8.3467  -20.1885  -51.1542 N.am      20 UNK        -0.5000 
    110 CA        -8.8909  -19.4792  -49.9872 C.3       20 UNK         0.1400 
    111 CB        -9.7702  -18.2948  -50.4394 C.3       20 UNK        -0.1800 
    112 C         -7.7988  -19.0631  -48.9727 C.2       20 UNK         0.5000 
    113 O         -7.8541  -17.9630  -48.4189 O.2       20 UNK        -0.5000 
    114 N         -6.7853  -19.9292  -48.8025 N.am      21 UNK        -0.5000 
    115 CA        -5.5697  -19.7416  -47.9987 C.3       21 UNK         0.1400 
    116 CB        -5.9214  -19.6046  -46.5021 C.3       21 UNK        -0.1800 
    117 C         -4.6635  -18.5920  -48.4976 C.2       21 UNK         0.5000 
    118 O         -3.7858  -18.1469  -47.7589 O.2       21 UNK        -0.5000 
    119 N         -4.8924  -18.1283  -49.7345 N.am      22 UNK        -0.5000 
    120 CA        -4.3462  -16.8929  -50.3133 C.3       22 UNK         0.1400 
    121 C         -4.9025  -15.5878  -49.6568 C.2       22 UNK         0.5000 
    122 N         -6.0241  -15.6283  -48.9438 N.am      22 UNK        -0.7600 
    123 O         -4.3312  -14.5118  -49.8093 O.2       22 UNK        -0.5000 
    124 C124       -2.7957  -16.9167  -50.4574 C.3       23 UNK        -0.0398 
    125 S125       -2.2404  -16.0938  -51.9935 S.3       23 UNK        -0.2404 
    126 C126       -1.4017  -17.4427  -52.8833 C.3       23 UNK        -0.0205 
    127 H127        5.4890  -10.2974  -52.8261 H         1 UNK         0.0600 
    128 H128        6.1836   -9.6164  -51.3521 H         1 UNK         0.0600 
    129 H129        7.0317  -10.9029  -52.2168 H         1 UNK         0.0600 
    130 H130        3.8083  -11.7072  -52.4138 H         1 UNK         0.3000 
    131 H131        4.0095  -13.8485  -50.5131 H         1 UNK         0.0600 
    132 H132        1.5695  -12.9578  -52.1243 H         1 UNK         0.0800 
    133 H133        1.7392  -14.4760  -51.2907 H         1 UNK         0.0800 
    134 H134        4.2407  -15.9912  -51.9603 H         1 UNK         0.0800 
    135 H135        4.0209  -16.5922  -53.5847 H         1 UNK         0.0800 
    136 H136        0.8332  -16.0594  -53.5389 H         1 UNK         0.1150 
    137 H137       -0.5045  -19.2982  -51.0847 H         1 UNK         0.1150 
    138 H138        3.6045  -18.1200  -50.9878 H         1 UNK         0.1150 
    139 H139        1.4367  -20.8781  -50.3234 H         1 UNK         0.0800 
    140 H140        2.9362  -20.1110  -49.8514 H         1 UNK         0.0800 
    141 H141        2.0469  -20.7772  -46.4430 H         1 UNK         0.0800 
    142 H142        2.4150  -21.6128  -47.9173 H         1 UNK         0.0800 
    143 H143        0.8349  -22.8828  -46.5433 H         1 UNK         0.0600 
    144 H144       -0.4171  -20.4927  -45.9605 H         1 UNK         0.3000 
    145 H145       -2.8891  -20.3608  -45.4809 H         1 UNK         0.0600 
    146 H146       -4.5486  -21.3558  -43.8944 H         1 UNK         0.0600 
    147 H147       -4.4958  -22.2313  -45.4149 H         1 UNK         0.0600 
    148 H148       -3.7202  -22.9096  -43.9892 H         1 UNK         0.0600 
    149 H149       -1.8507  -19.7552  -43.6506 H         1 UNK         0.3000 
    150 H150       -0.9025  -21.1330  -40.6720 H         1 UNK         0.0600 
    151 H151        1.2323  -21.7786  -41.7969 H         1 UNK         0.0600 
    152 H152        1.3995  -20.2332  -40.9786 H         1 UNK         0.0600 
    153 H153        1.2082  -20.2870  -42.7307 H         1 UNK         0.0600 
    154 H154       -0.3519  -18.5880  -41.9062 H         1 UNK         0.3000 
    155 H155       -3.6056  -17.1792  -41.3567 H         1 UNK         0.0600 
    156 H156       -0.8285  -16.5719  -40.2126 H         1 UNK         0.0600 
    157 H157       -2.3094  -16.7597  -39.2847 H         1 UNK         0.0600 
    158 H158       -2.1381  -15.4062  -40.3933 H         1 UNK         0.0600 
    159 H159       -1.3126  -16.1252  -42.6601 H         1 UNK         0.3000 
    160 H160       -1.9851  -17.4225  -45.9331 H         1 UNK         0.0600 
    161 H161       -1.8512  -14.9987  -46.4597 H         1 UNK         0.0600 
    162 H162       -2.1772  -14.5906  -44.7742 H         1 UNK         0.0600 
    163 H163       -3.4035  -15.3985  -45.7442 H         1 UNK         0.0600 
    164 H164        0.0362  -15.7311  -44.7073 H         1 UNK         0.3000 
    165 H165        2.3857  -18.3534  -44.1850 H         1 UNK         0.0600 
    166 H166        3.7787  -16.8363  -45.6102 H         1 UNK         0.0600 
    167 H167        2.6984  -17.8155  -46.5817 H         1 UNK         0.0600 
    168 H168        2.3168  -16.1234  -46.2933 H         1 UNK         0.0600 
    169 H169        2.5383  -15.5187  -43.8590 H         1 UNK         0.3000 
    170 H170        1.2154  -15.3212  -40.5694 H         1 UNK         0.0600 
    171 H171        3.5592  -16.1396  -40.2425 H         1 UNK         0.0600 
    172 H172        3.4614  -14.3914  -40.0995 H         1 UNK         0.0600 
    173 H173        4.1074  -15.1202  -41.5691 H         1 UNK         0.0600 
    174 H174        2.4583  -13.3555  -42.1977 H         1 UNK         0.3000 
    175 H175       -0.4189  -12.3196  -44.0356 H         1 UNK         0.0600 
    176 H176        0.3178  -10.1736  -43.0231 H         1 UNK         0.0600 
    177 H177       -0.4995  -11.1920  -41.8476 H         1 UNK         0.0600 
    178 H178        1.2496  -11.0442  -41.8062 H         1 UNK         0.0600 
    179 H179        1.3191  -12.2011  -45.3623 H         1 UNK         0.3000 
    180 H180        4.5458  -11.1240  -45.2292 H         1 UNK         0.0600 
    181 H181        3.9440  -14.0900  -45.7421 H         1 UNK         0.0600 
    182 H182        5.1906  -13.4723  -44.6635 H         1 UNK         0.0600 
    183 H183        5.3107  -13.1871  -46.3923 H         1 UNK         0.0600 
    184 H184        2.8840  -12.4725  -47.2264 H         1 UNK         0.3000 
    185 H185        0.9117  -10.9469  -48.1703 H         1 UNK         0.0600 
    186 H186        2.4672   -8.4727  -49.0822 H         1 UNK         0.0600 
    187 H187        0.9422   -9.0415  -49.7616 H         1 UNK         0.0600 
    188 H188        1.0028   -8.4680  -48.1050 H         1 UNK         0.0600 
    189 H189        2.9506  -10.6153  -50.1821 H         1 UNK         0.3000 
    190 H190       -1.4888  -21.1910  -48.6157 H         1 UNK         0.3000 
    191 H191       -1.1184  -22.8170  -50.9504 H         1 UNK         0.0600 
    192 H192       -2.2328  -20.6315  -51.1154 H         1 UNK         0.0600 
    193 H193       -3.5095  -21.1479  -50.0196 H         1 UNK         0.0600 
    194 H194       -3.3494  -21.8856  -51.6085 H         1 UNK         0.0600 
    195 H195       -3.0398  -23.2711  -47.9874 H         1 UNK         0.3000 
    196 H196       -4.5803  -25.5174  -49.0440 H         1 UNK         0.0600 
    197 H197       -5.4358  -25.7017  -46.7587 H         1 UNK         0.0600 
    198 H198       -5.4934  -24.0156  -47.2510 H         1 UNK         0.0600 
    199 H199       -4.2323  -24.5776  -46.1520 H         1 UNK         0.0600 
    200 H200       -1.6869  -25.0091  -47.0105 H         1 UNK         0.3000 
    201 H201       -1.0740  -27.7388  -46.5032 H         1 UNK         0.0600 
    202 H202       -0.0648  -25.8130  -45.2692 H         1 UNK         0.0600 
    203 H203        0.8218  -25.3397  -46.7169 H         1 UNK         0.0600 
    204 H204        1.1739  -26.8711  -45.9302 H         1 UNK         0.0600 
    205 H205       -0.2193  -25.6057  -49.2353 H         1 UNK         0.3000 
    206 H206        1.3310  -27.5594  -50.6862 H         1 UNK         0.0600 
    207 H207        1.6325  -25.0966  -50.9421 H         1 UNK         0.0600 
    208 H208        1.2283  -25.8363  -52.4819 H         1 UNK         0.0600 
    209 H209       -0.0008  -24.9498  -51.5897 H         1 UNK         0.0600 
    210 H210       -1.9870  -27.4243  -50.1234 H         1 UNK         0.3000 
    211 H211       -3.7977  -28.3855  -50.8818 H         1 UNK         0.0600 
    212 H212       -2.0687  -30.1120  -52.7239 H         1 UNK         0.0600 
    213 H213       -3.7022  -30.4572  -52.1787 H         1 UNK         0.0600 
    214 H214       -2.3824  -30.4520  -51.0219 H         1 UNK         0.0600 
    215 H215       -2.7065  -25.9832  -52.2517 H         1 UNK         0.3000 
    216 H216       -4.0278  -26.0246  -54.9042 H         1 UNK         0.0600 
    217 H217       -3.1854  -23.6868  -55.0168 H         1 UNK         0.0600 
    218 H218       -1.8728  -24.7919  -54.6367 H         1 UNK         0.0600 
    219 H219       -2.5818  -23.7942  -53.3683 H         1 UNK         0.0600 
    220 H220       -4.5628  -25.1527  -51.5929 H         1 UNK         0.3000 
    221 H221       -6.2667  -24.5030  -50.3525 H         1 UNK         0.0600 
    222 H222       -8.0945  -24.6856  -52.8071 H         1 UNK         0.0600 
    223 H223       -7.8171  -25.9419  -51.6079 H         1 UNK         0.0600 
    224 H224       -8.6092  -24.4452  -51.1456 H         1 UNK         0.0600 
    225 H225       -7.1929  -22.8163  -53.3354 H         1 UNK         0.3000 
    226 H226       -7.5083  -20.6733  -53.8933 H         1 UNK         0.0600 
    227 H227       -5.0299  -21.1432  -54.1838 H         1 UNK         0.0600 
    228 H228       -5.4021  -19.4373  -53.9950 H         1 UNK         0.0600 
    229 H229       -4.7356  -20.3366  -52.6427 H         1 UNK         0.0600 
    230 H230       -8.6797  -21.1327  -51.2877 H         1 UNK         0.3000 
    231 H231       -9.5341  -20.1888  -49.4652 H         1 UNK         0.0600 
    232 H232      -10.5398  -18.6200  -51.1393 H         1 UNK         0.0600 
    233 H233       -9.1820  -17.5160  -50.9258 H         1 UNK         0.0600 
    234 H234      -10.2786  -17.8376  -49.5897 H         1 UNK         0.0600 
    235 H235       -6.7769  -20.7699  -49.3750 H         1 UNK         0.3000 
    236 H236       -4.9865  -20.6558  -48.1154 H         1 UNK         0.0600 
    237 H237       -5.0247  -19.5580  -45.8858 H         1 UNK         0.0600 
    238 H238       -6.4899  -18.6977  -46.2973 H         1 UNK         0.0600 
    239 H239       -6.5081  -20.4551  -46.1555 H         1 UNK         0.0600 
    240 H240       -5.6391  -18.5471  -50.2777 H         1 UNK         0.3000 
    241 H241       -4.7683  -16.8832  -51.3187 H         1 UNK         0.0600 
    242 H242       -6.3750  -14.7771  -48.5352 H         1 UNK         0.3800 
    243 H243       -6.5374  -16.4932  -48.8092 H         1 UNK         0.3800 
    244 H244       -2.3097  -16.4499  -49.5989 H         1 UNK         0.0800 
    245 H245       -2.4374  -17.9459  -50.4677 H         1 UNK         0.0800 
    246 H246       -1.3632  -17.1917  -53.9443 H         1 UNK         0.0800 
    247 H247       -1.9858  -18.3617  -52.8108 H         1 UNK         0.0800 
@<TRIPOS>BOND
     1    1    2 1    
     2    1  127 1    
     3    1  128 1    
     4    1  129 1    
     5    2    3 2    
     6    2    4 am   BACKBONE|DICT|INTERRES
     7    4    5 1    
     8    4  130 1    
     9    5    6 1    
    10    5   65 1    
    11    5  131 1    
    12    6    7 1    
    13    6  132 1    
    14    6  133 1    
    15    7    8 1    
    16    8    9 1    
    17    8  134 1    
    18    8  135 1    
    19    9   10 ar   
    20    9   14 ar   
    21   10   11 ar   
    22   10  136 1    
    23   11   12 ar   
    24   11  126 1    
    25   12   13 ar   
    26   12  137 1    
    27   13   14 ar   
    28   13   15 1    
    29   14  138 1    
    30   15   16 1    
    31   15  139 1    
    32   15  140 1    
    33   16   17 1    
    34   17   18 1    
    35   17  141 1    
    36   17  142 1    
    37   18   19 1    
    38   18   67 1    
    39   18  143 1    
    40   19   20 am   BACKBONE|DICT|INTERRES
    41   19  144 1    
    42   20   21 2    
    43   20   22 1    
    44   22   23 1    
    45   22   24 1    
    46   22  145 1    
    47   23  146 1    
    48   23  147 1    
    49   23  148 1    
    50   24   25 am   BACKBONE|DICT|INTERRES
    51   24  149 1    
    52   25   26 2    
    53   25   27 1    
    54   27   28 1    
    55   27   29 1    
    56   27  150 1    
    57   28  151 1    
    58   28  152 1    
    59   28  153 1    
    60   29   30 am   BACKBONE|DICT|INTERRES
    61   29  154 1    
    62   30   31 2    
    63   30   32 1    
    64   32   33 1    
    65   32   34 1    
    66   32  155 1    
    67   33  156 1    
    68   33  157 1    
    69   33  158 1    
    70   34   35 am   BACKBONE|DICT|INTERRES
    71   34  159 1    
    72   35   36 2    
    73   35   37 1    
    74   37   38 1    
    75   37   39 1    
    76   37  160 1    
    77   38  161 1    
    78   38  162 1    
    79   38  163 1    
    80   39   40 am   BACKBONE|DICT|INTERRES
    81   39  164 1    
    82   40   41 2    
    83   40   42 1    
    84   42   43 1    
    85   42   44 1    
    86   42  165 1    
    87   43  166 1    
    88   43  167 1    
    89   43  168 1    
    90   44   45 am   BACKBONE|DICT|INTERRES
    91   44  169 1    
    92   45   46 2    
    93   45   47 1    
    94   47   48 1    
    95   47   49 1    
    96   47  170 1    
    97   48  171 1    
    98   48  172 1    
    99   48  173 1    
   100   49   50 am   BACKBONE|DICT|INTERRES
   101   49  174 1    
   102   50   51 2    
   103   50   52 1    
   104   52   53 1    
   105   52   54 1    
   106   52  175 1    
   107   53  176 1    
   108   53  177 1    
   109   53  178 1    
   110   54   55 am   BACKBONE|DICT|INTERRES
   111   54  179 1    
   112   55   56 2    
   113   55   57 1    
   114   57   58 1    
   115   57   59 1    
   116   57  180 1    
   117   58  181 1    
   118   58  182 1    
   119   58  183 1    
   120   59   60 am   BACKBONE|DICT|INTERRES
   121   59  184 1    
   122   60   61 2    
   123   60   62 1    
   124   62   63 1    
   125   62   64 1    
   126   62  185 1    
   127   63  186 1    
   128   63  187 1    
   129   63  188 1    
   130   64   65 am   BACKBONE|DICT|INTERRES
   131   64  189 1    
   132   65   66 2    
   133   67   68 2    
   134   67   69 am   BACKBONE|DICT|INTERRES
   135   69   70 1    
   136   69  190 1    
   137   70   71 1    
   138   70   72 1    
   139   70  191 1    
   140   71  192 1    
   141   71  193 1    
   142   71  194 1    
   143   72   73 2    
   144   72   74 am   BACKBONE|DICT|INTERRES
   145   74   75 1    
   146   74  195 1    
   147   75   76 1    
   148   75   77 1    
   149   75  196 1    
   150   76  197 1    
   151   76  198 1    
   152   76  199 1    
   153   77   78 2    
   154   77   79 am   BACKBONE|DICT|INTERRES
   155   79   80 1    
   156   79  200 1    
   157   80   81 1    
   158   80   82 1    
   159   80  201 1    
   160   81  202 1    
   161   81  203 1    
   162   81  204 1    
   163   82   83 2    
   164   82   84 am   BACKBONE|DICT|INTERRES
   165   84   85 1    
   166   84  205 1    
   167   85   86 1    
   168   85   87 1    
   169   85  206 1    
   170   86  207 1    
   171   86  208 1    
   172   86  209 1    
   173   87   88 2    
   174   87   89 am   BACKBONE|DICT|INTERRES
   175   89   90 1    
   176   89  210 1    
   177   90   91 1    
   178   90   92 1    
   179   90  211 1    
   180   91  212 1    
   181   91  213 1    
   182   91  214 1    
   183   92   93 2    
   184   92   94 am   BACKBONE|DICT|INTERRES
   185   94   95 1    
   186   94  215 1    
   187   95   96 1    
   188   95   97 1    
   189   95  216 1    
   190   96  217 1    
   191   96  218 1    
   192   96  219 1    
   193   97   98 2    
   194   97   99 am   BACKBONE|DICT|INTERRES
   195   99  100 1    
   196   99  220 1    
   197  100  101 1    
   198  100  102 1    
   199  100  221 1    
   200  101  222 1    
   201  101  223 1    
   202  101  224 1    
   203  102  103 2    
   204  102  104 am   BACKBONE|DICT|INTERRES
   205  104  105 1    
   206  104  225 1    
   207  105  106 1    
   208  105  107 1    
   209  105  226 1    
   210  106  227 1    
   211  106  228 1    
   212  106  229 1    
   213  107  108 2    
   214  107  109 am   BACKBONE|DICT|INTERRES
   215  109  110 1    
   216  109  230 1    
   217  110  111 1    
   218  110  112 1    
   219  110  231 1    
   220  111  232 1    
   221  111  233 1    
   222  111  234 1    
   223  112  113 2    
   224  112  114 am   BACKBONE|DICT|INTERRES
   225  114  115 1    
   226  114  235 1    
   227  115  116 1    
   228  115  117 1    
   229  115  236 1    
   230  116  237 1    
   231  116  238 1    
   232  116  239 1    
   233  117  118 2    
   234  117  119 am   BACKBONE|DICT|INTERRES
   235  119  120 1    
   236  119  240 1    
   237  120  121 1    
   238  120  124 1    
   239  120  241 1    
   240  121  122 am   BACKBONE|DICT|INTERRES
   241  121  123 2    
   242  122  242 1    
   243  122  243 1    
   244  124  125 1    
   245  124  244 1    
   246  124  245 1    
   247  125  126 1    
   248  126  246 1    
   249  126  247 1    
@<TRIPOS>SUBSTRUCTURE
     1 UNK         1 GROUP             0       ****    0 ROOT    
