@<TRIPOS>MOLECULE
3R540
247   249    1
SMALL
USER_CHARGES


@<TRIPOS>ATOM
      1 CA          3.4935  -16.8624  -48.9739 C.3       0 UNK        -0.1800 
      2 C           2.9392  -16.0183  -47.8358 C.2       0 UNK         0.5000 
      3 O           3.1751  -16.3280  -46.6695 O.2       0 UNK        -0.5000 
      4 N           2.2031  -14.9518  -48.1666 N.am      1 UNK        -0.5000 
      5 CA          1.5607  -14.0442  -47.2119 C.3       1 UNK         0.1400 
      6 C6          0.3173  -13.3417  -47.8135 C.3       23 UNK        -0.0398 
      7 S7         -0.9797  -14.5354  -48.2779 S.3       23 UNK        -0.2404 
      8 C8         -0.7242  -14.6238  -50.0742 C.3       23 UNK        -0.0205 
      9 C9         -1.3377  -15.8873  -50.6477 C.ar      23 UNK        -0.0193 
     10 C10        -2.5683  -15.8401  -51.3064 C.ar      23 UNK        -0.1150 
     11 C11        -3.1138  -16.9958  -51.8706 C.ar      23 UNK        -0.0193 
     12 C12        -2.4256  -18.2060  -51.7426 C.ar      23 UNK        -0.1150 
     13 C13        -1.2021  -18.2788  -51.0662 C.ar      23 UNK        -0.0193 
     14 C14        -0.6596  -17.1041  -50.5310 C.ar      23 UNK        -0.1150 
     15 C15        -0.4958  -19.6348  -50.9807 C.3       23 UNK        -0.0205 
     16 S16         0.8903  -19.7739  -49.7971 S.3       23 UNK        -0.2404 
     17 C17         0.0490  -19.7241  -48.1780 C.3       23 UNK        -0.0398 
     18 CA         -0.2030  -21.1382  -47.5827 C.3       11 UNK         0.1400 
     19 N           0.0099  -21.1826  -46.1301 N.am      11 UNK        -0.5000 
     20 C          -0.0437  -22.2957  -45.3820 C.2       10 UNK         0.5000 
     21 O          -0.2200  -23.4224  -45.8432 O.2       10 UNK        -0.5000 
     22 CA          0.0574  -22.1266  -43.8562 C.3       10 UNK         0.1400 
     23 CB          1.5243  -22.0421  -43.4107 C.3       10 UNK        -0.1800 
     24 N          -0.6899  -20.9677  -43.3649 N.am      10 UNK        -0.5000 
     25 C          -2.0213  -20.8343  -43.4572 C.2       9 UNK         0.5000 
     26 O          -2.7600  -21.7018  -43.9185 O.2       9 UNK        -0.5000 
     27 CA         -2.6311  -19.4929  -43.0140 C.3       9 UNK         0.1400 
     28 CB         -2.7970  -19.4433  -41.4887 C.3       9 UNK        -0.1800 
     29 N          -1.8501  -18.3423  -43.4653 N.am      9 UNK        -0.5000 
     30 C          -1.6218  -18.0281  -44.7494 C.2       8 UNK         0.5000 
     31 O          -2.0826  -18.6548  -45.7052 O.2       8 UNK        -0.5000 
     32 CA         -0.6637  -16.8492  -44.9975 C.3       8 UNK         0.1400 
     33 CB         -1.3837  -15.5070  -44.7911 C.3       8 UNK        -0.1800 
     34 N           0.5121  -16.9162  -44.1276 N.am      8 UNK        -0.5000 
     35 C           1.4353  -17.8886  -44.1760 C.2       7 UNK         0.5000 
     36 O           1.4163  -18.8100  -44.9923 O.2       7 UNK        -0.5000 
     37 CA          2.5195  -17.8614  -43.0834 C.3       7 UNK         0.1400 
     38 CB          3.6283  -16.8590  -43.4287 C.3       7 UNK        -0.1800 
     39 N           1.9603  -17.5343  -41.7712 N.am      7 UNK        -0.5000 
     40 C           1.1900  -18.3707  -41.0589 C.2       6 UNK         0.5000 
     41 O           0.9001  -19.5062  -41.4305 O.2       6 UNK        -0.5000 
     42 CA          0.6141  -17.8517  -39.7267 C.3       6 UNK         0.1400 
     43 CB          1.5652  -18.1834  -38.5674 C.3       6 UNK        -0.1800 
     44 N           0.3472  -16.4147  -39.7288 N.am      6 UNK        -0.5000 
     45 C          -0.4872  -15.7818  -40.5652 C.2       5 UNK         0.5000 
     46 O          -1.1966  -16.3618  -41.3876 O.2       5 UNK        -0.5000 
     47 CA         -0.4872  -14.2409  -40.5102 C.3       5 UNK         0.1400 
     48 CB         -1.6820  -13.7341  -39.6895 C.3       5 UNK        -0.1800 
     49 N           0.7496  -13.6603  -39.9702 N.am      5 UNK        -0.5000 
     50 C           1.9669  -13.8053  -40.5113 C.2       4 UNK         0.5000 
     51 O           2.1931  -14.4832  -41.5165 O.2       4 UNK        -0.5000 
     52 CA          3.1336  -13.1091  -39.7924 C.3       4 UNK         0.1400 
     53 CB          4.1979  -14.1320  -39.3625 C.3       4 UNK        -0.1800 
     54 N           3.7396  -12.1347  -40.6918 N.am      4 UNK        -0.5000 
     55 C           3.2556  -10.9061  -40.9184 C.2       3 UNK         0.5000 
     56 O           2.3407  -10.4002  -40.2669 O.2       3 UNK        -0.5000 
     57 CA          3.8814  -10.1204  -42.0900 C.3       3 UNK         0.1400 
     58 CB          5.0287   -9.2291  -41.5905 C.3       3 UNK        -0.1800 
     59 N           4.3753  -10.9807  -43.1717 N.am      3 UNK        -0.5000 
     60 C           3.6042  -11.7869  -43.9151 C.2       2 UNK         0.5000 
     61 O           2.3779  -11.8511  -43.7921 O.2       2 UNK        -0.5000 
     62 CA          4.3420  -12.6823  -44.9351 C.3       2 UNK         0.1400 
     63 CB          5.3352  -13.6206  -44.2258 C.3       2 UNK        -0.1800 
     64 N           3.4158  -13.4975  -45.7210 N.am      2 UNK        -0.5000 
     65 C           2.5884  -13.0346  -46.6647 C.2       1 UNK         0.5000 
     66 O           2.6283  -11.8843  -47.1072 O.2       1 UNK        -0.5000 
     67 C          -1.6022  -21.6677  -47.9631 C.2       11 UNK         0.5000 
     68 O          -1.7231  -22.5128  -48.8517 O.2       11 UNK        -0.5000 
     69 N          -2.6300  -21.1906  -47.2481 N.am      12 UNK        -0.5000 
     70 CA         -4.0157  -21.6266  -47.3994 C.3       12 UNK         0.1400 
     71 CB         -4.9355  -20.7095  -46.5798 C.3       12 UNK        -0.1800 
     72 C          -4.2272  -23.1061  -47.0257 C.2       12 UNK         0.5000 
     73 O          -4.8653  -23.8336  -47.7849 O.2       12 UNK        -0.5000 
     74 N          -3.6941  -23.5225  -45.8713 N.am      13 UNK        -0.5000 
     75 CA         -3.9015  -24.8515  -45.3028 C.3       13 UNK         0.1400 
     76 CB         -3.5944  -24.8176  -43.7966 C.3       13 UNK        -0.1800 
     77 C          -3.0892  -25.9576  -45.9967 C.2       13 UNK         0.5000 
     78 O          -3.6730  -26.9462  -46.4422 O.2       13 UNK        -0.5000 
     79 N          -1.7590  -25.8046  -46.0355 N.am      14 UNK        -0.5000 
     80 CA         -0.8335  -26.8784  -46.4028 C.3       14 UNK         0.1400 
     81 CB          0.5406  -26.6187  -45.7652 C.3       14 UNK        -0.1800 
     82 C          -0.6981  -27.0585  -47.9207 C.2       14 UNK         0.5000 
     83 O          -0.6192  -28.1946  -48.3895 O.2       14 UNK        -0.5000 
     84 N          -0.6786  -25.9424  -48.6600 N.am      15 UNK        -0.5000 
     85 CA         -0.5336  -25.9290  -50.1177 C.3       15 UNK         0.1400 
     86 CB          0.3774  -24.7556  -50.5192 C.3       15 UNK        -0.1800 
     87 C          -1.8890  -25.8576  -50.8460 C.2       15 UNK         0.5000 
     88 O          -1.9002  -25.7690  -52.0743 O.2       15 UNK        -0.5000 
     89 N          -3.0025  -25.8507  -50.0949 N.am      16 UNK        -0.5000 
     90 CA         -4.3826  -25.6823  -50.5710 C.3       16 UNK         0.1400 
     91 CB         -4.8276  -26.9036  -51.4030 C.3       16 UNK        -0.1800 
     92 C          -4.5713  -24.3449  -51.3184 C.2       16 UNK         0.5000 
     93 O          -5.1801  -24.3093  -52.3900 O.2       16 UNK        -0.5000 
     94 N          -3.9695  -23.2817  -50.7636 N.am      17 UNK        -0.5000 
     95 CA         -3.8393  -21.9397  -51.3357 C.3       17 UNK         0.1400 
     96 CB         -5.2128  -21.2499  -51.4587 C.3       17 UNK        -0.1800 
     97 C          -3.0202  -21.9373  -52.6431 C.2       17 UNK         0.5000 
     98 O          -3.3144  -21.1605  -53.5450 O.2       17 UNK        -0.5000 
     99 N          -2.0105  -22.8182  -52.7209 N.am      18 UNK        -0.5000 
    100 CA        -1.1908  -23.1187  -53.9017 C.3       18 UNK         0.1400 
    101 CB        -0.2755  -21.9301  -54.2617 C.3       18 UNK        -0.1800 
    102 C         -2.0503  -23.6214  -55.0814 C.2       18 UNK         0.5000 
    103 O         -1.8906  -23.1564  -56.2109 O.2       18 UNK        -0.5000 
    104 N         -2.9626  -24.5549  -54.7681 N.am      19 UNK        -0.5000 
    105 CA        -4.0292  -25.0839  -55.6235 C.3       19 UNK         0.1400 
    106 CB        -3.4499  -25.8810  -56.8109 C.3       19 UNK        -0.1800 
    107 C         -5.0093  -23.9715  -56.0512 C.2       19 UNK         0.5000 
    108 O         -5.1212  -23.6534  -57.2376 O.2       19 UNK        -0.5000 
    109 N         -5.6802  -23.3842  -55.0509 N.am      20 UNK        -0.5000 
    110 CA        -6.6251  -22.2621  -55.1060 C.3       20 UNK         0.1400 
    111 CB        -7.8227  -22.5497  -56.0332 C.3       20 UNK        -0.1800 
    112 C         -5.9573  -20.9123  -55.4292 C.2       20 UNK         0.5000 
    113 O         -6.0643  -19.9902  -54.6201 O.2       20 UNK        -0.5000 
    114 N         -5.2887  -20.8382  -56.5900 N.am      21 UNK        -0.5000 
    115 CA        -4.4691  -19.7566  -57.1578 C.3       21 UNK         0.1400 
    116 CB        -3.1613  -19.5878  -56.3639 C.3       21 UNK        -0.1800 
    117 C         -5.1641  -18.3913  -57.3323 C.2       21 UNK         0.5000 
    118 O         -5.1978  -17.8612  -58.4436 O.2       21 UNK        -0.5000 
    119 N         -5.6677  -17.8349  -56.2296 N.am      22 UNK        -0.5000 
    120 CA        -6.2506  -16.4918  -56.1133 C.3       22 UNK         0.1400 
    121 C         -7.7242  -16.3833  -56.6047 C.2       22 UNK         0.5000 
    122 N         -8.3928  -17.4734  -56.9610 N.am      22 UNK        -0.7600 
    123 O         -8.2699  -15.2853  -56.6738 O.2       22 UNK        -0.5000 
    124 C124       -6.1015  -15.9392  -54.6708 C.3       23 UNK        -0.0398 
    125 S125       -4.3655  -15.8919  -54.0948 S.3       23 UNK        -0.2404 
    126 C126       -4.4494  -16.9370  -52.6034 C.3       23 UNK        -0.0205 
    127 H127        3.0934  -16.5540  -49.9401 H         1 UNK         0.0600 
    128 H128        3.2358  -17.9103  -48.8204 H         1 UNK         0.0600 
    129 H129        4.5795  -16.7789  -49.0085 H         1 UNK         0.0600 
    130 H130        2.0835  -14.7176  -49.1403 H         1 UNK         0.3000 
    131 H131        1.2128  -14.6335  -46.3608 H         1 UNK         0.0600 
    132 H132       -0.1184  -12.6579  -47.0828 H         1 UNK         0.0800 
    133 H133        0.5870  -12.7302  -48.6764 H         1 UNK         0.0800 
    134 H134       -1.1523  -13.7365  -50.5433 H         1 UNK         0.0800 
    135 H135        0.3407  -14.6106  -50.3069 H         1 UNK         0.0800 
    136 H136       -3.0958  -14.9008  -51.3974 H         1 UNK         0.1150 
    137 H137       -2.8465  -19.0962  -52.1810 H         1 UNK         0.1150 
    138 H138        0.2924  -17.1211  -50.0212 H         1 UNK         0.1150 
    139 H139       -1.2180  -20.4123  -50.7424 H         1 UNK         0.0800 
    140 H140       -0.1113  -19.8683  -51.9733 H         1 UNK         0.0800 
    141 H141       -0.8631  -19.1269  -48.2407 H         1 UNK         0.0800 
    142 H142        0.7115  -19.1568  -47.5237 H         1 UNK         0.0800 
    143 H143        0.5266  -21.8310  -48.0076 H         1 UNK         0.0600 
    144 H144        0.2080  -20.2999  -45.6699 H         1 UNK         0.3000 
    145 H145       -0.3790  -23.0171  -43.3992 H         1 UNK         0.0600 
    146 H146        1.6049  -22.0256  -42.3238 H         1 UNK         0.0600 
    147 H147        2.0896  -22.9052  -43.7644 H         1 UNK         0.0600 
    148 H148        2.0141  -21.1484  -43.7965 H         1 UNK         0.0600 
    149 H149       -0.1489  -20.2389  -42.9099 H         1 UNK         0.3000 
    150 H150       -3.6221  -19.4136  -43.4655 H         1 UNK         0.0600 
    151 H151       -3.2530  -18.5056  -41.1703 H         1 UNK         0.0600 
    152 H152       -3.4392  -20.2535  -41.1413 H         1 UNK         0.0600 
    153 H153       -1.8406  -19.5422  -40.9768 H         1 UNK         0.0600 
    154 H154       -1.4647  -17.7409  -42.7427 H         1 UNK         0.3000 
    155 H155       -0.3215  -16.9014  -46.0336 H         1 UNK         0.0600 
    156 H156       -1.7810  -15.4065  -43.7813 H         1 UNK         0.0600 
    157 H157       -2.2229  -15.4100  -45.4809 H         1 UNK         0.0600 
    158 H158       -0.7178  -14.6637  -44.9705 H         1 UNK         0.0600 
    159 H159        0.5796  -16.2248  -43.3951 H         1 UNK         0.3000 
    160 H160        2.9688  -18.8551  -43.0260 H         1 UNK         0.0600 
    161 H161        3.2226  -15.8634  -43.6080 H         1 UNK         0.0600 
    162 H162        4.1598  -17.1650  -44.3300 H         1 UNK         0.0600 
    163 H163        4.3638  -16.7849  -42.6275 H         1 UNK         0.0600 
    164 H164        2.1170  -16.5912  -41.4341 H         1 UNK         0.3000 
    165 H165       -0.3327  -18.3647  -39.5502 H         1 UNK         0.0600 
    166 H166        1.1342  -17.8964  -37.6081 H         1 UNK         0.0600 
    167 H167        1.7680  -19.2544  -38.5235 H         1 UNK         0.0600 
    168 H168        2.5228  -17.6718  -38.6732 H         1 UNK         0.0600 
    169 H169        0.8845  -15.8542  -39.0846 H         1 UNK         0.3000 
    170 H170       -0.5995  -13.8832  -41.5359 H         1 UNK         0.0600 
    171 H171       -2.6209  -14.1270  -40.0824 H         1 UNK         0.0600 
    172 H172       -1.6104  -14.0383  -38.6445 H         1 UNK         0.0600 
    173 H173       -1.7493  -12.6464  -39.7201 H         1 UNK         0.0600 
    174 H174        0.6485  -13.0822  -39.1481 H         1 UNK         0.3000 
    175 H175        2.7651  -12.6029  -38.8976 H         1 UNK         0.0600 
    176 H176        4.6197  -14.6635  -40.2169 H         1 UNK         0.0600 
    177 H177        5.0180  -13.6467  -38.8331 H         1 UNK         0.0600 
    178 H178        3.7728  -14.8778  -38.6896 H         1 UNK         0.0600 
    179 H179        4.4631  -12.4805  -41.3038 H         1 UNK         0.3000 
    180 H180        3.1033   -9.4758  -42.5045 H         1 UNK         0.0600 
    181 H181        5.8512   -9.8202  -41.1858 H         1 UNK         0.0600 
    182 H182        4.6867   -8.5588  -40.8008 H         1 UNK         0.0600 
    183 H183        5.4242   -8.6069  -42.3936 H         1 UNK         0.0600 
    184 H184        5.3725  -10.9711  -43.3315 H         1 UNK         0.3000 
    185 H185        4.8959  -12.0360  -45.6188 H         1 UNK         0.0600 
    186 H186        6.1618  -13.0619  -43.7860 H         1 UNK         0.0600 
    187 H187        4.8572  -14.1795  -43.4210 H         1 UNK         0.0600 
    188 H188        5.7705  -14.3387  -44.9212 H         1 UNK         0.0600 
    189 H189        3.3486  -14.4771  -45.4752 H         1 UNK         0.3000 
    190 H190       -2.4472  -20.4815  -46.5446 H         1 UNK         0.3000 
    191 H191       -4.2885  -21.5091  -48.4483 H         1 UNK         0.0600 
    192 H192       -4.8393  -19.6710  -46.8977 H         1 UNK         0.0600 
    193 H193       -5.9811  -20.9933  -46.7050 H         1 UNK         0.0600 
    194 H194       -4.7088  -20.7533  -45.5147 H         1 UNK         0.0600 
    195 H195       -3.2123  -22.8474  -45.2809 H         1 UNK         0.3000 
    196 H196       -4.9584  -25.1045  -45.4132 H         1 UNK         0.0600 
    197 H197       -3.7480  -25.7972  -43.3424 H         1 UNK         0.0600 
    198 H198       -4.2466  -24.1138  -43.2792 H         1 UNK         0.0600 
    199 H199       -2.5635  -24.5210  -43.5999 H         1 UNK         0.0600 
    200 H200       -1.3393  -24.9254  -45.7430 H         1 UNK         0.3000 
    201 H201       -1.2124  -27.8166  -45.9907 H         1 UNK         0.0600 
    202 H202        0.4582  -26.4893  -44.6859 H         1 UNK         0.0600 
    203 H203        1.0173  -25.7279  -46.1750 H         1 UNK         0.0600 
    204 H204        1.2147  -27.4577  -45.9419 H         1 UNK         0.0600 
    205 H205       -0.7597  -25.0461  -48.1977 H         1 UNK         0.3000 
    206 H206       -0.0454  -26.8471  -50.4508 H         1 UNK         0.0600 
    207 H207        1.3281  -24.7961  -49.9874 H         1 UNK         0.0600 
    208 H208        0.6062  -24.7855  -51.5848 H         1 UNK         0.0600 
    209 H209       -0.0790  -23.7893  -50.3115 H         1 UNK         0.0600 
    210 H210       -2.8904  -25.9223  -49.0934 H         1 UNK         0.3000 
    211 H211       -5.0194  -25.6400  -49.6872 H         1 UNK         0.0600 
    212 H212       -4.2743  -26.9849  -52.3390 H         1 UNK         0.0600 
    213 H213       -5.8863  -26.8370  -51.6559 H         1 UNK         0.0600 
    214 H214       -4.6849  -27.8306  -50.8478 H         1 UNK         0.0600 
    215 H215       -3.4660  -23.4253  -49.8960 H         1 UNK         0.3000 
    216 H216       -3.2632  -21.3546  -50.6222 H         1 UNK         0.0600 
    217 H217       -5.1060  -20.2161  -51.7882 H         1 UNK         0.0600 
    218 H218       -5.7328  -21.2323  -50.5013 H         1 UNK         0.0600 
    219 H219       -5.8563  -21.7533  -52.1769 H         1 UNK         0.0600 
    220 H220       -1.8816  -23.4470  -51.9414 H         1 UNK         0.3000 
    221 H221       -0.5431  -23.9522  -53.6283 H         1 UNK         0.0600 
    222 H222       -0.8445  -21.0395  -54.5285 H         1 UNK         0.0600 
    223 H223        0.3790  -21.6767  -53.4285 H         1 UNK         0.0600 
    224 H224        0.3659  -22.1737  -55.1093 H         1 UNK         0.0600 
    225 H225       -2.9798  -24.8736  -53.8062 H         1 UNK         0.3000 
    226 H226       -4.5981  -25.7829  -55.0082 H         1 UNK         0.0600 
    227 H227       -2.7869  -26.6742  -56.4658 H         1 UNK         0.0600 
    228 H228       -4.2480  -26.3513  -57.3862 H         1 UNK         0.0600 
    229 H229       -2.8864  -25.2478  -57.4965 H         1 UNK         0.0600 
    230 H230       -5.4766  -23.7093  -54.1066 H         1 UNK         0.3000 
    231 H231       -7.0294  -22.1780  -54.0971 H         1 UNK         0.0600 
    232 H232       -7.5299  -22.6262  -57.0803 H         1 UNK         0.0600 
    233 H233       -8.5635  -21.7523  -55.9635 H         1 UNK         0.0600 
    234 H234       -8.3197  -23.4793  -55.7558 H         1 UNK         0.0600 
    235 H235       -5.2725  -21.7004  -57.1274 H         1 UNK         0.3000 
    236 H236       -4.1968  -20.0980  -58.1576 H         1 UNK         0.0600 
    237 H237       -2.6192  -20.5301  -56.2932 H         1 UNK         0.0600 
    238 H238       -2.5005  -18.8667  -56.8461 H         1 UNK         0.0600 
    239 H239       -3.3456  -19.2317  -55.3498 H         1 UNK         0.0600 
    240 H240       -5.6679  -18.4050  -55.3865 H         1 UNK         0.3000 
    241 H241       -5.6782  -15.8337  -56.7697 H         1 UNK         0.0600 
    242 H242       -9.3445  -17.3924  -57.2834 H         1 UNK         0.3800 
    243 H243       -7.9513  -18.3774  -56.9127 H         1 UNK         0.3800 
    244 H244       -6.4899  -14.9210  -54.6118 H         1 UNK         0.0800 
    245 H245       -6.7025  -16.5320  -53.9791 H         1 UNK         0.0800 
    246 H246       -4.7758  -17.9378  -52.8923 H         1 UNK         0.0800 
    247 H247       -5.2078  -16.5431  -51.9254 H         1 UNK         0.0800 
@<TRIPOS>BOND
     1    1    2 1    
     2    1  127 1    
     3    1  128 1    
     4    1  129 1    
     5    2    3 2    
     6    2    4 am   BACKBONE|DICT|INTERRES
     7    4    5 1    
     8    4  130 1    
     9    5    6 1    
    10    5   65 1    
    11    5  131 1    
    12    6    7 1    
    13    6  132 1    
    14    6  133 1    
    15    7    8 1    
    16    8    9 1    
    17    8  134 1    
    18    8  135 1    
    19    9   10 ar   
    20    9   14 ar   
    21   10   11 ar   
    22   10  136 1    
    23   11   12 ar   
    24   11  126 1    
    25   12   13 ar   
    26   12  137 1    
    27   13   14 ar   
    28   13   15 1    
    29   14  138 1    
    30   15   16 1    
    31   15  139 1    
    32   15  140 1    
    33   16   17 1    
    34   17   18 1    
    35   17  141 1    
    36   17  142 1    
    37   18   19 1    
    38   18   67 1    
    39   18  143 1    
    40   19   20 am   BACKBONE|DICT|INTERRES
    41   19  144 1    
    42   20   21 2    
    43   20   22 1    
    44   22   23 1    
    45   22   24 1    
    46   22  145 1    
    47   23  146 1    
    48   23  147 1    
    49   23  148 1    
    50   24   25 am   BACKBONE|DICT|INTERRES
    51   24  149 1    
    52   25   26 2    
    53   25   27 1    
    54   27   28 1    
    55   27   29 1    
    56   27  150 1    
    57   28  151 1    
    58   28  152 1    
    59   28  153 1    
    60   29   30 am   BACKBONE|DICT|INTERRES
    61   29  154 1    
    62   30   31 2    
    63   30   32 1    
    64   32   33 1    
    65   32   34 1    
    66   32  155 1    
    67   33  156 1    
    68   33  157 1    
    69   33  158 1    
    70   34   35 am   BACKBONE|DICT|INTERRES
    71   34  159 1    
    72   35   36 2    
    73   35   37 1    
    74   37   38 1    
    75   37   39 1    
    76   37  160 1    
    77   38  161 1    
    78   38  162 1    
    79   38  163 1    
    80   39   40 am   BACKBONE|DICT|INTERRES
    81   39  164 1    
    82   40   41 2    
    83   40   42 1    
    84   42   43 1    
    85   42   44 1    
    86   42  165 1    
    87   43  166 1    
    88   43  167 1    
    89   43  168 1    
    90   44   45 am   BACKBONE|DICT|INTERRES
    91   44  169 1    
    92   45   46 2    
    93   45   47 1    
    94   47   48 1    
    95   47   49 1    
    96   47  170 1    
    97   48  171 1    
    98   48  172 1    
    99   48  173 1    
   100   49   50 am   BACKBONE|DICT|INTERRES
   101   49  174 1    
   102   50   51 2    
   103   50   52 1    
   104   52   53 1    
   105   52   54 1    
   106   52  175 1    
   107   53  176 1    
   108   53  177 1    
   109   53  178 1    
   110   54   55 am   BACKBONE|DICT|INTERRES
   111   54  179 1    
   112   55   56 2    
   113   55   57 1    
   114   57   58 1    
   115   57   59 1    
   116   57  180 1    
   117   58  181 1    
   118   58  182 1    
   119   58  183 1    
   120   59   60 am   BACKBONE|DICT|INTERRES
   121   59  184 1    
   122   60   61 2    
   123   60   62 1    
   124   62   63 1    
   125   62   64 1    
   126   62  185 1    
   127   63  186 1    
   128   63  187 1    
   129   63  188 1    
   130   64   65 am   BACKBONE|DICT|INTERRES
   131   64  189 1    
   132   65   66 2    
   133   67   68 2    
   134   67   69 am   BACKBONE|DICT|INTERRES
   135   69   70 1    
   136   69  190 1    
   137   70   71 1    
   138   70   72 1    
   139   70  191 1    
   140   71  192 1    
   141   71  193 1    
   142   71  194 1    
   143   72   73 2    
   144   72   74 am   BACKBONE|DICT|INTERRES
   145   74   75 1    
   146   74  195 1    
   147   75   76 1    
   148   75   77 1    
   149   75  196 1    
   150   76  197 1    
   151   76  198 1    
   152   76  199 1    
   153   77   78 2    
   154   77   79 am   BACKBONE|DICT|INTERRES
   155   79   80 1    
   156   79  200 1    
   157   80   81 1    
   158   80   82 1    
   159   80  201 1    
   160   81  202 1    
   161   81  203 1    
   162   81  204 1    
   163   82   83 2    
   164   82   84 am   BACKBONE|DICT|INTERRES
   165   84   85 1    
   166   84  205 1    
   167   85   86 1    
   168   85   87 1    
   169   85  206 1    
   170   86  207 1    
   171   86  208 1    
   172   86  209 1    
   173   87   88 2    
   174   87   89 am   BACKBONE|DICT|INTERRES
   175   89   90 1    
   176   89  210 1    
   177   90   91 1    
   178   90   92 1    
   179   90  211 1    
   180   91  212 1    
   181   91  213 1    
   182   91  214 1    
   183   92   93 2    
   184   92   94 am   BACKBONE|DICT|INTERRES
   185   94   95 1    
   186   94  215 1    
   187   95   96 1    
   188   95   97 1    
   189   95  216 1    
   190   96  217 1    
   191   96  218 1    
   192   96  219 1    
   193   97   98 2    
   194   97   99 am   BACKBONE|DICT|INTERRES
   195   99  100 1    
   196   99  220 1    
   197  100  101 1    
   198  100  102 1    
   199  100  221 1    
   200  101  222 1    
   201  101  223 1    
   202  101  224 1    
   203  102  103 2    
   204  102  104 am   BACKBONE|DICT|INTERRES
   205  104  105 1    
   206  104  225 1    
   207  105  106 1    
   208  105  107 1    
   209  105  226 1    
   210  106  227 1    
   211  106  228 1    
   212  106  229 1    
   213  107  108 2    
   214  107  109 am   BACKBONE|DICT|INTERRES
   215  109  110 1    
   216  109  230 1    
   217  110  111 1    
   218  110  112 1    
   219  110  231 1    
   220  111  232 1    
   221  111  233 1    
   222  111  234 1    
   223  112  113 2    
   224  112  114 am   BACKBONE|DICT|INTERRES
   225  114  115 1    
   226  114  235 1    
   227  115  116 1    
   228  115  117 1    
   229  115  236 1    
   230  116  237 1    
   231  116  238 1    
   232  116  239 1    
   233  117  118 2    
   234  117  119 am   BACKBONE|DICT|INTERRES
   235  119  120 1    
   236  119  240 1    
   237  120  121 1    
   238  120  124 1    
   239  120  241 1    
   240  121  122 am   BACKBONE|DICT|INTERRES
   241  121  123 2    
   242  122  242 1    
   243  122  243 1    
   244  124  125 1    
   245  124  244 1    
   246  124  245 1    
   247  125  126 1    
   248  126  246 1    
   249  126  247 1    
@<TRIPOS>SUBSTRUCTURE
     1 UNK         1 GROUP             0       ****    0 ROOT    
