@<TRIPOS>MOLECULE
3R540
247   249    1
SMALL
USER_CHARGES


@<TRIPOS>ATOM
      1 CA          1.6035   -8.6938  -47.8159 C.3       0 UNK        -0.1800 
      2 C           2.0545  -10.0747  -48.2718 C.2       0 UNK         0.5000 
      3 O           3.2079  -10.2420  -48.6686 O.2       0 UNK        -0.5000 
      4 N           1.1481  -11.0582  -48.2275 N.am      1 UNK        -0.5000 
      5 CA          1.4243  -12.4628  -48.5377 C.3       1 UNK         0.1400 
      6 C6          0.1181  -13.2199  -48.8860 C.3       23 UNK        -0.0398 
      7 S7          0.4107  -14.7228  -49.8792 S.3       23 UNK        -0.2404 
      8 C8         -0.1043  -16.0086  -48.7040 C.3       23 UNK        -0.0205 
      9 C9          0.1036  -17.4009  -49.2749 C.ar      23 UNK        -0.0193 
     10 C10        -0.9079  -18.0255  -50.0100 C.ar      23 UNK        -0.1150 
     11 C11        -0.7193  -19.3094  -50.5443 C.ar      23 UNK        -0.0193 
     12 C12         0.4987  -19.9599  -50.3193 C.ar      23 UNK        -0.1150 
     13 C13         1.5133  -19.3488  -49.5768 C.ar      23 UNK        -0.0193 
     14 C14         1.3106  -18.0672  -49.0625 C.ar      23 UNK        -0.1150 
     15 C15         2.8350  -20.0619  -49.3292 C.3       23 UNK        -0.0205 
     16 S16         2.6548  -21.5683  -48.3213 S.3       23 UNK        -0.2404 
     17 C17         1.8295  -20.9528  -46.8098 C.3       23 UNK        -0.0398 
     18 CA          0.8411  -21.9890  -46.2276 C.3       11 UNK         0.1400 
     19 N           0.4759  -21.6879  -44.8440 N.am      11 UNK        -0.5000 
     20 C          -0.1292  -22.5549  -44.0211 C.2       10 UNK         0.5000 
     21 O          -0.4305  -23.7047  -44.3430 O.2       10 UNK        -0.5000 
     22 CA         -0.4904  -22.0417  -42.6162 C.3       10 UNK         0.1400 
     23 CB          0.7500  -22.0077  -41.7110 C.3       10 UNK        -0.1800 
     24 N          -1.1194  -20.7208  -42.6423 N.am      10 UNK        -0.5000 
     25 C          -2.2967  -20.4566  -43.2276 C.2       9 UNK         0.5000 
     26 O          -2.9896  -21.3063  -43.7864 O.2       9 UNK        -0.5000 
     27 CA         -2.7613  -18.9901  -43.2256 C.3       9 UNK         0.1400 
     28 CB         -3.3460  -18.6028  -41.8591 C.3       9 UNK        -0.1800 
     29 N          -1.6954  -18.0567  -43.5875 N.am      9 UNK        -0.5000 
     30 C          -1.0526  -18.0543  -44.7642 C.2       8 UNK         0.5000 
     31 O          -1.2956  -18.8309  -45.6850 O.2       8 UNK        -0.5000 
     32 CA          0.0951  -17.0476  -44.9200 C.3       8 UNK         0.1400 
     33 CB         -0.4534  -15.6240  -45.1007 C.3       8 UNK        -0.1800 
     34 N           1.0206  -17.0869  -43.7895 N.am      8 UNK        -0.5000 
     35 C           1.7285  -18.1619  -43.4135 C.2       7 UNK         0.5000 
     36 O           1.7268  -19.2335  -44.0180 O.2       7 UNK        -0.5000 
     37 CA          2.5322  -18.0327  -42.1095 C.3       7 UNK         0.1400 
     38 CB          3.8831  -17.3430  -42.3586 C.3       7 UNK        -0.1800 
     39 N           1.7840  -17.3089  -41.0812 N.am      7 UNK        -0.5000 
     40 C           0.6809  -17.7769  -40.4783 C.2       6 UNK         0.5000 
     41 O           0.1985  -18.8881  -40.6974 O.2       6 UNK        -0.5000 
     42 CA         -0.0237  -16.8218  -39.4979 C.3       6 UNK         0.1400 
     43 CB          0.6680  -16.8423  -38.1266 C.3       6 UNK        -0.1800 
     44 N          -0.0714  -15.4472  -39.9987 N.am      6 UNK        -0.5000 
     45 C          -0.7857  -15.0569  -41.0639 C.2       5 UNK         0.5000 
     46 O          -1.5204  -15.8086  -41.7039 O.2       5 UNK        -0.5000 
     47 CA         -0.6142  -13.5933  -41.5169 C.3       5 UNK         0.1400 
     48 CB         -1.6067  -12.6821  -40.7799 C.3       5 UNK        -0.1800 
     49 N           0.7472  -13.0781  -41.3342 N.am      5 UNK        -0.5000 
     50 C           1.8371  -13.5854  -41.9244 C.2       4 UNK         0.5000 
     51 O           1.8141  -14.5609  -42.6799 O.2       4 UNK        -0.5000 
     52 CA          3.1799  -12.9358  -41.5655 C.3       4 UNK         0.1400 
     53 CB          3.6045  -13.3366  -40.1384 C.3       4 UNK        -0.1800 
     54 N           4.1746  -13.3880  -42.5310 N.am      4 UNK        -0.5000 
     55 C           5.3985  -12.8824  -42.7172 C.2       3 UNK         0.5000 
     56 O           5.8414  -11.9153  -42.0964 O.2       3 UNK        -0.5000 
     57 CA          6.2881  -13.5820  -43.7640 C.3       3 UNK         0.1400 
     58 CB          7.2295  -14.5826  -43.0751 C.3       3 UNK        -0.1800 
     59 N           5.5187  -14.2910  -44.7895 N.am      3 UNK        -0.5000 
     60 C           4.9041  -13.6999  -45.8226 C.2       2 UNK         0.5000 
     61 O           4.9861  -12.4913  -46.0540 O.2       2 UNK        -0.5000 
     62 CA          4.1078  -14.6308  -46.7674 C.3       2 UNK         0.1400 
     63 CB          3.3333  -15.7245  -46.0007 C.3       2 UNK        -0.1800 
     64 N           3.2114  -13.9141  -47.6847 N.am      2 UNK        -0.5000 
     65 C           2.1791  -13.1204  -47.3619 C.2       1 UNK         0.5000 
     66 O           1.7998  -12.9055  -46.2081 O.2       1 UNK        -0.5000 
     67 C          -0.4030  -22.1999  -47.1161 C.2       11 UNK         0.5000 
     68 O          -0.4361  -23.1711  -47.8689 O.2       11 UNK        -0.5000 
     69 N          -1.4277  -21.3467  -46.9761 N.am      12 UNK        -0.5000 
     70 CA         -2.6978  -21.4703  -47.6952 C.3       12 UNK         0.1400 
     71 CB         -3.5415  -20.2047  -47.4878 C.3       12 UNK        -0.1800 
     72 C          -3.4966  -22.7321  -47.3176 C.2       12 UNK         0.5000 
     73 O          -4.1760  -23.2907  -48.1760 O.2       12 UNK        -0.5000 
     74 N          -3.3935  -23.1784  -46.0583 N.am      13 UNK        -0.5000 
     75 CA         -3.9725  -24.4398  -45.5954 C.3       13 UNK         0.1400 
     76 CB         -3.9769  -24.4724  -44.0594 C.3       13 UNK        -0.1800 
     77 C          -3.2417  -25.6711  -46.1661 C.2       13 UNK         0.5000 
     78 O          -3.8904  -26.6754  -46.4627 O.2       13 UNK        -0.5000 
     79 N          -1.9119  -25.5782  -46.2988 N.am      14 UNK        -0.5000 
     80 CA         -1.0555  -26.6427  -46.8178 C.3       14 UNK         0.1400 
     81 CB          0.3889  -26.4015  -46.3506 C.3       14 UNK        -0.1800 
     82 C          -1.1172  -26.7710  -48.3511 C.2       14 UNK         0.5000 
     83 O          -1.2220  -27.8871  -48.8624 O.2       14 UNK        -0.5000 
     84 N          -1.0157  -25.6380  -49.0566 N.am      15 UNK        -0.5000 
     85 CA         -0.9567  -25.5629  -50.5144 C.3       15 UNK         0.1400 
     86 CB         -0.4476  -24.1703  -50.9237 C.3       15 UNK        -0.1800 
     87 C          -2.3158  -25.8406  -51.1782 C.2       15 UNK         0.5000 
     88 O          -3.3521  -25.3936  -50.6846 O.2       15 UNK        -0.5000 
     89 N          -2.2759  -26.5086  -52.3386 N.am      16 UNK        -0.5000 
     90 CA         -3.4381  -26.7336  -53.2048 C.3       16 UNK         0.1400 
     91 CB         -3.1077  -27.8521  -54.2045 C.3       16 UNK        -0.1800 
     92 C          -3.8849  -25.4597  -53.9514 C.2       16 UNK         0.5000 
     93 O          -5.0322  -25.3841  -54.3917 O.2       16 UNK        -0.5000 
     94 N          -2.9810  -24.4732  -54.0603 N.am      17 UNK        -0.5000 
     95 CA         -3.1708  -23.1818  -54.7277 C.3       17 UNK         0.1400 
     96 CB         -1.8563  -22.3914  -54.6566 C.3       17 UNK        -0.1800 
     97 C          -4.3344  -22.3357  -54.1769 C.2       17 UNK         0.5000 
     98 O          -4.8610  -21.4924  -54.9032 O.2       17 UNK        -0.5000 
     99 N          -4.7568  -22.5967  -52.9322 N.am      18 UNK        -0.5000 
    100 CA        -5.9306  -21.9905  -52.3007 C.3       18 UNK         0.1400 
    101 CB        -5.9881  -22.4157  -50.8297 C.3       18 UNK        -0.1800 
    102 C         -7.2602  -22.2967  -53.0207 C.2       18 UNK         0.5000 
    103 O         -8.1997  -21.5112  -52.8946 O.2       18 UNK        -0.5000 
    104 N         -7.3075  -23.3741  -53.8212 N.am      19 UNK        -0.5000 
    105 CA        -8.4165  -23.6830  -54.7310 C.3       19 UNK         0.1400 
    106 CB        -8.2251  -25.0967  -55.2995 C.3       19 UNK        -0.1800 
    107 C         -8.5675  -22.6577  -55.8769 C.2       19 UNK         0.5000 
    108 O         -9.6651  -22.5093  -56.4145 O.2       19 UNK        -0.5000 
    109 N         -7.4767  -21.9517  -56.2039 N.am      20 UNK        -0.5000 
    110 CA        -7.4197  -20.8326  -57.1445 C.3       20 UNK         0.1400 
    111 CB        -6.2805  -21.0952  -58.1456 C.3       20 UNK        -0.1800 
    112 C         -7.2255  -19.4963  -56.3950 C.2       20 UNK         0.5000 
    113 O         -6.7190  -18.5353  -56.9781 O.2       20 UNK        -0.5000 
    114 N         -7.5931  -19.4655  -55.1026 N.am      21 UNK        -0.5000 
    115 CA        -7.4918  -18.3404  -54.1643 C.3       21 UNK         0.1400 
    116 CB        -8.4768  -17.2216  -54.5623 C.3       21 UNK        -0.1800 
    117 C         -6.0516  -17.8190  -53.9607 C.2       21 UNK         0.5000 
    118 O         -5.8694  -16.6508  -53.6139 O.2       21 UNK        -0.5000 
    119 N         -5.0584  -18.6889  -54.1921 N.am      22 UNK        -0.5000 
    120 CA        -3.6164  -18.3929  -54.1850 C.3       22 UNK         0.1400 
    121 C         -3.1548  -17.4482  -55.3381 C.2       22 UNK         0.5000 
    122 N         -3.9360  -17.2632  -56.3977 N.am      22 UNK        -0.7600 
    123 O         -2.0577  -16.8983  -55.2949 O.2       22 UNK        -0.5000 
    124 C124       -3.0779  -17.9700  -52.7881 C.3       23 UNK        -0.0398 
    125 S125       -3.4094  -19.2291  -51.5043 S.3       23 UNK        -0.2404 
    126 C126       -1.7779  -20.0391  -51.3764 C.3       23 UNK        -0.0205 
    127 H127        1.7193   -7.9742  -48.6265 H         1 UNK         0.0600 
    128 H128        2.2098   -8.3608  -46.9735 H         1 UNK         0.0600 
    129 H129        0.5585   -8.6902  -47.5049 H         1 UNK         0.0600 
    130 H130        0.2295  -10.8643  -47.8552 H         1 UNK         0.3000 
    131 H131        2.0693  -12.4787  -49.4195 H         1 UNK         0.0600 
    132 H132       -0.5265  -12.5799  -49.4904 H         1 UNK         0.0800 
    133 H133       -0.4591  -13.4526  -47.9888 H         1 UNK         0.0800 
    134 H134       -1.1531  -15.8662  -48.4393 H         1 UNK         0.0800 
    135 H135        0.4721  -15.8953  -47.7863 H         1 UNK         0.0800 
    136 H136       -1.8342  -17.4933  -50.1639 H         1 UNK         0.1150 
    137 H137        0.6591  -20.9521  -50.7183 H         1 UNK         0.1150 
    138 H138        2.0948  -17.5854  -48.4974 H         1 UNK         0.1150 
    139 H139        3.2774  -20.3315  -50.2891 H         1 UNK         0.0800 
    140 H140        3.5493  -19.3978  -48.8399 H         1 UNK         0.0800 
    141 H141        1.3243  -20.0027  -46.9850 H         1 UNK         0.0800 
    142 H142        2.6159  -20.7427  -46.0839 H         1 UNK         0.0800 
    143 H143        1.3671  -22.9461  -46.1962 H         1 UNK         0.0600 
    144 H144        0.7191  -20.7616  -44.5013 H         1 UNK         0.3000 
    145 H145       -1.2069  -22.7424  -42.1826 H         1 UNK         0.0600 
    146 H146        0.4844  -21.7322  -40.6903 H         1 UNK         0.0600 
    147 H147        1.4903  -21.2912  -42.0680 H         1 UNK         0.0600 
    148 H148        1.2309  -22.9858  -41.6696 H         1 UNK         0.0600 
    149 H149       -0.6239  -19.9706  -42.1705 H         1 UNK         0.3000 
    150 H150       -3.5518  -18.8934  -43.9727 H         1 UNK         0.0600 
    151 H151       -4.1490  -19.2820  -41.5702 H         1 UNK         0.0600 
    152 H152       -3.7633  -17.5960  -41.8812 H         1 UNK         0.0600 
    153 H153       -2.5899  -18.6328  -41.0739 H         1 UNK         0.0600 
    154 H154       -1.4514  -17.3561  -42.8933 H         1 UNK         0.3000 
    155 H155        0.6544  -17.3214  -45.8162 H         1 UNK         0.0600 
    156 H156       -1.1372  -15.5707  -45.9478 H         1 UNK         0.0600 
    157 H157        0.3479  -14.9096  -45.2797 H         1 UNK         0.0600 
    158 H158       -1.0051  -15.2882  -44.2249 H         1 UNK         0.0600 
    159 H159        1.1299  -16.2260  -43.2604 H         1 UNK         0.3000 
    160 H160        2.7302  -19.0402  -41.7379 H         1 UNK         0.0600 
    161 H161        3.7603  -16.3334  -42.7477 H         1 UNK         0.0600 
    162 H162        4.4751  -17.9020  -43.0844 H         1 UNK         0.0600 
    163 H163        4.4692  -17.2794  -41.4417 H         1 UNK         0.0600 
    164 H164        2.0787  -16.3645  -40.8860 H         1 UNK         0.3000 
    165 H165       -1.0494  -17.1739  -39.3685 H         1 UNK         0.0600 
    166 H166        0.1299  -16.2273  -37.4050 H         1 UNK         0.0600 
    167 H167        0.7055  -17.8556  -37.7244 H         1 UNK         0.0600 
    168 H168        1.6928  -16.4734  -38.1842 H         1 UNK         0.0600 
    169 H169        0.5019  -14.7648  -39.5256 H         1 UNK         0.3000 
    170 H170       -0.8423  -13.5496  -42.5834 H         1 UNK         0.0600 
    171 H171       -1.4096  -12.6545  -39.7075 H         1 UNK         0.0600 
    172 H172       -1.5596  -11.6604  -41.1572 H         1 UNK         0.0600 
    173 H173       -2.6315  -13.0302  -40.9166 H         1 UNK         0.0600 
    174 H174        0.8475  -12.2833  -40.7193 H         1 UNK         0.3000 
    175 H175        3.0754  -11.8516  -41.6380 H         1 UNK         0.0600 
    176 H176        3.7354  -14.4158  -40.0477 H         1 UNK         0.0600 
    177 H177        4.5438  -12.8634  -39.8530 H         1 UNK         0.0600 
    178 H178        2.8599  -13.0320  -39.4023 H         1 UNK         0.0600 
    179 H179        3.8494  -14.1423  -43.1216 H         1 UNK         0.3000 
    180 H180        6.8992  -12.8162  -44.2465 H         1 UNK         0.0600 
    181 H181        7.9102  -15.0424  -43.7919 H         1 UNK         0.0600 
    182 H182        6.6761  -15.3798  -42.5768 H         1 UNK         0.0600 
    183 H183        7.8413  -14.0870  -42.3201 H         1 UNK         0.0600 
    184 H184        5.4408  -15.2914  -44.6821 H         1 UNK         0.3000 
    185 H185        4.8448  -15.1270  -47.4002 H         1 UNK         0.0600 
    186 H186        2.7047  -15.2950  -45.2211 H         1 UNK         0.0600 
    187 H187        2.6921  -16.2959  -46.6689 H         1 UNK         0.0600 
    188 H188        4.0065  -16.4378  -45.5249 H         1 UNK         0.0600 
    189 H189        3.4512  -13.9980  -48.6624 H         1 UNK         0.3000 
    190 H190       -1.3340  -20.5407  -46.3609 H         1 UNK         0.3000 
    191 H191       -2.4656  -21.5455  -48.7582 H         1 UNK         0.0600 
    192 H192       -3.0177  -19.3209  -47.8533 H         1 UNK         0.0600 
    193 H193       -3.7756  -20.0473  -46.4343 H         1 UNK         0.0600 
    194 H194       -4.4845  -20.2700  -48.0320 H         1 UNK         0.0600 
    195 H195       -2.8833  -22.6270  -45.3767 H         1 UNK         0.3000 
    196 H196       -5.0098  -24.4841  -45.9338 H         1 UNK         0.0600 
    197 H197       -4.5647  -23.6505  -43.6503 H         1 UNK         0.0600 
    198 H198       -2.9690  -24.3980  -43.6506 H         1 UNK         0.0600 
    199 H199       -4.4142  -25.4005  -43.6894 H         1 UNK         0.0600 
    200 H200       -1.4513  -24.7273  -45.9988 H         1 UNK         0.3000 
    201 H201       -1.3879  -27.5915  -46.3911 H         1 UNK         0.0600 
    202 H202        0.4532  -26.3880  -45.2624 H         1 UNK         0.0600 
    203 H203        0.7796  -25.4521  -46.7185 H         1 UNK         0.0600 
    204 H204        1.0522  -27.1907  -46.7067 H         1 UNK         0.0600 
    205 H205       -0.9264  -24.7533  -48.5591 H         1 UNK         0.3000 
    206 H206       -0.2355  -26.3063  -50.8607 H         1 UNK         0.0600 
    207 H207       -1.1317  -23.3845  -50.6007 H         1 UNK         0.0600 
    208 H208        0.5282  -23.9613  -50.4842 H         1 UNK         0.0600 
    209 H209       -0.3397  -24.0898  -52.0058 H         1 UNK         0.0600 
    210 H210       -1.3891  -26.8517  -52.6798 H         1 UNK         0.3000 
    211 H211       -4.2757  -27.0634  -52.5865 H         1 UNK         0.0600 
    212 H212       -2.2705  -27.5827  -54.8497 H         1 UNK         0.0600 
    213 H213       -3.9624  -28.0655  -54.8480 H         1 UNK         0.0600 
    214 H214       -2.8517  -28.7784  -53.6897 H         1 UNK         0.0600 
    215 H215       -2.0669  -24.6385  -53.6681 H         1 UNK         0.3000 
    216 H216       -3.3941  -23.3844  -55.7769 H         1 UNK         0.0600 
    217 H217       -1.9533  -21.4189  -55.1408 H         1 UNK         0.0600 
    218 H218       -1.0496  -22.9228  -55.1618 H         1 UNK         0.0600 
    219 H219       -1.5487  -22.2196  -53.6251 H         1 UNK         0.0600 
    220 H220       -4.2808  -23.3135  -52.4029 H         1 UNK         0.3000 
    221 H221       -5.8000  -20.9074  -52.3310 H         1 UNK         0.0600 
    222 H222       -6.8682  -22.0061  -50.3325 H         1 UNK         0.0600 
    223 H223       -6.0193  -23.5007  -50.7214 H         1 UNK         0.0600 
    224 H224       -5.1144  -22.0478  -50.2924 H         1 UNK         0.0600 
    225 H225       -6.4940  -23.9774  -53.8853 H         1 UNK         0.3000 
    226 H226       -9.3420  -23.6696  -54.1517 H         1 UNK         0.0600 
    227 H227       -8.1484  -25.8367  -54.5026 H         1 UNK         0.0600 
    228 H228       -9.0688  -25.3822  -55.9290 H         1 UNK         0.0600 
    229 H229       -7.3233  -25.1654  -55.9090 H         1 UNK         0.0600 
    230 H230       -6.6189  -22.1148  -55.6875 H         1 UNK         0.3000 
    231 H231       -8.3542  -20.7534  -57.7028 H         1 UNK         0.0600 
    232 H232       -6.2426  -20.3204  -58.9122 H         1 UNK         0.0600 
    233 H233       -6.4180  -22.0481  -58.6568 H         1 UNK         0.0600 
    234 H234       -5.3085  -21.1175  -57.6511 H         1 UNK         0.0600 
    235 H235       -7.9754  -20.3135  -54.7025 H         1 UNK         0.3000 
    236 H236       -7.8076  -18.7262  -53.1942 H         1 UNK         0.0600 
    237 H237       -8.1860  -16.7409  -55.4968 H         1 UNK         0.0600 
    238 H238       -9.4871  -17.6116  -54.6855 H         1 UNK         0.0600 
    239 H239       -8.5223  -16.4467  -53.7962 H         1 UNK         0.0600 
    240 H240       -5.2911  -19.6303  -54.4907 H         1 UNK         0.3000 
    241 H241       -3.1362  -19.3411  -54.4252 H         1 UNK         0.0600 
    242 H242       -3.6233  -16.6603  -57.1419 H         1 UNK         0.3800 
    243 H243       -4.8430  -17.7107  -56.4651 H         1 UNK         0.3800 
    244 H244       -3.5237  -17.0267  -52.4716 H         1 UNK         0.0800 
    245 H245       -2.0028  -17.7886  -52.8291 H         1 UNK         0.0800 
    246 H246       -1.3847  -20.1938  -52.3814 H         1 UNK         0.0800 
    247 H247       -1.9325  -21.0324  -50.9557 H         1 UNK         0.0800 
@<TRIPOS>BOND
     1    1    2 1    
     2    1  127 1    
     3    1  128 1    
     4    1  129 1    
     5    2    3 2    
     6    2    4 am   BACKBONE|DICT|INTERRES
     7    4    5 1    
     8    4  130 1    
     9    5    6 1    
    10    5   65 1    
    11    5  131 1    
    12    6    7 1    
    13    6  132 1    
    14    6  133 1    
    15    7    8 1    
    16    8    9 1    
    17    8  134 1    
    18    8  135 1    
    19    9   10 ar   
    20    9   14 ar   
    21   10   11 ar   
    22   10  136 1    
    23   11   12 ar   
    24   11  126 1    
    25   12   13 ar   
    26   12  137 1    
    27   13   14 ar   
    28   13   15 1    
    29   14  138 1    
    30   15   16 1    
    31   15  139 1    
    32   15  140 1    
    33   16   17 1    
    34   17   18 1    
    35   17  141 1    
    36   17  142 1    
    37   18   19 1    
    38   18   67 1    
    39   18  143 1    
    40   19   20 am   BACKBONE|DICT|INTERRES
    41   19  144 1    
    42   20   21 2    
    43   20   22 1    
    44   22   23 1    
    45   22   24 1    
    46   22  145 1    
    47   23  146 1    
    48   23  147 1    
    49   23  148 1    
    50   24   25 am   BACKBONE|DICT|INTERRES
    51   24  149 1    
    52   25   26 2    
    53   25   27 1    
    54   27   28 1    
    55   27   29 1    
    56   27  150 1    
    57   28  151 1    
    58   28  152 1    
    59   28  153 1    
    60   29   30 am   BACKBONE|DICT|INTERRES
    61   29  154 1    
    62   30   31 2    
    63   30   32 1    
    64   32   33 1    
    65   32   34 1    
    66   32  155 1    
    67   33  156 1    
    68   33  157 1    
    69   33  158 1    
    70   34   35 am   BACKBONE|DICT|INTERRES
    71   34  159 1    
    72   35   36 2    
    73   35   37 1    
    74   37   38 1    
    75   37   39 1    
    76   37  160 1    
    77   38  161 1    
    78   38  162 1    
    79   38  163 1    
    80   39   40 am   BACKBONE|DICT|INTERRES
    81   39  164 1    
    82   40   41 2    
    83   40   42 1    
    84   42   43 1    
    85   42   44 1    
    86   42  165 1    
    87   43  166 1    
    88   43  167 1    
    89   43  168 1    
    90   44   45 am   BACKBONE|DICT|INTERRES
    91   44  169 1    
    92   45   46 2    
    93   45   47 1    
    94   47   48 1    
    95   47   49 1    
    96   47  170 1    
    97   48  171 1    
    98   48  172 1    
    99   48  173 1    
   100   49   50 am   BACKBONE|DICT|INTERRES
   101   49  174 1    
   102   50   51 2    
   103   50   52 1    
   104   52   53 1    
   105   52   54 1    
   106   52  175 1    
   107   53  176 1    
   108   53  177 1    
   109   53  178 1    
   110   54   55 am   BACKBONE|DICT|INTERRES
   111   54  179 1    
   112   55   56 2    
   113   55   57 1    
   114   57   58 1    
   115   57   59 1    
   116   57  180 1    
   117   58  181 1    
   118   58  182 1    
   119   58  183 1    
   120   59   60 am   BACKBONE|DICT|INTERRES
   121   59  184 1    
   122   60   61 2    
   123   60   62 1    
   124   62   63 1    
   125   62   64 1    
   126   62  185 1    
   127   63  186 1    
   128   63  187 1    
   129   63  188 1    
   130   64   65 am   BACKBONE|DICT|INTERRES
   131   64  189 1    
   132   65   66 2    
   133   67   68 2    
   134   67   69 am   BACKBONE|DICT|INTERRES
   135   69   70 1    
   136   69  190 1    
   137   70   71 1    
   138   70   72 1    
   139   70  191 1    
   140   71  192 1    
   141   71  193 1    
   142   71  194 1    
   143   72   73 2    
   144   72   74 am   BACKBONE|DICT|INTERRES
   145   74   75 1    
   146   74  195 1    
   147   75   76 1    
   148   75   77 1    
   149   75  196 1    
   150   76  197 1    
   151   76  198 1    
   152   76  199 1    
   153   77   78 2    
   154   77   79 am   BACKBONE|DICT|INTERRES
   155   79   80 1    
   156   79  200 1    
   157   80   81 1    
   158   80   82 1    
   159   80  201 1    
   160   81  202 1    
   161   81  203 1    
   162   81  204 1    
   163   82   83 2    
   164   82   84 am   BACKBONE|DICT|INTERRES
   165   84   85 1    
   166   84  205 1    
   167   85   86 1    
   168   85   87 1    
   169   85  206 1    
   170   86  207 1    
   171   86  208 1    
   172   86  209 1    
   173   87   88 2    
   174   87   89 am   BACKBONE|DICT|INTERRES
   175   89   90 1    
   176   89  210 1    
   177   90   91 1    
   178   90   92 1    
   179   90  211 1    
   180   91  212 1    
   181   91  213 1    
   182   91  214 1    
   183   92   93 2    
   184   92   94 am   BACKBONE|DICT|INTERRES
   185   94   95 1    
   186   94  215 1    
   187   95   96 1    
   188   95   97 1    
   189   95  216 1    
   190   96  217 1    
   191   96  218 1    
   192   96  219 1    
   193   97   98 2    
   194   97   99 am   BACKBONE|DICT|INTERRES
   195   99  100 1    
   196   99  220 1    
   197  100  101 1    
   198  100  102 1    
   199  100  221 1    
   200  101  222 1    
   201  101  223 1    
   202  101  224 1    
   203  102  103 2    
   204  102  104 am   BACKBONE|DICT|INTERRES
   205  104  105 1    
   206  104  225 1    
   207  105  106 1    
   208  105  107 1    
   209  105  226 1    
   210  106  227 1    
   211  106  228 1    
   212  106  229 1    
   213  107  108 2    
   214  107  109 am   BACKBONE|DICT|INTERRES
   215  109  110 1    
   216  109  230 1    
   217  110  111 1    
   218  110  112 1    
   219  110  231 1    
   220  111  232 1    
   221  111  233 1    
   222  111  234 1    
   223  112  113 2    
   224  112  114 am   BACKBONE|DICT|INTERRES
   225  114  115 1    
   226  114  235 1    
   227  115  116 1    
   228  115  117 1    
   229  115  236 1    
   230  116  237 1    
   231  116  238 1    
   232  116  239 1    
   233  117  118 2    
   234  117  119 am   BACKBONE|DICT|INTERRES
   235  119  120 1    
   236  119  240 1    
   237  120  121 1    
   238  120  124 1    
   239  120  241 1    
   240  121  122 am   BACKBONE|DICT|INTERRES
   241  121  123 2    
   242  122  242 1    
   243  122  243 1    
   244  124  125 1    
   245  124  244 1    
   246  124  245 1    
   247  125  126 1    
   248  126  246 1    
   249  126  247 1    
@<TRIPOS>SUBSTRUCTURE
     1 UNK         1 GROUP             0       ****    0 ROOT    
