@<TRIPOS>MOLECULE
3R540
247   249    1
SMALL
USER_CHARGES


@<TRIPOS>ATOM
      1 CA         -0.6517  -11.7923  -43.6257 C.3       0 UNK        -0.1800 
      2 C          -0.8885  -11.8606  -45.1270 C.2       0 UNK         0.5000 
      3 O          -0.3144  -11.0682  -45.8727 O.2       0 UNK        -0.5000 
      4 N          -1.7207  -12.8122  -45.5721 N.am      1 UNK        -0.5000 
      5 CA         -2.1117  -13.0308  -46.9739 C.3       1 UNK         0.1400 
      6 C6         -3.1852  -14.1444  -47.0769 C.3       23 UNK        -0.0398 
      7 S7         -4.2388  -13.9870  -48.5560 S.3       23 UNK        -0.2404 
      8 C8         -4.1299  -15.6608  -49.2693 C.3       23 UNK        -0.0205 
      9 C9         -2.7530  -15.9728  -49.8399 C.ar      23 UNK        -0.0193 
     10 C10        -2.2477  -15.2156  -50.8981 C.ar      23 UNK        -0.1150 
     11 C11        -1.0018  -15.5122  -51.4521 C.ar      23 UNK        -0.0193 
     12 C12        -0.2590  -16.5796  -50.9411 C.ar      23 UNK        -0.1150 
     13 C13        -0.7682  -17.3829  -49.9167 C.ar      23 UNK        -0.0193 
     14 C14        -2.0093  -17.0513  -49.3515 C.ar      23 UNK        -0.1150 
     15 C15         0.0319  -18.6278  -49.5225 C.3       23 UNK        -0.0205 
     16 S16        -0.6361  -19.5933  -48.1272 S.3       23 UNK        -0.2404 
     17 C17         0.2622  -21.1664  -48.3366 C.3       23 UNK        -0.0398 
     18 CA         -0.1383  -22.2977  -47.3562 C.3       11 UNK         0.1400 
     19 N           0.3588  -22.0817  -45.9926 N.am      11 UNK        -0.5000 
     20 C           0.4483  -23.0620  -45.0807 C.2       10 UNK         0.5000 
     21 O           0.0999  -24.2221  -45.2962 O.2       10 UNK        -0.5000 
     22 CA          0.9821  -22.6951  -43.6867 C.3       10 UNK         0.1400 
     23 CB          2.5029  -22.4832  -43.7178 C.3       10 UNK        -0.1800 
     24 N           0.3216  -21.5257  -43.1115 N.am      10 UNK        -0.5000 
     25 C          -0.9856  -21.4588  -42.8205 C.2       9 UNK         0.5000 
     26 O          -1.7792  -22.3816  -43.0065 O.2       9 UNK        -0.5000 
     27 CA         -1.5020  -20.1220  -42.2609 C.3       9 UNK         0.1400 
     28 CB         -1.1694  -19.9879  -40.7674 C.3       9 UNK        -0.1800 
     29 N          -0.9706  -18.9711  -42.9889 N.am      9 UNK        -0.5000 
     30 C          -1.2078  -18.7231  -44.2846 C.2       8 UNK         0.5000 
     31 O          -1.9459  -19.4104  -44.9881 O.2       8 UNK        -0.5000 
     32 CA         -0.4587  -17.5329  -44.9062 C.3       8 UNK         0.1400 
     33 CB         -1.1177  -16.2046  -44.5075 C.3       8 UNK        -0.1800 
     34 N           0.9569  -17.5115  -44.5378 N.am      8 UNK        -0.5000 
     35 C           1.8420  -18.4734  -44.8425 C.2       7 UNK         0.5000 
     36 O           1.5740  -19.4778  -45.5015 O.2       7 UNK        -0.5000 
     37 CA          3.2585  -18.3098  -44.2669 C.3       7 UNK         0.1400 
     38 CB          4.1017  -17.3556  -45.1249 C.3       7 UNK        -0.1800 
     39 N           3.2366  -17.8379  -42.8833 N.am      7 UNK        -0.5000 
     40 C           2.7846  -18.5580  -41.8467 C.2       6 UNK         0.5000 
     41 O           2.3681  -19.7121  -41.9409 O.2       6 UNK        -0.5000 
     42 CA          2.7486  -17.8448  -40.4842 C.3       6 UNK         0.1400 
     43 CB          4.1362  -17.8548  -39.8258 C.3       6 UNK        -0.1800 
     44 N           2.2694  -16.4662  -40.5944 N.am      6 UNK        -0.5000 
     45 C           1.0228  -16.1292  -40.9533 C.2       5 UNK         0.5000 
     46 O           0.1384  -16.9466  -41.2054 O.2       5 UNK        -0.5000 
     47 CA          0.7277  -14.6268  -41.0951 C.3       5 UNK         0.1400 
     48 CB          0.3266  -14.0210  -39.7423 C.3       5 UNK        -0.1800 
     49 N           1.8494  -13.8690  -41.6559 N.am      5 UNK        -0.5000 
     50 C           2.2963  -14.0015  -42.9104 C.2       4 UNK         0.5000 
     51 O           1.8434  -14.8152  -43.7210 O.2       4 UNK        -0.5000 
     52 CA          3.4311  -13.0657  -43.3388 C.3       4 UNK         0.1400 
     53 CB          4.7971  -13.7668  -43.2569 C.3       4 UNK        -0.1800 
     54 N           3.1503  -12.6486  -44.7045 N.am      4 UNK        -0.5000 
     55 C           3.5699  -11.5255  -45.2970 C.2       3 UNK         0.5000 
     56 O           4.3476  -10.7312  -44.7660 O.2       3 UNK        -0.5000 
     57 CA          2.9876  -11.2017  -46.6906 C.3       3 UNK         0.1400 
     58 CB          4.0695  -10.7660  -47.7008 C.3       3 UNK        -0.1800 
     59 N           2.1135  -12.2560  -47.2256 N.am      3 UNK        -0.5000 
     60 C           2.4570  -13.4482  -47.7386 C.2       2 UNK         0.5000 
     61 O           3.6222  -13.8007  -47.9208 O.2       2 UNK        -0.5000 
     62 CA          1.3139  -14.4414  -48.0464 C.3       2 UNK         0.1400 
     63 CB          1.6868  -15.8595  -47.5897 C.3       2 UNK        -0.1800 
     64 N           0.0620  -14.0793  -47.3816 N.am      2 UNK        -0.5000 
     65 C          -0.9048  -13.3113  -47.8992 C.2       1 UNK         0.5000 
     66 O          -0.8428  -12.7881  -49.0115 O.2       1 UNK        -0.5000 
     67 C          -1.6462  -22.6368  -47.3865 C.2       11 UNK         0.5000 
     68 O          -2.0706  -23.4548  -48.2098 O.2       11 UNK        -0.5000 
     69 N          -2.4217  -22.0403  -46.4671 N.am      12 UNK        -0.5000 
     70 CA         -3.8359  -22.3406  -46.2607 C.3       12 UNK         0.1400 
     71 CB         -4.4659  -21.3313  -45.2910 C.3       12 UNK        -0.1800 
     72 C          -4.0537  -23.7835  -45.7768 C.2       12 UNK         0.5000 
     73 O          -4.8736  -24.4975  -46.3547 O.2       12 UNK        -0.5000 
     74 N          -3.2843  -24.1984  -44.7610 N.am      13 UNK        -0.5000 
     75 CA         -3.3016  -25.5544  -44.2118 C.3       13 UNK         0.1400 
     76 CB         -2.4556  -25.5970  -42.9303 C.3       13 UNK        -0.1800 
     77 C          -2.8204  -26.6212  -45.2127 C.2       13 UNK         0.5000 
     78 O          -3.3606  -27.7281  -45.2175 O.2       13 UNK        -0.5000 
     79 N          -1.8202  -26.2731  -46.0344 N.am      14 UNK        -0.5000 
     80 CA         -1.2289  -27.1497  -47.0417 C.3       14 UNK         0.1400 
     81 CB          0.0557  -26.5171  -47.6004 C.3       14 UNK        -0.1800 
     82 C          -2.1979  -27.5079  -48.1806 C.2       14 UNK         0.5000 
     83 O          -2.3877  -28.6952  -48.4509 O.2       14 UNK        -0.5000 
     84 N          -2.7720  -26.4923  -48.8427 N.am      15 UNK        -0.5000 
     85 CA         -3.5638  -26.6865  -50.0619 C.3       15 UNK         0.1400 
     86 CB         -2.6245  -26.9843  -51.2535 C.3       15 UNK        -0.1800 
     87 C          -4.5080  -25.5101  -50.3628 C.2       15 UNK         0.5000 
     88 O          -4.8006  -25.2652  -51.5346 O.2       15 UNK        -0.5000 
     89 N          -4.9520  -24.7707  -49.3341 N.am      16 UNK        -0.5000 
     90 CA         -5.8139  -23.5827  -49.4479 C.3       16 UNK         0.1400 
     91 CB         -7.2289  -23.9793  -49.9217 C.3       16 UNK        -0.1800 
     92 C          -5.1803  -22.4741  -50.3192 C.2       16 UNK         0.5000 
     93 O          -5.8703  -21.8592  -51.1331 O.2       16 UNK        -0.5000 
     94 N          -3.8572  -22.2911  -50.1789 N.am      17 UNK        -0.5000 
     95 CA         -2.9963  -21.4320  -51.0011 C.3       17 UNK         0.1400 
     96 CB         -3.3437  -19.9444  -50.7973 C.3       17 UNK        -0.1800 
     97 C          -2.9899  -21.8543  -52.4861 C.2       17 UNK         0.5000 
     98 O          -3.0093  -21.0008  -53.3751 O.2       17 UNK        -0.5000 
     99 N          -2.9840  -23.1745  -52.7221 N.am      18 UNK        -0.5000 
    100 CA        -3.1218  -23.8494  -54.0187 C.3       18 UNK         0.1400 
    101 CB        -1.9010  -23.5756  -54.9208 C.3       18 UNK        -0.1800 
    102 C         -4.4686  -23.5172  -54.6941 C.2       18 UNK         0.5000 
    103 O         -4.5071  -23.2074  -55.8850 O.2       18 UNK        -0.5000 
    104 N         -5.5422  -23.5632  -53.8915 N.am      19 UNK        -0.5000 
    105 CA        -6.9082  -23.1355  -54.2089 C.3       19 UNK         0.1400 
    106 CB        -7.5469  -24.0666  -55.2604 C.3       19 UNK        -0.1800 
    107 C         -6.9732  -21.6398  -54.5901 C.2       19 UNK         0.5000 
    108 O         -7.5091  -21.2866  -55.6426 O.2       19 UNK        -0.5000 
    109 N         -6.4148  -20.7971  -53.7085 N.am      20 UNK        -0.5000 
    110 CA        -6.3334  -19.3349  -53.7916 C.3       20 UNK         0.1400 
    111 CB        -7.7338  -18.7083  -53.6284 C.3       20 UNK        -0.1800 
    112 C         -5.5826  -18.8283  -55.0427 C.2       20 UNK         0.5000 
    113 O         -6.0407  -17.8942  -55.7040 O.2       20 UNK        -0.5000 
    114 N         -4.4363  -19.4526  -55.3378 N.am      21 UNK        -0.5000 
    115 CA        -3.5616  -19.1294  -56.4695 C.3       21 UNK         0.1400 
    116 CB        -3.4886  -20.3523  -57.3988 C.3       21 UNK        -0.1800 
    117 C         -2.1559  -18.6934  -56.0081 C.2       21 UNK         0.5000 
    118 O         -1.2536  -18.5885  -56.8403 O.2       21 UNK        -0.5000 
    119 N         -1.9900  -18.4599  -54.6995 N.am      22 UNK        -0.5000 
    120 CA        -0.7216  -18.1600  -54.0133 C.3       22 UNK         0.1400 
    121 C          0.2810  -19.3539  -53.9839 C.2       22 UNK         0.5000 
    122 N         -0.1881  -20.5930  -54.0353 N.am      22 UNK        -0.7600 
    123 O          1.4909  -19.1669  -53.8873 O.2       22 UNK        -0.5000 
    124 C124       -0.0569  -16.8231  -54.4568 C.3       23 UNK        -0.0398 
    125 S125       -1.1175  -15.3565  -54.2110 S.3       23 UNK        -0.2404 
    126 C126       -0.4858  -14.7017  -52.6298 C.3       23 UNK        -0.0205 
    127 H127       -1.1653  -10.9278  -43.2056 H         1 UNK         0.0600 
    128 H128        0.4125  -11.6891  -43.4164 H         1 UNK         0.0600 
    129 H129       -1.0140  -12.6863  -43.1187 H         1 UNK         0.0600 
    130 H130       -2.1700  -13.4125  -44.8960 H         1 UNK         0.3000 
    131 H131       -2.5591  -12.0922  -47.3083 H         1 UNK         0.0600 
    132 H132       -3.8604  -14.0928  -46.2216 H         1 UNK         0.0800 
    133 H133       -2.7319  -15.1362  -47.0333 H         1 UNK         0.0800 
    134 H134       -4.8653  -15.7475  -50.0703 H         1 UNK         0.0800 
    135 H135       -4.4169  -16.3929  -48.5128 H         1 UNK         0.0800 
    136 H136       -2.8297  -14.3959  -51.2952 H         1 UNK         0.1150 
    137 H137        0.6968  -16.8228  -51.3837 H         1 UNK         0.1150 
    138 H138       -2.4283  -17.6495  -48.5566 H         1 UNK         0.1150 
    139 H139        0.0825  -19.2768  -50.3980 H         1 UNK         0.0800 
    140 H140        1.0587  -18.3445  -49.2884 H         1 UNK         0.0800 
    141 H141        0.1136  -21.5092  -49.3614 H         1 UNK         0.0800 
    142 H142        1.3304  -20.9639  -48.2454 H         1 UNK         0.0800 
    143 H143        0.3705  -23.1922  -47.7213 H         1 UNK         0.0600 
    144 H144        0.6653  -21.1398  -45.7575 H         1 UNK         0.3000 
    145 H145        0.7782  -23.5409  -43.0267 H         1 UNK         0.0600 
    146 H146        2.8993  -22.3292  -42.7141 H         1 UNK         0.0600 
    147 H147        2.7792  -21.6199  -44.3227 H         1 UNK         0.0600 
    148 H148        3.0100  -23.3534  -44.1365 H         1 UNK         0.0600 
    149 H149        0.9147  -20.7306  -42.8967 H         1 UNK         0.3000 
    150 H150       -2.5884  -20.1135  -42.3695 H         1 UNK         0.0600 
    151 H151       -1.5631  -20.8332  -40.2017 H         1 UNK         0.0600 
    152 H152       -1.6071  -19.0823  -40.3471 H         1 UNK         0.0600 
    153 H153       -0.0933  -19.9484  -40.5956 H         1 UNK         0.0600 
    154 H154       -0.3870  -18.3274  -42.4622 H         1 UNK         0.3000 
    155 H155       -0.5182  -17.6258  -45.9910 H         1 UNK         0.0600 
    156 H156       -2.1531  -16.1683  -44.8470 H         1 UNK         0.0600 
    157 H157       -0.5928  -15.3590  -44.9468 H         1 UNK         0.0600 
    158 H158       -1.1242  -16.0646  -43.4271 H         1 UNK         0.0600 
    159 H159        1.2790  -16.6982  -44.0236 H         1 UNK         0.3000 
    160 H160        3.7385  -19.2905  -44.2837 H         1 UNK         0.0600 
    161 H161        3.7124  -16.3384  -45.1000 H         1 UNK         0.0600 
    162 H162        4.1160  -17.6763  -46.1674 H         1 UNK         0.0600 
    163 H163        5.1351  -17.3255  -44.7798 H         1 UNK         0.0600 
    164 H164        3.5244  -16.8852  -42.7216 H         1 UNK         0.3000 
    165 H165        2.0597  -18.3941  -39.8387 H         1 UNK         0.0600 
    166 H166        4.1013  -17.4191  -38.8271 H         1 UNK         0.0600 
    167 H167        4.5104  -18.8742  -39.7214 H         1 UNK         0.0600 
    168 H168        4.8668  -17.2951  -40.4112 H         1 UNK         0.0600 
    169 H169        2.9338  -15.7308  -40.4045 H         1 UNK         0.3000 
    170 H170       -0.1205  -14.5247  -41.7743 H         1 UNK         0.0600 
    171 H171        1.1444  -14.0633  -39.0219 H         1 UNK         0.0600 
    172 H172        0.0275  -12.9783  -39.8511 H         1 UNK         0.0600 
    173 H173       -0.5198  -14.5569  -39.3104 H         1 UNK         0.0600 
    174 H174        2.2738  -13.1806  -41.0509 H         1 UNK         0.3000 
    175 H175        3.4314  -12.1889  -42.6877 H         1 UNK         0.0600 
    176 H176        4.8528  -14.6227  -43.9291 H         1 UNK         0.0600 
    177 H177        5.6052  -13.0850  -43.5219 H         1 UNK         0.0600 
    178 H178        4.9943  -14.1258  -42.2462 H         1 UNK         0.0600 
    179 H179        2.5025  -13.2496  -45.1952 H         1 UNK         0.3000 
    180 H180        2.3334  -10.3424  -46.5376 H         1 UNK         0.0600 
    181 H181        4.8470  -11.5206  -47.8196 H         1 UNK         0.0600 
    182 H182        4.5607   -9.8500  -47.3706 H         1 UNK         0.0600 
    183 H183        3.6383  -10.5662  -48.6816 H         1 UNK         0.0600 
    184 H184        1.1249  -12.0684  -47.1017 H         1 UNK         0.3000 
    185 H185        1.1645  -14.4555  -49.1281 H         1 UNK         0.0600 
    186 H186        1.9643  -15.8678  -46.5374 H         1 UNK         0.0600 
    187 H187        0.8539  -16.5488  -47.7146 H         1 UNK         0.0600 
    188 H188        2.5284  -16.2544  -48.1596 H         1 UNK         0.0600 
    189 H189       -0.0536  -14.4206  -46.4397 H         1 UNK         0.3000 
    190 H190       -2.0146  -21.3339  -45.8627 H         1 UNK         0.3000 
    191 H191       -4.3328  -22.2228  -47.2221 H         1 UNK         0.0600 
    192 H192       -4.4117  -20.3185  -45.6904 H         1 UNK         0.0600 
    193 H193       -3.9685  -21.3359  -44.3210 H         1 UNK         0.0600 
    194 H194       -5.5196  -21.5564  -45.1218 H         1 UNK         0.0600 
    195 H195       -2.6478  -23.5399  -44.3199 H         1 UNK         0.3000 
    196 H196       -4.3334  -25.7930  -43.9456 H         1 UNK         0.0600 
    197 H197       -2.8443  -24.9095  -42.1789 H         1 UNK         0.0600 
    198 H198       -1.4173  -25.3258  -43.1256 H         1 UNK         0.0600 
    199 H199       -2.4590  -26.5953  -42.4909 H         1 UNK         0.0600 
    200 H200       -1.3756  -25.3698  -45.9018 H         1 UNK         0.3000 
    201 H201       -0.9483  -28.0804  -46.5440 H         1 UNK         0.0600 
    202 H202        0.7986  -26.3757  -46.8155 H         1 UNK         0.0600 
    203 H203       -0.1372  -25.5474  -48.0589 H         1 UNK         0.0600 
    204 H204        0.5073  -27.1555  -48.3608 H         1 UNK         0.0600 
    205 H205       -2.5667  -25.5369  -48.5698 H         1 UNK         0.3000 
    206 H206       -4.2175  -27.5493  -49.9190 H         1 UNK         0.0600 
    207 H207       -2.0088  -27.8649  -51.0720 H         1 UNK         0.0600 
    208 H208       -1.9558  -26.1461  -51.4524 H         1 UNK         0.0600 
    209 H209       -3.1881  -27.1814  -52.1663 H         1 UNK         0.0600 
    210 H210       -4.6964  -25.0284  -48.3868 H         1 UNK         0.3000 
    211 H211       -5.9256  -23.1677  -48.4482 H         1 UNK         0.0600 
    212 H212       -7.2291  -24.3567  -50.9444 H         1 UNK         0.0600 
    213 H213       -7.9048  -23.1239  -49.8909 H         1 UNK         0.0600 
    214 H214       -7.6554  -24.7506  -49.2806 H         1 UNK         0.0600 
    215 H215       -3.3669  -22.8506  -49.4861 H         1 UNK         0.3000 
    216 H216       -1.9784  -21.5820  -50.6410 H         1 UNK         0.0600 
    217 H217       -2.6275  -19.3013  -51.3094 H         1 UNK         0.0600 
    218 H218       -3.3200  -19.6813  -49.7403 H         1 UNK         0.0600 
    219 H219       -4.3337  -19.6978  -51.1772 H         1 UNK         0.0600 
    220 H220       -3.0331  -23.7879  -51.9215 H         1 UNK         0.3000 
    221 H221       -3.1404  -24.9198  -53.8088 H         1 UNK         0.0600 
    222 H222       -1.8609  -22.5377  -55.2487 H         1 UNK         0.0600 
    223 H223       -0.9689  -23.8031  -54.4041 H         1 UNK         0.0600 
    224 H224       -1.9353  -24.1958  -55.8171 H         1 UNK         0.0600 
    225 H225       -5.3907  -23.8758  -52.9378 H         1 UNK         0.3000 
    226 H226       -7.4826  -23.2410  -53.2874 H         1 UNK         0.0600 
    227 H227       -7.5043  -25.1079  -54.9412 H         1 UNK         0.0600 
    228 H228       -8.5973  -23.8166  -55.4134 H         1 UNK         0.0600 
    229 H229       -7.0501  -23.9916  -56.2280 H         1 UNK         0.0600 
    230 H230       -6.0429  -21.2009  -52.8506 H         1 UNK         0.3000 
    231 H231       -5.7364  -19.0162  -52.9372 H         1 UNK         0.0600 
    232 H232       -7.6713  -17.6214  -53.5640 H         1 UNK         0.0600 
    233 H233       -8.2172  -19.0583  -52.7162 H         1 UNK         0.0600 
    234 H234       -8.3864  -18.9497  -54.4679 H         1 UNK         0.0600 
    235 H235       -4.1100  -20.1952  -54.7239 H         1 UNK         0.3000 
    236 H236       -3.9696  -18.2950  -57.0427 H         1 UNK         0.0600 
    237 H237       -2.9907  -21.1922  -56.9146 H         1 UNK         0.0600 
    238 H238       -4.4841  -20.6816  -57.6973 H         1 UNK         0.0600 
    239 H239       -2.9350  -20.1232  -58.3100 H         1 UNK         0.0600 
    240 H240       -2.7867  -18.6044  -54.0972 H         1 UNK         0.3000 
    241 H241       -1.0110  -18.0473  -52.9717 H         1 UNK         0.0600 
    242 H242        0.4554  -21.3673  -54.0194 H         1 UNK         0.3800 
    243 H243       -1.1886  -20.7561  -54.0539 H         1 UNK         0.3800 
    244 H244        0.2236  -16.8689  -55.5094 H         1 UNK         0.0800 
    245 H245        0.8763  -16.6597  -53.9164 H         1 UNK         0.0800 
    246 H246       -0.8080  -13.6646  -52.5249 H         1 UNK         0.0800 
    247 H247        0.6048  -14.6783  -52.6363 H         1 UNK         0.0800 
@<TRIPOS>BOND
     1    1    2 1    
     2    1  127 1    
     3    1  128 1    
     4    1  129 1    
     5    2    3 2    
     6    2    4 am   BACKBONE|DICT|INTERRES
     7    4    5 1    
     8    4  130 1    
     9    5    6 1    
    10    5   65 1    
    11    5  131 1    
    12    6    7 1    
    13    6  132 1    
    14    6  133 1    
    15    7    8 1    
    16    8    9 1    
    17    8  134 1    
    18    8  135 1    
    19    9   10 ar   
    20    9   14 ar   
    21   10   11 ar   
    22   10  136 1    
    23   11   12 ar   
    24   11  126 1    
    25   12   13 ar   
    26   12  137 1    
    27   13   14 ar   
    28   13   15 1    
    29   14  138 1    
    30   15   16 1    
    31   15  139 1    
    32   15  140 1    
    33   16   17 1    
    34   17   18 1    
    35   17  141 1    
    36   17  142 1    
    37   18   19 1    
    38   18   67 1    
    39   18  143 1    
    40   19   20 am   BACKBONE|DICT|INTERRES
    41   19  144 1    
    42   20   21 2    
    43   20   22 1    
    44   22   23 1    
    45   22   24 1    
    46   22  145 1    
    47   23  146 1    
    48   23  147 1    
    49   23  148 1    
    50   24   25 am   BACKBONE|DICT|INTERRES
    51   24  149 1    
    52   25   26 2    
    53   25   27 1    
    54   27   28 1    
    55   27   29 1    
    56   27  150 1    
    57   28  151 1    
    58   28  152 1    
    59   28  153 1    
    60   29   30 am   BACKBONE|DICT|INTERRES
    61   29  154 1    
    62   30   31 2    
    63   30   32 1    
    64   32   33 1    
    65   32   34 1    
    66   32  155 1    
    67   33  156 1    
    68   33  157 1    
    69   33  158 1    
    70   34   35 am   BACKBONE|DICT|INTERRES
    71   34  159 1    
    72   35   36 2    
    73   35   37 1    
    74   37   38 1    
    75   37   39 1    
    76   37  160 1    
    77   38  161 1    
    78   38  162 1    
    79   38  163 1    
    80   39   40 am   BACKBONE|DICT|INTERRES
    81   39  164 1    
    82   40   41 2    
    83   40   42 1    
    84   42   43 1    
    85   42   44 1    
    86   42  165 1    
    87   43  166 1    
    88   43  167 1    
    89   43  168 1    
    90   44   45 am   BACKBONE|DICT|INTERRES
    91   44  169 1    
    92   45   46 2    
    93   45   47 1    
    94   47   48 1    
    95   47   49 1    
    96   47  170 1    
    97   48  171 1    
    98   48  172 1    
    99   48  173 1    
   100   49   50 am   BACKBONE|DICT|INTERRES
   101   49  174 1    
   102   50   51 2    
   103   50   52 1    
   104   52   53 1    
   105   52   54 1    
   106   52  175 1    
   107   53  176 1    
   108   53  177 1    
   109   53  178 1    
   110   54   55 am   BACKBONE|DICT|INTERRES
   111   54  179 1    
   112   55   56 2    
   113   55   57 1    
   114   57   58 1    
   115   57   59 1    
   116   57  180 1    
   117   58  181 1    
   118   58  182 1    
   119   58  183 1    
   120   59   60 am   BACKBONE|DICT|INTERRES
   121   59  184 1    
   122   60   61 2    
   123   60   62 1    
   124   62   63 1    
   125   62   64 1    
   126   62  185 1    
   127   63  186 1    
   128   63  187 1    
   129   63  188 1    
   130   64   65 am   BACKBONE|DICT|INTERRES
   131   64  189 1    
   132   65   66 2    
   133   67   68 2    
   134   67   69 am   BACKBONE|DICT|INTERRES
   135   69   70 1    
   136   69  190 1    
   137   70   71 1    
   138   70   72 1    
   139   70  191 1    
   140   71  192 1    
   141   71  193 1    
   142   71  194 1    
   143   72   73 2    
   144   72   74 am   BACKBONE|DICT|INTERRES
   145   74   75 1    
   146   74  195 1    
   147   75   76 1    
   148   75   77 1    
   149   75  196 1    
   150   76  197 1    
   151   76  198 1    
   152   76  199 1    
   153   77   78 2    
   154   77   79 am   BACKBONE|DICT|INTERRES
   155   79   80 1    
   156   79  200 1    
   157   80   81 1    
   158   80   82 1    
   159   80  201 1    
   160   81  202 1    
   161   81  203 1    
   162   81  204 1    
   163   82   83 2    
   164   82   84 am   BACKBONE|DICT|INTERRES
   165   84   85 1    
   166   84  205 1    
   167   85   86 1    
   168   85   87 1    
   169   85  206 1    
   170   86  207 1    
   171   86  208 1    
   172   86  209 1    
   173   87   88 2    
   174   87   89 am   BACKBONE|DICT|INTERRES
   175   89   90 1    
   176   89  210 1    
   177   90   91 1    
   178   90   92 1    
   179   90  211 1    
   180   91  212 1    
   181   91  213 1    
   182   91  214 1    
   183   92   93 2    
   184   92   94 am   BACKBONE|DICT|INTERRES
   185   94   95 1    
   186   94  215 1    
   187   95   96 1    
   188   95   97 1    
   189   95  216 1    
   190   96  217 1    
   191   96  218 1    
   192   96  219 1    
   193   97   98 2    
   194   97   99 am   BACKBONE|DICT|INTERRES
   195   99  100 1    
   196   99  220 1    
   197  100  101 1    
   198  100  102 1    
   199  100  221 1    
   200  101  222 1    
   201  101  223 1    
   202  101  224 1    
   203  102  103 2    
   204  102  104 am   BACKBONE|DICT|INTERRES
   205  104  105 1    
   206  104  225 1    
   207  105  106 1    
   208  105  107 1    
   209  105  226 1    
   210  106  227 1    
   211  106  228 1    
   212  106  229 1    
   213  107  108 2    
   214  107  109 am   BACKBONE|DICT|INTERRES
   215  109  110 1    
   216  109  230 1    
   217  110  111 1    
   218  110  112 1    
   219  110  231 1    
   220  111  232 1    
   221  111  233 1    
   222  111  234 1    
   223  112  113 2    
   224  112  114 am   BACKBONE|DICT|INTERRES
   225  114  115 1    
   226  114  235 1    
   227  115  116 1    
   228  115  117 1    
   229  115  236 1    
   230  116  237 1    
   231  116  238 1    
   232  116  239 1    
   233  117  118 2    
   234  117  119 am   BACKBONE|DICT|INTERRES
   235  119  120 1    
   236  119  240 1    
   237  120  121 1    
   238  120  124 1    
   239  120  241 1    
   240  121  122 am   BACKBONE|DICT|INTERRES
   241  121  123 2    
   242  122  242 1    
   243  122  243 1    
   244  124  125 1    
   245  124  244 1    
   246  124  245 1    
   247  125  126 1    
   248  126  246 1    
   249  126  247 1    
@<TRIPOS>SUBSTRUCTURE
     1 UNK         1 GROUP             0       ****    0 ROOT    
