@<TRIPOS>MOLECULE
3R540
247   249    1
SMALL
USER_CHARGES


@<TRIPOS>ATOM
      1 CA         -0.8491  -11.0900  -52.3350 C.3       0 UNK        -0.1800 
      2 C          -0.8734  -12.1167  -51.2114 C.2       0 UNK         0.5000 
      3 O          -1.8081  -12.9134  -51.1335 O.2       0 UNK        -0.5000 
      4 N           0.1496  -12.0958  -50.3450 N.am      1 UNK        -0.5000 
      5 CA          0.3228  -12.9839  -49.1868 C.3       1 UNK         0.1400 
      6 C6          0.5165  -14.4723  -49.5928 C.3       23 UNK        -0.0398 
      7 S7          1.4794  -15.4116  -48.3574 S.3       23 UNK        -0.2404 
      8 C8          0.3687  -16.8143  -48.0247 C.3       23 UNK        -0.0205 
      9 C9          0.5479  -17.9293  -49.0460 C.ar      23 UNK        -0.0193 
     10 C10        -0.3848  -18.1170  -50.0701 C.ar      23 UNK        -0.1150 
     11 C11        -0.2194  -19.1493  -51.0000 C.ar      23 UNK        -0.0193 
     12 C12         0.8840  -20.0015  -50.8941 C.ar      23 UNK        -0.1150 
     13 C13         1.8333  -19.8127  -49.8869 C.ar      23 UNK        -0.0193 
     14 C14         1.6542  -18.7797  -48.9626 C.ar      23 UNK        -0.1150 
     15 C15         3.0769  -20.6907  -49.8300 C.3       23 UNK        -0.0205 
     16 S16         2.7469  -22.3563  -49.1715 S.3       23 UNK        -0.2404 
     17 C17         2.3617  -21.9939  -47.4249 C.3       23 UNK        -0.0398 
     18 CA          1.1059  -22.7320  -46.9053 C.3       11 UNK         0.1400 
     19 N           0.9771  -22.6123  -45.4512 N.am      11 UNK        -0.5000 
     20 C           0.1854  -23.3780  -44.6877 C.2       10 UNK         0.5000 
     21 O          -0.4786  -24.3183  -45.1231 O.2       10 UNK        -0.5000 
     22 CA          0.0822  -22.9948  -43.1973 C.3       10 UNK         0.1400 
     23 CB          1.2327  -23.6161  -42.3925 C.3       10 UNK        -0.1800 
     24 N           0.0740  -21.5450  -42.9927 N.am      10 UNK        -0.5000 
     25 C          -0.8940  -20.7287  -43.4328 C.2       9 UNK         0.5000 
     26 O          -1.9291  -21.1281  -43.9630 O.2       9 UNK        -0.5000 
     27 CA         -0.6351  -19.2151  -43.3323 C.3       9 UNK         0.1400 
     28 CB         -1.1325  -18.6553  -41.9936 C.3       9 UNK        -0.1800 
     29 N           0.7759  -18.8716  -43.5324 N.am      9 UNK        -0.5000 
     30 C           1.4365  -19.0433  -44.6865 C.2       8 UNK         0.5000 
     31 O           0.8964  -19.4615  -45.7075 O.2       8 UNK        -0.5000 
     32 CA          2.9516  -18.7719  -44.7015 C.3       8 UNK         0.1400 
     33 CB          3.2984  -17.4151  -45.3303 C.3       8 UNK        -0.1800 
     34 N           3.5363  -18.8651  -43.3645 N.am      8 UNK        -0.5000 
     35 C           3.9054  -20.0250  -42.8053 C.2       7 UNK         0.5000 
     36 O           3.8237  -21.1140  -43.3747 O.2       7 UNK        -0.5000 
     37 CA          4.4184  -19.9607  -41.3562 C.3       7 UNK         0.1400 
     38 CB          5.8580  -19.4257  -41.3110 C.3       7 UNK        -0.1800 
     39 N           3.5717  -19.1564  -40.4708 N.am      7 UNK        -0.5000 
     40 C           2.2976  -19.4479  -40.1667 C.2       6 UNK         0.5000 
     41 O           1.6725  -20.3817  -40.6702 O.2       6 UNK        -0.5000 
     42 CA          1.6011  -18.5343  -39.1473 C.3       6 UNK         0.1400 
     43 CB          2.1211  -18.7919  -37.7236 C.3       6 UNK        -0.1800 
     44 N           1.7979  -17.1296  -39.4998 N.am      6 UNK        -0.5000 
     45 C           0.8318  -16.2063  -39.5691 C.2       5 UNK         0.5000 
     46 O          -0.3480  -16.4206  -39.2871 O.2       5 UNK        -0.5000 
     47 CA          1.2420  -14.7966  -40.0472 C.3       5 UNK         0.1400 
     48 CB          2.7500  -14.4953  -39.8894 C.3       5 UNK        -0.1800 
     49 N           0.8125  -14.5367  -41.4251 N.am      5 UNK        -0.5000 
     50 C           1.1280  -15.2496  -42.5173 C.2       4 UNK         0.5000 
     51 O           1.8312  -16.2611  -42.4916 O.2       4 UNK        -0.5000 
     52 CA          0.5738  -14.7484  -43.8678 C.3       4 UNK         0.1400 
     53 CB         -0.6661  -15.5496  -44.2858 C.3       4 UNK        -0.1800 
     54 N           0.2319  -13.3254  -43.8770 N.am      4 UNK        -0.5000 
     55 C           1.1215  -12.3259  -43.9113 C.2       3 UNK         0.5000 
     56 O           2.3408  -12.4977  -43.8683 O.2       3 UNK        -0.5000 
     57 CA          0.5363  -10.9083  -44.0724 C.3       3 UNK         0.1400 
     58 CB          1.6177   -9.8126  -44.0764 C.3       3 UNK        -0.1800 
     59 N          -0.2348  -10.8120  -45.3129 N.am      3 UNK        -0.5000 
     60 C          -1.5212  -11.1572  -45.4588 C.2       2 UNK         0.5000 
     61 O          -2.2225  -11.5747  -44.5365 O.2       2 UNK        -0.5000 
     62 CA         -2.1018  -11.0591  -46.8821 C.3       2 UNK         0.1400 
     63 CB         -2.5671   -9.6263  -47.1829 C.3       2 UNK        -0.1800 
     64 N          -1.1405  -11.4822  -47.9035 N.am      2 UNK        -0.5000 
     65 C          -0.7628  -12.7541  -48.1053 C.2       1 UNK         0.5000 
     66 O          -1.2391  -13.7024  -47.4809 O.2       1 UNK        -0.5000 
     67 C          -0.1948  -22.3005  -47.6185 C.2       11 UNK         0.5000 
     68 O          -0.6524  -23.0083  -48.5147 O.2       11 UNK        -0.5000 
     69 N          -0.8097  -21.1972  -47.1669 N.am      12 UNK        -0.5000 
     70 CA         -2.1122  -20.7256  -47.6415 C.3       12 UNK         0.1400 
     71 CB         -2.4493  -19.3710  -47.0033 C.3       12 UNK        -0.1800 
     72 C          -3.2386  -21.7435  -47.3816 C.2       12 UNK         0.5000 
     73 O          -4.0637  -21.9699  -48.2662 O.2       12 UNK        -0.5000 
     74 N          -3.2319  -22.3711  -46.1972 N.am      13 UNK        -0.5000 
     75 CA         -4.1431  -23.4524  -45.8213 C.3       13 UNK         0.1400 
     76 CB         -3.9735  -23.7857  -44.3320 C.3       13 UNK        -0.1800 
     77 C          -3.9630  -24.7080  -46.6942 C.2       13 UNK         0.5000 
     78 O          -4.9590  -25.2662  -47.1554 O.2       13 UNK        -0.5000 
     79 N          -2.7054  -25.0957  -46.9576 N.am      14 UNK        -0.5000 
     80 CA         -2.3426  -26.1846  -47.8729 C.3       14 UNK         0.1400 
     81 CB         -0.8364  -26.4667  -47.7696 C.3       14 UNK        -0.1800 
     82 C          -2.7525  -25.9065  -49.3343 C.2       14 UNK         0.5000 
     83 O          -3.1251  -26.8354  -50.0507 O.2       14 UNK        -0.5000 
     84 N          -2.7426  -24.6256  -49.7244 N.am      15 UNK        -0.5000 
     85 CA         -3.2599  -24.0926  -50.9861 C.3       15 UNK         0.1400 
     86 CB         -2.5445  -22.7633  -51.2840 C.3       15 UNK        -0.1800 
     87 C          -4.7982  -23.9293  -51.0095 C.2       15 UNK         0.5000 
     88 O          -5.3130  -23.2406  -51.8928 O.2       15 UNK        -0.5000 
     89 N          -5.5041  -24.5492  -50.0509 N.am      16 UNK        -0.5000 
     90 CA         -6.9595  -24.5888  -49.8849 C.3       16 UNK         0.1400 
     91 CB         -7.6269  -25.3338  -51.0598 C.3       16 UNK        -0.1800 
     92 C          -7.5570  -23.1956  -49.6133 C.2       16 UNK         0.5000 
     93 O          -8.5175  -22.7913  -50.2686 O.2       16 UNK        -0.5000 
     94 N          -6.9477  -22.4876  -48.6517 N.am      17 UNK        -0.5000 
     95 CA         -7.2205  -21.1005  -48.2581 C.3       17 UNK         0.1400 
     96 CB         -8.6547  -20.9343  -47.7127 C.3       17 UNK        -0.1800 
     97 C          -6.8679  -20.1154  -49.3904 C.2       17 UNK         0.5000 
     98 O          -7.6484  -19.2151  -49.7047 O.2       17 UNK        -0.5000 
     99 N          -5.6833  -20.3330  -49.9810 N.am      18 UNK        -0.5000 
    100 CA        -5.0866  -19.5931  -51.0965 C.3       18 UNK         0.1400 
    101 CB        -4.6931  -18.1690  -50.6495 C.3       18 UNK        -0.1800 
    102 C         -5.9406  -19.6145  -52.3839 C.2       18 UNK         0.5000 
    103 O         -5.9626  -18.6320  -53.1275 O.2       18 UNK        -0.5000 
    104 N         -6.6284  -20.7377  -52.6267 N.am      19 UNK        -0.5000 
    105 CA        -7.4159  -20.9793  -53.8342 C.3       19 UNK         0.1400 
    106 CB        -8.5324  -21.9851  -53.5225 C.3       19 UNK        -0.1800 
    107 C         -6.5417  -21.4841  -54.9948 C.2       19 UNK         0.5000 
    108 O         -6.8496  -21.1906  -56.1513 O.2       19 UNK        -0.5000 
    109 N         -5.4717  -22.2277  -54.6757 N.am      20 UNK        -0.5000 
    110 CA        -4.4721  -22.6913  -55.6384 C.3       20 UNK         0.1400 
    111 CB        -3.5756  -23.7480  -54.9752 C.3       20 UNK        -0.1800 
    112 C         -3.6268  -21.5250  -56.1869 C.2       20 UNK         0.5000 
    113 O         -3.4135  -20.5303  -55.4883 O.2       20 UNK        -0.5000 
    114 N         -3.1481  -21.6783  -57.4269 N.am      21 UNK        -0.5000 
    115 CA        -2.3752  -20.6829  -58.1713 C.3       21 UNK         0.1400 
    116 CB        -2.4915  -20.9966  -59.6742 C.3       21 UNK        -0.1800 
    117 C         -0.9092  -20.5978  -57.6959 C.2       21 UNK         0.5000 
    118 O          0.0059  -20.9798  -58.4281 O.2       21 UNK        -0.5000 
    119 N         -0.7148  -20.1041  -56.4689 N.am      22 UNK        -0.5000 
    120 CA         0.5970  -19.8485  -55.8505 C.3       22 UNK         0.1400 
    121 C          1.3778  -18.6268  -56.4234 C.2       22 UNK         0.5000 
    122 N          0.7726  -17.7649  -57.2321 N.am      22 UNK        -0.7600 
    123 O          2.5625  -18.4682  -56.1412 O.2       22 UNK        -0.5000 
    124 C124        0.5018  -19.7984  -54.3038 C.3       23 UNK        -0.0398 
    125 S125       -0.6831  -18.5567  -53.6700 S.3       23 UNK        -0.2404 
    126 C126       -1.2298  -19.3382  -52.1208 C.3       23 UNK        -0.0205 
    127 H127       -0.8515  -11.5926  -53.3022 H         1 UNK         0.0600 
    128 H128        0.0346  -10.4534  -52.2851 H         1 UNK         0.0600 
    129 H129       -1.7312  -10.4521  -52.2789 H         1 UNK         0.0600 
    130 H130        0.8844  -11.4142  -50.4775 H         1 UNK         0.3000 
    131 H131        1.2549  -12.6496  -48.7284 H         1 UNK         0.0600 
    132 H132       -0.4427  -14.9527  -49.7911 H         1 UNK         0.0800 
    133 H133        1.0728  -14.5322  -50.5291 H         1 UNK         0.0800 
    134 H134        0.5808  -17.1997  -47.0285 H         1 UNK         0.0800 
    135 H135       -0.6668  -16.4721  -47.9927 H         1 UNK         0.0800 
    136 H136       -1.2374  -17.4570  -50.1464 H         1 UNK         0.1150 
    137 H137        1.0177  -20.8026  -51.6065 H         1 UNK         0.1150 
    138 H138        2.3837  -18.6274  -48.1812 H         1 UNK         0.1150 
    139 H139        3.4872  -20.7895  -50.8360 H         1 UNK         0.0800 
    140 H140        3.8571  -20.2159  -49.2330 H         1 UNK         0.0800 
    141 H141        2.2634  -20.9202  -47.2808 H         1 UNK         0.0800 
    142 H142        3.2304  -22.2919  -46.8363 H         1 UNK         0.0800 
    143 H143        1.2466  -23.7935  -47.1209 H         1 UNK         0.0600 
    144 H144        1.4610  -21.8413  -45.0152 H         1 UNK         0.3000 
    145 H145       -0.8584  -23.3951  -42.8137 H         1 UNK         0.0600 
    146 H146        1.1357  -23.3921  -41.3299 H         1 UNK         0.0600 
    147 H147        1.2410  -24.7017  -42.4980 H         1 UNK         0.0600 
    148 H148        2.2032  -23.2457  -42.7242 H         1 UNK         0.0600 
    149 H149        0.8634  -21.1427  -42.4998 H         1 UNK         0.3000 
    150 H150       -1.2092  -18.7364  -44.1269 H         1 UNK         0.0600 
    151 H151       -2.2089  -18.7976  -41.8919 H         1 UNK         0.0600 
    152 H152       -0.9371  -17.5865  -41.9102 H         1 UNK         0.0600 
    153 H153       -0.6606  -19.1519  -41.1479 H         1 UNK         0.0600 
    154 H154        1.2746  -18.4773  -42.7469 H         1 UNK         0.3000 
    155 H155        3.3997  -19.5366  -45.3399 H         1 UNK         0.0600 
    156 H156        2.8677  -17.3196  -46.3256 H         1 UNK         0.0600 
    157 H157        2.9377  -16.5794  -44.7373 H         1 UNK         0.0600 
    158 H158        4.3771  -17.3008  -45.4367 H         1 UNK         0.0600 
    159 H159        3.5866  -18.0103  -42.8267 H         1 UNK         0.3000 
    160 H160        4.4264  -20.9814  -40.9674 H         1 UNK         0.0600 
    161 H161        5.9154  -18.3886  -41.6438 H         1 UNK         0.0600 
    162 H162        6.5134  -20.0137  -41.9549 H         1 UNK         0.0600 
    163 H163        6.2663  -19.4774  -40.3015 H         1 UNK         0.0600 
    164 H164        4.0286  -18.3934  -39.9959 H         1 UNK         0.3000 
    165 H165        0.5387  -18.7840  -39.1651 H         1 UNK         0.0600 
    166 H166        1.5682  -18.2010  -36.9932 H         1 UNK         0.0600 
    167 H167        2.0036  -19.8409  -37.4486 H         1 UNK         0.0600 
    168 H168        3.1776  -18.5407  -37.6242 H         1 UNK         0.0600 
    169 H169        2.7178  -16.8620  -39.8157 H         1 UNK         0.3000 
    170 H170        0.7010  -14.0915  -39.4144 H         1 UNK         0.0600 
    171 H171        3.3701  -15.1080  -40.5443 H         1 UNK         0.0600 
    172 H172        2.9610  -13.4522  -40.1258 H         1 UNK         0.0600 
    173 H173        3.0794  -14.6634  -38.8632 H         1 UNK         0.0600 
    174 H174        0.2021  -13.7424  -41.5506 H         1 UNK         0.3000 
    175 H175        1.3443  -14.9072  -44.6242 H         1 UNK         0.0600 
    176 H176       -1.0945  -15.1652  -45.2112 H         1 UNK         0.0600 
    177 H177       -1.4428  -15.5279  -43.5204 H         1 UNK         0.0600 
    178 H178       -0.4054  -16.5885  -44.4711 H         1 UNK         0.0600 
    179 H179       -0.7507  -13.0893  -43.9486 H         1 UNK         0.3000 
    180 H180       -0.1190  -10.7245  -43.2183 H         1 UNK         0.0600 
    181 H181        2.3121   -9.9321  -44.9090 H         1 UNK         0.0600 
    182 H182        2.2008   -9.8354  -43.1548 H         1 UNK         0.0600 
    183 H183        1.1720   -8.8206  -44.1521 H         1 UNK         0.0600 
    184 H184        0.2757  -10.5206  -46.1332 H         1 UNK         0.3000 
    185 H185       -2.9726  -11.7164  -46.9338 H         1 UNK         0.0600 
    186 H186       -3.2994   -9.2918  -46.4469 H         1 UNK         0.0600 
    187 H187       -1.7373   -8.9186  -47.1654 H         1 UNK         0.0600 
    188 H188       -3.0411   -9.5639  -48.1627 H         1 UNK         0.0600 
    189 H189       -0.7318  -10.7587  -48.4767 H         1 UNK         0.3000 
    190 H190       -0.3338  -20.6229  -46.4760 H         1 UNK         0.3000 
    191 H191       -2.0310  -20.5775  -48.7198 H         1 UNK         0.0600 
    192 H192       -1.6456  -18.6520  -47.1523 H         1 UNK         0.0600 
    193 H193       -3.3524  -18.9490  -47.4455 H         1 UNK         0.0600 
    194 H194       -2.6233  -19.4592  -45.9318 H         1 UNK         0.0600 
    195 H195       -2.5648  -22.0707  -45.4914 H         1 UNK         0.3000 
    196 H196       -5.1626  -23.0904  -45.9689 H         1 UNK         0.0600 
    197 H197       -4.6692  -24.5677  -44.0255 H         1 UNK         0.0600 
    198 H198       -4.1697  -22.9130  -43.7089 H         1 UNK         0.0600 
    199 H199       -2.9665  -24.1361  -44.1073 H         1 UNK         0.0600 
    200 H200       -1.9384  -24.6090  -46.5046 H         1 UNK         0.3000 
    201 H201       -2.8765  -27.0797  -47.5475 H         1 UNK         0.0600 
    202 H202       -0.5510  -26.7173  -46.7478 H         1 UNK         0.0600 
    203 H203       -0.2419  -25.6085  -48.0819 H         1 UNK         0.0600 
    204 H204       -0.5534  -27.3084  -48.4027 H         1 UNK         0.0600 
    205 H205       -2.3437  -23.9428  -49.0878 H         1 UNK         0.3000 
    206 H206       -3.0109  -24.7918  -51.7864 H         1 UNK         0.0600 
    207 H207       -1.4697  -22.9119  -51.3905 H         1 UNK         0.0600 
    208 H208       -2.9026  -22.3077  -52.2062 H         1 UNK         0.0600 
    209 H209       -2.6984  -22.0364  -50.4893 H         1 UNK         0.0600 
    210 H210       -4.9853  -25.0381  -49.3323 H         1 UNK         0.3000 
    211 H211       -7.1476  -25.1749  -48.9843 H         1 UNK         0.0600 
    212 H212       -7.4721  -24.8235  -52.0095 H         1 UNK         0.0600 
    213 H213       -8.7030  -25.4228  -50.9069 H         1 UNK         0.0600 
    214 H214       -7.2295  -26.3439  -51.1577 H         1 UNK         0.0600 
    215 H215       -6.1113  -22.8869  -48.2450 H         1 UNK         0.3000 
    216 H216       -6.5362  -20.8772  -47.4383 H         1 UNK         0.0600 
    217 H217       -8.7956  -19.9379  -47.2926 H         1 UNK         0.0600 
    218 H218       -8.8604  -21.6529  -46.9196 H         1 UNK         0.0600 
    219 H219       -9.4073  -21.0667  -48.4902 H         1 UNK         0.0600 
    220 H220       -5.1184  -21.0877  -49.6010 H         1 UNK         0.3000 
    221 H221       -4.1693  -20.1254  -51.3477 H         1 UNK         0.0600 
    222 H222       -5.5658  -17.5755  -50.3765 H         1 UNK         0.0600 
    223 H223       -4.0239  -18.1978  -49.7897 H         1 UNK         0.0600 
    224 H224       -4.1738  -17.6325  -51.4441 H         1 UNK         0.0600 
    225 H225       -6.5143  -21.5238  -51.9971 H         1 UNK         0.3000 
    226 H226       -7.8856  -20.0451  -54.1495 H         1 UNK         0.0600 
    227 H227       -9.1880  -21.6136  -52.7348 H         1 UNK         0.0600 
    228 H228       -9.1508  -22.1691  -54.4019 H         1 UNK         0.0600 
    229 H229       -8.1283  -22.9433  -53.1978 H         1 UNK         0.0600 
    230 H230       -5.3049  -22.4437  -53.6981 H         1 UNK         0.3000 
    231 H231       -5.0022  -23.1622  -56.4690 H         1 UNK         0.0600 
    232 H232       -2.9324  -23.3112  -54.2133 H         1 UNK         0.0600 
    233 H233       -2.9256  -24.2218  -55.7115 H         1 UNK         0.0600 
    234 H234       -4.1665  -24.5362  -54.5079 H         1 UNK         0.0600 
    235 H235       -3.3340  -22.5430  -57.9141 H         1 UNK         0.3000 
    236 H236       -2.8248  -19.7010  -58.0074 H         1 UNK         0.0600 
    237 H237       -3.5306  -20.9700  -60.0030 H         1 UNK         0.0600 
    238 H238       -1.9460  -20.2637  -60.2702 H         1 UNK         0.0600 
    239 H239       -2.0891  -21.9816  -59.9145 H         1 UNK         0.0600 
    240 H240       -1.5294  -19.8680  -55.9109 H         1 UNK         0.3000 
    241 H241        1.2232  -20.7108  -56.0880 H         1 UNK         0.0600 
    242 H242       -0.2014  -17.8756  -57.4621 H         1 UNK         0.3800 
    243 H243        1.2902  -16.9828  -57.6015 H         1 UNK         0.3800 
    244 H244        0.2015  -20.7837  -53.9459 H         1 UNK         0.0800 
    245 H245        1.4802  -19.6090  -53.8587 H         1 UNK         0.0800 
    246 H246       -1.4238  -20.3971  -52.2854 H         1 UNK         0.0800 
    247 H247       -2.1820  -18.8948  -51.8357 H         1 UNK         0.0800 
@<TRIPOS>BOND
     1    1    2 1    
     2    1  127 1    
     3    1  128 1    
     4    1  129 1    
     5    2    3 2    
     6    2    4 am   BACKBONE|DICT|INTERRES
     7    4    5 1    
     8    4  130 1    
     9    5    6 1    
    10    5   65 1    
    11    5  131 1    
    12    6    7 1    
    13    6  132 1    
    14    6  133 1    
    15    7    8 1    
    16    8    9 1    
    17    8  134 1    
    18    8  135 1    
    19    9   10 ar   
    20    9   14 ar   
    21   10   11 ar   
    22   10  136 1    
    23   11   12 ar   
    24   11  126 1    
    25   12   13 ar   
    26   12  137 1    
    27   13   14 ar   
    28   13   15 1    
    29   14  138 1    
    30   15   16 1    
    31   15  139 1    
    32   15  140 1    
    33   16   17 1    
    34   17   18 1    
    35   17  141 1    
    36   17  142 1    
    37   18   19 1    
    38   18   67 1    
    39   18  143 1    
    40   19   20 am   BACKBONE|DICT|INTERRES
    41   19  144 1    
    42   20   21 2    
    43   20   22 1    
    44   22   23 1    
    45   22   24 1    
    46   22  145 1    
    47   23  146 1    
    48   23  147 1    
    49   23  148 1    
    50   24   25 am   BACKBONE|DICT|INTERRES
    51   24  149 1    
    52   25   26 2    
    53   25   27 1    
    54   27   28 1    
    55   27   29 1    
    56   27  150 1    
    57   28  151 1    
    58   28  152 1    
    59   28  153 1    
    60   29   30 am   BACKBONE|DICT|INTERRES
    61   29  154 1    
    62   30   31 2    
    63   30   32 1    
    64   32   33 1    
    65   32   34 1    
    66   32  155 1    
    67   33  156 1    
    68   33  157 1    
    69   33  158 1    
    70   34   35 am   BACKBONE|DICT|INTERRES
    71   34  159 1    
    72   35   36 2    
    73   35   37 1    
    74   37   38 1    
    75   37   39 1    
    76   37  160 1    
    77   38  161 1    
    78   38  162 1    
    79   38  163 1    
    80   39   40 am   BACKBONE|DICT|INTERRES
    81   39  164 1    
    82   40   41 2    
    83   40   42 1    
    84   42   43 1    
    85   42   44 1    
    86   42  165 1    
    87   43  166 1    
    88   43  167 1    
    89   43  168 1    
    90   44   45 am   BACKBONE|DICT|INTERRES
    91   44  169 1    
    92   45   46 2    
    93   45   47 1    
    94   47   48 1    
    95   47   49 1    
    96   47  170 1    
    97   48  171 1    
    98   48  172 1    
    99   48  173 1    
   100   49   50 am   BACKBONE|DICT|INTERRES
   101   49  174 1    
   102   50   51 2    
   103   50   52 1    
   104   52   53 1    
   105   52   54 1    
   106   52  175 1    
   107   53  176 1    
   108   53  177 1    
   109   53  178 1    
   110   54   55 am   BACKBONE|DICT|INTERRES
   111   54  179 1    
   112   55   56 2    
   113   55   57 1    
   114   57   58 1    
   115   57   59 1    
   116   57  180 1    
   117   58  181 1    
   118   58  182 1    
   119   58  183 1    
   120   59   60 am   BACKBONE|DICT|INTERRES
   121   59  184 1    
   122   60   61 2    
   123   60   62 1    
   124   62   63 1    
   125   62   64 1    
   126   62  185 1    
   127   63  186 1    
   128   63  187 1    
   129   63  188 1    
   130   64   65 am   BACKBONE|DICT|INTERRES
   131   64  189 1    
   132   65   66 2    
   133   67   68 2    
   134   67   69 am   BACKBONE|DICT|INTERRES
   135   69   70 1    
   136   69  190 1    
   137   70   71 1    
   138   70   72 1    
   139   70  191 1    
   140   71  192 1    
   141   71  193 1    
   142   71  194 1    
   143   72   73 2    
   144   72   74 am   BACKBONE|DICT|INTERRES
   145   74   75 1    
   146   74  195 1    
   147   75   76 1    
   148   75   77 1    
   149   75  196 1    
   150   76  197 1    
   151   76  198 1    
   152   76  199 1    
   153   77   78 2    
   154   77   79 am   BACKBONE|DICT|INTERRES
   155   79   80 1    
   156   79  200 1    
   157   80   81 1    
   158   80   82 1    
   159   80  201 1    
   160   81  202 1    
   161   81  203 1    
   162   81  204 1    
   163   82   83 2    
   164   82   84 am   BACKBONE|DICT|INTERRES
   165   84   85 1    
   166   84  205 1    
   167   85   86 1    
   168   85   87 1    
   169   85  206 1    
   170   86  207 1    
   171   86  208 1    
   172   86  209 1    
   173   87   88 2    
   174   87   89 am   BACKBONE|DICT|INTERRES
   175   89   90 1    
   176   89  210 1    
   177   90   91 1    
   178   90   92 1    
   179   90  211 1    
   180   91  212 1    
   181   91  213 1    
   182   91  214 1    
   183   92   93 2    
   184   92   94 am   BACKBONE|DICT|INTERRES
   185   94   95 1    
   186   94  215 1    
   187   95   96 1    
   188   95   97 1    
   189   95  216 1    
   190   96  217 1    
   191   96  218 1    
   192   96  219 1    
   193   97   98 2    
   194   97   99 am   BACKBONE|DICT|INTERRES
   195   99  100 1    
   196   99  220 1    
   197  100  101 1    
   198  100  102 1    
   199  100  221 1    
   200  101  222 1    
   201  101  223 1    
   202  101  224 1    
   203  102  103 2    
   204  102  104 am   BACKBONE|DICT|INTERRES
   205  104  105 1    
   206  104  225 1    
   207  105  106 1    
   208  105  107 1    
   209  105  226 1    
   210  106  227 1    
   211  106  228 1    
   212  106  229 1    
   213  107  108 2    
   214  107  109 am   BACKBONE|DICT|INTERRES
   215  109  110 1    
   216  109  230 1    
   217  110  111 1    
   218  110  112 1    
   219  110  231 1    
   220  111  232 1    
   221  111  233 1    
   222  111  234 1    
   223  112  113 2    
   224  112  114 am   BACKBONE|DICT|INTERRES
   225  114  115 1    
   226  114  235 1    
   227  115  116 1    
   228  115  117 1    
   229  115  236 1    
   230  116  237 1    
   231  116  238 1    
   232  116  239 1    
   233  117  118 2    
   234  117  119 am   BACKBONE|DICT|INTERRES
   235  119  120 1    
   236  119  240 1    
   237  120  121 1    
   238  120  124 1    
   239  120  241 1    
   240  121  122 am   BACKBONE|DICT|INTERRES
   241  121  123 2    
   242  122  242 1    
   243  122  243 1    
   244  124  125 1    
   245  124  244 1    
   246  124  245 1    
   247  125  126 1    
   248  126  246 1    
   249  126  247 1    
@<TRIPOS>SUBSTRUCTURE
     1 UNK         1 GROUP             0       ****    0 ROOT    
