@<TRIPOS>MOLECULE
3R540
247   249    1
SMALL
USER_CHARGES


@<TRIPOS>ATOM
      1 CA         -4.4588   -7.6029  -48.5654 C.3       0 UNK        -0.1800 
      2 C          -3.6070   -8.8485  -48.3695 C.2       0 UNK         0.5000 
      3 O          -2.3902   -8.7938  -48.5492 O.2       0 UNK        -0.5000 
      4 N          -4.2352   -9.9681  -47.9805 N.am      1 UNK        -0.5000 
      5 CA         -3.5919  -11.2766  -47.7763 C.3       1 UNK         0.1400 
      6 C6         -4.6344  -12.4151  -47.5929 C.3       23 UNK        -0.0398 
      7 S7         -4.2460  -13.8916  -48.5927 S.3       23 UNK        -0.2404 
      8 C8         -3.4985  -14.9932  -47.3528 C.3       23 UNK        -0.0205 
      9 C9         -3.0675  -16.3109  -47.9774 C.ar      23 UNK        -0.0193 
     10 C10        -1.9263  -16.3612  -48.7820 C.ar      23 UNK        -0.1150 
     11 C11        -1.5143  -17.5643  -49.3586 C.ar      23 UNK        -0.0193 
     12 C12        -2.2418  -18.7308  -49.1093 C.ar      23 UNK        -0.1150 
     13 C13        -3.3840  -18.6962  -48.3032 C.ar      23 UNK        -0.0193 
     14 C14        -3.7973  -17.4810  -47.7477 C.ar      23 UNK        -0.1150 
     15 C15        -4.1821  -19.9670  -48.0494 C.3       23 UNK        -0.0205 
     16 S16        -4.1559  -20.4833  -46.3034 S.3       23 UNK        -0.2404 
     17 C17        -2.4031  -20.9124  -46.0489 C.3       23 UNK        -0.0398 
     18 CA         -2.0343  -22.3659  -46.4306 C.3       11 UNK         0.1400 
     19 N          -0.5819  -22.5459  -46.4437 N.am      11 UNK        -0.5000 
     20 C           0.0717  -23.6586  -46.8028 C.2       10 UNK         0.5000 
     21 O          -0.4765  -24.6694  -47.2353 O.2       10 UNK        -0.5000 
     22 CA          1.5926  -23.6584  -46.5836 C.3       10 UNK         0.1400 
     23 CB          2.3140  -22.9455  -47.7379 C.3       10 UNK        -0.1800 
     24 N           1.9537  -23.0377  -45.3082 N.am      10 UNK        -0.5000 
     25 C           1.6857  -23.5688  -44.1062 C.2       9 UNK         0.5000 
     26 O           1.1435  -24.6627  -43.9471 O.2       9 UNK        -0.5000 
     27 CA          2.0428  -22.7104  -42.8782 C.3       9 UNK         0.1400 
     28 CB          3.5412  -22.8141  -42.5575 C.3       9 UNK        -0.1800 
     29 N           1.6779  -21.3030  -43.0519 N.am      9 UNK        -0.5000 
     30 C           0.4173  -20.8582  -43.1525 C.2       8 UNK         0.5000 
     31 O          -0.5706  -21.5865  -43.0642 O.2       8 UNK        -0.5000 
     32 CA          0.2241  -19.3581  -43.4519 C.3       8 UNK         0.1400 
     33 CB          0.1476  -18.5588  -42.1438 C.3       8 UNK        -0.1800 
     34 N           1.2473  -18.7801  -44.3319 N.am      8 UNK        -0.5000 
     35 C           1.5443  -19.2309  -45.5620 C.2       7 UNK         0.5000 
     36 O           0.9834  -20.2029  -46.0680 O.2       7 UNK        -0.5000 
     37 CA          2.6382  -18.5072  -46.3730 C.3       7 UNK         0.1400 
     38 CB          2.1215  -18.1437  -47.7725 C.3       7 UNK        -0.1800 
     39 N           3.1387  -17.2960  -45.7243 N.am      7 UNK        -0.5000 
     40 C           4.1139  -17.2612  -44.8042 C.2       6 UNK         0.5000 
     41 O           4.7139  -18.2632  -44.4145 O.2       6 UNK        -0.5000 
     42 CA          4.4634  -15.8855  -44.1943 C.3       6 UNK         0.1400 
     43 CB          5.7095  -15.2985  -44.8742 C.3       6 UNK        -0.1800 
     44 N           3.3736  -14.9099  -44.2803 N.am      6 UNK        -0.5000 
     45 C           2.1774  -15.0419  -43.6906 C.2       5 UNK         0.5000 
     46 O           1.9040  -15.9652  -42.9247 O.2       5 UNK        -0.5000 
     47 CA          1.0891  -14.0083  -44.0468 C.3       5 UNK         0.1400 
     48 CB          0.9214  -12.9969  -42.9037 C.3       5 UNK        -0.1800 
     49 N           1.3034  -13.2862  -45.3086 N.am      5 UNK        -0.5000 
     50 C           1.4011  -13.8490  -46.5247 C.2       4 UNK         0.5000 
     51 O           1.3955  -15.0676  -46.7004 O.2       4 UNK        -0.5000 
     52 CA          1.5556  -12.9095  -47.7378 C.3       4 UNK         0.1400 
     53 CB          0.7530  -13.4076  -48.9524 C.3       4 UNK        -0.1800 
     54 N           1.1176  -11.5513  -47.4223 N.am      4 UNK        -0.5000 
     55 C           1.8918  -10.4588  -47.3847 C.2       3 UNK         0.5000 
     56 O           3.1013  -10.4717  -47.6156 O.2       3 UNK        -0.5000 
     57 CA          1.2080   -9.1213  -47.0246 C.3       3 UNK         0.1400 
     58 CB          1.0135   -8.2634  -48.2839 C.3       3 UNK        -0.1800 
     59 N          -0.0877   -9.2903  -46.3614 N.am      3 UNK        -0.5000 
     60 C          -0.2452   -9.7614  -45.1151 C.2       2 UNK         0.5000 
     61 O           0.6981  -10.0184  -44.3677 O.2       2 UNK        -0.5000 
     62 CA         -1.6853  -10.0446  -44.6364 C.3       2 UNK         0.1400 
     63 CB         -2.2031   -8.8812  -43.7781 C.3       2 UNK        -0.1800 
     64 N          -2.6389  -10.2975  -45.7202 N.am      2 UNK        -0.5000 
     65 C          -2.5465  -11.2739  -46.6363 C.2       1 UNK         0.5000 
     66 O          -1.6493  -12.1154  -46.6329 O.2       1 UNK        -0.5000 
     67 C          -2.7347  -23.4155  -45.5415 C.2       11 UNK         0.5000 
     68 O          -3.6817  -24.0576  -45.9980 O.2       11 UNK        -0.5000 
     69 N          -2.2238  -23.6127  -44.3181 N.am      12 UNK        -0.5000 
     70 CA         -2.6976  -24.6279  -43.3789 C.3       12 UNK         0.1400 
     71 CB         -2.0149  -24.4292  -42.0171 C.3       12 UNK        -0.1800 
     72 C          -2.4883  -26.0632  -43.8952 C.2       12 UNK         0.5000 
     73 O          -3.4189  -26.8671  -43.8328 O.2       12 UNK        -0.5000 
     74 N          -1.2876  -26.3510  -44.4188 N.am      13 UNK        -0.5000 
     75 CA         -0.9092  -27.6584  -44.9616 C.3       13 UNK         0.1400 
     76 CB          0.5964  -27.6697  -45.2659 C.3       13 UNK        -0.1800 
     77 C          -1.7163  -28.0617  -46.2101 C.2       13 UNK         0.5000 
     78 O          -2.1132  -29.2214  -46.3298 O.2       13 UNK        -0.5000 
     79 N          -1.9567  -27.0973  -47.1070 N.am      14 UNK        -0.5000 
     80 CA         -2.7136  -27.2772  -48.3467 C.3       14 UNK         0.1400 
     81 CB         -2.2948  -26.1805  -49.3373 C.3       14 UNK        -0.1800 
     82 C          -4.2412  -27.2507  -48.1486 C.2       14 UNK         0.5000 
     83 O          -4.9651  -27.5220  -49.1061 O.2       14 UNK        -0.5000 
     84 N          -4.7079  -26.8906  -46.9433 N.am      15 UNK        -0.5000 
     85 CA         -6.1099  -26.6706  -46.5706 C.3       15 UNK         0.1400 
     86 CB         -6.9081  -27.9906  -46.6043 C.3       15 UNK        -0.1800 
     87 C          -6.7475  -25.5444  -47.4117 C.2       15 UNK         0.5000 
     88 O          -7.7919  -25.7355  -48.0358 O.2       15 UNK        -0.5000 
     89 N          -6.0551  -24.3982  -47.4323 N.am      16 UNK        -0.5000 
     90 CA         -6.3510  -23.1425  -48.1288 C.3       16 UNK         0.1400 
     91 CB         -7.7552  -22.6068  -47.7883 C.3       16 UNK        -0.1800 
     92 C          -6.0908  -23.1519  -49.6472 C.2       16 UNK         0.5000 
     93 O          -6.0855  -22.0780  -50.2503 O.2       16 UNK        -0.5000 
     94 N          -5.8267  -24.3232  -50.2454 N.am      17 UNK        -0.5000 
     95 CA         -5.6098  -24.4916  -51.6881 C.3       17 UNK         0.1400 
     96 CB         -5.5987  -25.9879  -52.0319 C.3       17 UNK        -0.1800 
     97 C          -4.3424  -23.7992  -52.2309 C.2       17 UNK         0.5000 
     98 O          -4.2614  -23.5511  -53.4344 O.2       17 UNK        -0.5000 
     99 N          -3.3935  -23.4651  -51.3420 N.am      18 UNK        -0.5000 
    100 CA        -2.1657  -22.7281  -51.6552 C.3       18 UNK         0.1400 
    101 CB        -1.2740  -22.6529  -50.4062 C.3       18 UNK        -0.1800 
    102 C         -2.4157  -21.3115  -52.2063 C.2       18 UNK         0.5000 
    103 O         -1.5771  -20.8095  -52.9540 O.2       18 UNK        -0.5000 
    104 N         -3.5702  -20.7115  -51.8713 N.am      19 UNK        -0.5000 
    105 CA        -4.0022  -19.3777  -52.3087 C.3       19 UNK         0.1400 
    106 CB        -5.3407  -19.0397  -51.6354 C.3       19 UNK        -0.1800 
    107 C         -4.1276  -19.2090  -53.8369 C.2       19 UNK         0.5000 
    108 O         -4.1461  -18.0773  -54.3217 O.2       19 UNK        -0.5000 
    109 N         -4.2045  -20.3282  -54.5694 N.am      20 UNK        -0.5000 
    110 CA        -4.2445  -20.3811  -56.0284 C.3       20 UNK         0.1400 
    111 CB        -4.6351  -21.8049  -56.4545 C.3       20 UNK        -0.1800 
    112 C         -2.9276  -19.9578  -56.7133 C.2       20 UNK         0.5000 
    113 O         -2.9591  -19.6667  -57.9104 O.2       20 UNK        -0.5000 
    114 N         -1.8037  -19.9386  -55.9796 N.am      21 UNK        -0.5000 
    115 CA        -0.4892  -19.5944  -56.5274 C.3       21 UNK         0.1400 
    116 CB         0.1754  -20.8518  -57.1159 C.3       21 UNK        -0.1800 
    117 C          0.4419  -18.9147  -55.5114 C.2       21 UNK         0.5000 
    118 O          1.1847  -18.0126  -55.9007 O.2       21 UNK        -0.5000 
    119 N          0.4146  -19.3605  -54.2478 N.am      22 UNK        -0.5000 
    120 CA         1.2957  -18.9160  -53.1503 C.3       22 UNK         0.1400 
    121 C          2.8154  -19.2059  -53.3663 C.2       22 UNK         0.5000 
    122 N          3.1915  -20.1407  -54.2309 N.am      22 UNK        -0.7600 
    123 O          3.6704  -18.6056  -52.7206 O.2       22 UNK        -0.5000 
    124 C124        1.0110  -17.4566  -52.6942 C.3       23 UNK        -0.0398 
    125 S125       -0.6576  -17.2759  -51.9794 S.3       23 UNK        -0.2404 
    126 C126       -0.2730  -17.6039  -50.2330 C.3       23 UNK        -0.0205 
    127 H127       -5.5122   -7.7949  -48.3601 H         1 UNK         0.0600 
    128 H128       -4.3713   -7.2477  -49.5922 H         1 UNK         0.0600 
    129 H129       -4.1208   -6.8093  -47.8990 H         1 UNK         0.0600 
    130 H130       -5.2353   -9.9422  -47.8384 H         1 UNK         0.3000 
    131 H131       -3.0291  -11.4663  -48.6933 H         1 UNK         0.0600 
    132 H132       -4.7702  -12.6913  -46.5452 H         1 UNK         0.0800 
    133 H133       -5.6191  -12.0849  -47.9263 H         1 UNK         0.0800 
    134 H134       -4.2105  -15.1670  -46.5446 H         1 UNK         0.0800 
    135 H135       -2.6295  -14.5114  -46.9042 H         1 UNK         0.0800 
    136 H136       -1.3632  -15.4588  -48.9666 H         1 UNK         0.1150 
    137 H137       -1.9192  -19.6625  -49.5503 H         1 UNK         0.1150 
    138 H138       -4.6828  -17.4518  -47.1283 H         1 UNK         0.1150 
    139 H139       -5.2201  -19.7976  -48.3381 H         1 UNK         0.0800 
    140 H140       -3.8225  -20.7849  -48.6748 H         1 UNK         0.0800 
    141 H141       -2.1753  -20.7306  -44.9997 H         1 UNK         0.0800 
    142 H142       -1.7860  -20.2088  -46.6089 H         1 UNK         0.0800 
    143 H143       -2.3786  -22.5422  -47.4497 H         1 UNK         0.0600 
    144 H144       -0.0254  -21.7464  -46.1492 H         1 UNK         0.3000 
    145 H145        1.9287  -24.6971  -46.5645 H         1 UNK         0.0600 
    146 H146        3.3958  -22.9826  -47.6092 H         1 UNK         0.0600 
    147 H147        2.0837  -23.4224  -48.6915 H         1 UNK         0.0600 
    148 H148        2.0216  -21.8985  -47.8193 H         1 UNK         0.0600 
    149 H149        2.3370  -22.1052  -45.3518 H         1 UNK         0.3000 
    150 H150        1.4841  -23.1026  -42.0256 H         1 UNK         0.0600 
    151 H151        3.8377  -23.8538  -42.4122 H         1 UNK         0.0600 
    152 H152        3.7858  -22.2765  -41.6412 H         1 UNK         0.0600 
    153 H153        4.1564  -22.4059  -43.3604 H         1 UNK         0.0600 
    154 H154        2.4326  -20.6383  -43.1403 H         1 UNK         0.3000 
    155 H155       -0.7339  -19.2491  -43.9615 H         1 UNK         0.0600 
    156 H156        1.1123  -18.5227  -41.6363 H         1 UNK         0.0600 
    157 H157       -0.5723  -19.0009  -41.4535 H         1 UNK         0.0600 
    158 H158       -0.1753  -17.5344  -42.3286 H         1 UNK         0.0600 
    159 H159        1.7280  -17.9598  -43.9846 H         1 UNK         0.3000 
    160 H160        3.4634  -19.2114  -46.4967 H         1 UNK         0.0600 
    161 H161        1.2285  -17.5214  -47.7118 H         1 UNK         0.0600 
    162 H162        1.8608  -19.0391  -48.3378 H         1 UNK         0.0600 
    163 H163        2.8724  -17.6029  -48.3486 H         1 UNK         0.0600 
    164 H164        2.6639  -16.4339  -45.9766 H         1 UNK         0.3000 
    165 H165        4.6896  -16.0438  -43.1378 H         1 UNK         0.0600 
    166 H166        6.0147  -14.3647  -44.4015 H         1 UNK         0.0600 
    167 H167        6.5532  -15.9866  -44.8055 H         1 UNK         0.0600 
    168 H168        5.5337  -15.0991  -45.9321 H         1 UNK         0.0600 
    169 H169        3.5154  -14.1225  -44.8951 H         1 UNK         0.3000 
    170 H170        0.1535  -14.5619  -44.1478 H         1 UNK         0.0600 
    171 H171        0.7874  -13.5020  -41.9461 H         1 UNK         0.0600 
    172 H172        1.7905  -12.3442  -42.8134 H         1 UNK         0.0600 
    173 H173        0.0441  -12.3707  -43.0591 H         1 UNK         0.0600 
    174 H174        1.3265  -12.2776  -45.2481 H         1 UNK         0.3000 
    175 H175        2.6140  -12.9200  -48.0044 H         1 UNK         0.0600 
    176 H176       -0.3172  -13.4146  -48.7447 H         1 UNK         0.0600 
    177 H177        0.9185  -12.7684  -49.8197 H         1 UNK         0.0600 
    178 H178        1.0450  -14.4191  -49.2375 H         1 UNK         0.0600 
    179 H179        0.1347  -11.4685  -47.1803 H         1 UNK         0.3000 
    180 H180        1.8732   -8.5844  -46.3451 H         1 UNK         0.0600 
    181 H181        0.5683   -7.2986  -48.0404 H         1 UNK         0.0600 
    182 H182        0.3666   -8.7577  -49.0098 H         1 UNK         0.0600 
    183 H183        1.9674   -8.0667  -48.7749 H         1 UNK         0.0600 
    184 H184       -0.9095   -9.1130  -46.9275 H         1 UNK         0.3000 
    185 H185       -1.6523  -10.9411  -44.0151 H         1 UNK         0.0600 
    186 H186       -3.1836   -9.1058  -43.3577 H         1 UNK         0.0600 
    187 H187       -1.5310   -8.6826  -42.9421 H         1 UNK         0.0600 
    188 H188       -2.2875   -7.9609  -44.3576 H         1 UNK         0.0600 
    189 H189       -3.4001   -9.6405  -45.8098 H         1 UNK         0.3000 
    190 H190       -1.4689  -23.0143  -43.9943 H         1 UNK         0.3000 
    191 H191       -3.7708  -24.4785  -43.2430 H         1 UNK         0.0600 
    192 H192       -2.3585  -25.1707  -41.2948 H         1 UNK         0.0600 
    193 H193       -2.2394  -23.4452  -41.6051 H         1 UNK         0.0600 
    194 H194       -0.9308  -24.5191  -42.0915 H         1 UNK         0.0600 
    195 H195       -0.5633  -25.6395  -44.4065 H         1 UNK         0.3000 
    196 H196       -1.1028  -28.4057  -44.1893 H         1 UNK         0.0600 
    197 H197        0.8617  -26.9157  -46.0075 H         1 UNK         0.0600 
    198 H198        1.1817  -27.4753  -44.3671 H         1 UNK         0.0600 
    199 H199        0.9103  -28.6391  -45.6550 H         1 UNK         0.0600 
    200 H200       -1.5426  -26.1783  -46.9642 H         1 UNK         0.3000 
    201 H201       -2.4549  -28.2452  -48.7807 H         1 UNK         0.0600 
    202 H202       -2.5740  -25.1919  -48.9715 H         1 UNK         0.0600 
    203 H203       -2.7673  -26.3216  -50.3090 H         1 UNK         0.0600 
    204 H204       -1.2171  -26.1867  -49.5010 H         1 UNK         0.0600 
    205 H205       -4.0274  -26.6631  -46.2303 H         1 UNK         0.3000 
    206 H206       -6.1008  -26.3184  -45.5380 H         1 UNK         0.0600 
    207 H207       -6.4338  -28.7520  -45.9851 H         1 UNK         0.0600 
    208 H208       -7.9183  -27.8428  -46.2209 H         1 UNK         0.0600 
    209 H209       -6.9991  -28.3893  -47.6149 H         1 UNK         0.0600 
    210 H210       -5.1894  -24.3741  -46.8923 H         1 UNK         0.3000 
    211 H211       -5.6347  -22.4335  -47.7216 H         1 UNK         0.0600 
    212 H212       -7.8884  -21.5960  -48.1758 H         1 UNK         0.0600 
    213 H213       -7.9100  -22.5624  -46.7103 H         1 UNK         0.0600 
    214 H214       -8.5440  -23.2236  -48.2191 H         1 UNK         0.0600 
    215 H215       -5.8550  -25.1671  -49.6890 H         1 UNK         0.3000 
    216 H216       -6.4616  -24.0382  -52.1992 H         1 UNK         0.0600 
    217 H217       -4.7457  -26.4987  -51.5868 H         1 UNK         0.0600 
    218 H218       -5.5419  -26.1394  -53.1105 H         1 UNK         0.0600 
    219 H219       -6.5054  -26.4820  -51.6820 H         1 UNK         0.0600 
    220 H220       -3.5485  -23.7062  -50.3758 H         1 UNK         0.3000 
    221 H221       -1.6305  -23.2875  -52.4252 H         1 UNK         0.0600 
    222 H222       -1.0057  -23.6447  -50.0441 H         1 UNK         0.0600 
    223 H223       -1.7650  -22.1160  -49.5964 H         1 UNK         0.0600 
    224 H224       -0.3415  -22.1296  -50.6229 H         1 UNK         0.0600 
    225 H225       -4.2285  -21.2208  -51.2952 H         1 UNK         0.3000 
    226 H226       -3.2568  -18.6599  -51.9646 H         1 UNK         0.0600 
    227 H227       -6.1176  -19.7565  -51.9040 H         1 UNK         0.0600 
    228 H228       -5.2490  -19.0350  -50.5516 H         1 UNK         0.0600 
    229 H229       -5.6899  -18.0491  -51.9295 H         1 UNK         0.0600 
    230 H230       -4.1840  -21.2183  -54.0889 H         1 UNK         0.3000 
    231 H231       -5.0237  -19.6965  -56.3696 H         1 UNK         0.0600 
    232 H232       -3.8930  -22.5369  -56.1327 H         1 UNK         0.0600 
    233 H233       -4.7229  -21.8805  -57.5391 H         1 UNK         0.0600 
    234 H234       -5.5966  -22.0950  -56.0303 H         1 UNK         0.0600 
    235 H235       -1.8554  -20.1592  -54.9922 H         1 UNK         0.3000 
    236 H236       -0.6202  -18.8723  -57.3366 H         1 UNK         0.0600 
    237 H237       -0.4126  -21.2619  -57.9370 H         1 UNK         0.0600 
    238 H238        1.1665  -20.6244  -57.5107 H         1 UNK         0.0600 
    239 H239        0.2900  -21.6333  -56.3639 H         1 UNK         0.0600 
    240 H240       -0.2573  -20.0717  -53.9730 H         1 UNK         0.3000 
    241 H241        1.0385  -19.5629  -52.3110 H         1 UNK         0.0600 
    242 H242        4.1730  -20.3311  -54.3587 H         1 UNK         0.3800 
    243 H243        2.5072  -20.6574  -54.7588 H         1 UNK         0.3800 
    244 H244        1.1121  -16.7641  -53.5301 H         1 UNK         0.0800 
    245 H245        1.7346  -17.1247  -51.9481 H         1 UNK         0.0800 
    246 H246        0.2094  -18.5783  -50.1457 H         1 UNK         0.0800 
    247 H247        0.4487  -16.8648  -49.8826 H         1 UNK         0.0800 
@<TRIPOS>BOND
     1    1    2 1    
     2    1  127 1    
     3    1  128 1    
     4    1  129 1    
     5    2    3 2    
     6    2    4 am   BACKBONE|DICT|INTERRES
     7    4    5 1    
     8    4  130 1    
     9    5    6 1    
    10    5   65 1    
    11    5  131 1    
    12    6    7 1    
    13    6  132 1    
    14    6  133 1    
    15    7    8 1    
    16    8    9 1    
    17    8  134 1    
    18    8  135 1    
    19    9   10 ar   
    20    9   14 ar   
    21   10   11 ar   
    22   10  136 1    
    23   11   12 ar   
    24   11  126 1    
    25   12   13 ar   
    26   12  137 1    
    27   13   14 ar   
    28   13   15 1    
    29   14  138 1    
    30   15   16 1    
    31   15  139 1    
    32   15  140 1    
    33   16   17 1    
    34   17   18 1    
    35   17  141 1    
    36   17  142 1    
    37   18   19 1    
    38   18   67 1    
    39   18  143 1    
    40   19   20 am   BACKBONE|DICT|INTERRES
    41   19  144 1    
    42   20   21 2    
    43   20   22 1    
    44   22   23 1    
    45   22   24 1    
    46   22  145 1    
    47   23  146 1    
    48   23  147 1    
    49   23  148 1    
    50   24   25 am   BACKBONE|DICT|INTERRES
    51   24  149 1    
    52   25   26 2    
    53   25   27 1    
    54   27   28 1    
    55   27   29 1    
    56   27  150 1    
    57   28  151 1    
    58   28  152 1    
    59   28  153 1    
    60   29   30 am   BACKBONE|DICT|INTERRES
    61   29  154 1    
    62   30   31 2    
    63   30   32 1    
    64   32   33 1    
    65   32   34 1    
    66   32  155 1    
    67   33  156 1    
    68   33  157 1    
    69   33  158 1    
    70   34   35 am   BACKBONE|DICT|INTERRES
    71   34  159 1    
    72   35   36 2    
    73   35   37 1    
    74   37   38 1    
    75   37   39 1    
    76   37  160 1    
    77   38  161 1    
    78   38  162 1    
    79   38  163 1    
    80   39   40 am   BACKBONE|DICT|INTERRES
    81   39  164 1    
    82   40   41 2    
    83   40   42 1    
    84   42   43 1    
    85   42   44 1    
    86   42  165 1    
    87   43  166 1    
    88   43  167 1    
    89   43  168 1    
    90   44   45 am   BACKBONE|DICT|INTERRES
    91   44  169 1    
    92   45   46 2    
    93   45   47 1    
    94   47   48 1    
    95   47   49 1    
    96   47  170 1    
    97   48  171 1    
    98   48  172 1    
    99   48  173 1    
   100   49   50 am   BACKBONE|DICT|INTERRES
   101   49  174 1    
   102   50   51 2    
   103   50   52 1    
   104   52   53 1    
   105   52   54 1    
   106   52  175 1    
   107   53  176 1    
   108   53  177 1    
   109   53  178 1    
   110   54   55 am   BACKBONE|DICT|INTERRES
   111   54  179 1    
   112   55   56 2    
   113   55   57 1    
   114   57   58 1    
   115   57   59 1    
   116   57  180 1    
   117   58  181 1    
   118   58  182 1    
   119   58  183 1    
   120   59   60 am   BACKBONE|DICT|INTERRES
   121   59  184 1    
   122   60   61 2    
   123   60   62 1    
   124   62   63 1    
   125   62   64 1    
   126   62  185 1    
   127   63  186 1    
   128   63  187 1    
   129   63  188 1    
   130   64   65 am   BACKBONE|DICT|INTERRES
   131   64  189 1    
   132   65   66 2    
   133   67   68 2    
   134   67   69 am   BACKBONE|DICT|INTERRES
   135   69   70 1    
   136   69  190 1    
   137   70   71 1    
   138   70   72 1    
   139   70  191 1    
   140   71  192 1    
   141   71  193 1    
   142   71  194 1    
   143   72   73 2    
   144   72   74 am   BACKBONE|DICT|INTERRES
   145   74   75 1    
   146   74  195 1    
   147   75   76 1    
   148   75   77 1    
   149   75  196 1    
   150   76  197 1    
   151   76  198 1    
   152   76  199 1    
   153   77   78 2    
   154   77   79 am   BACKBONE|DICT|INTERRES
   155   79   80 1    
   156   79  200 1    
   157   80   81 1    
   158   80   82 1    
   159   80  201 1    
   160   81  202 1    
   161   81  203 1    
   162   81  204 1    
   163   82   83 2    
   164   82   84 am   BACKBONE|DICT|INTERRES
   165   84   85 1    
   166   84  205 1    
   167   85   86 1    
   168   85   87 1    
   169   85  206 1    
   170   86  207 1    
   171   86  208 1    
   172   86  209 1    
   173   87   88 2    
   174   87   89 am   BACKBONE|DICT|INTERRES
   175   89   90 1    
   176   89  210 1    
   177   90   91 1    
   178   90   92 1    
   179   90  211 1    
   180   91  212 1    
   181   91  213 1    
   182   91  214 1    
   183   92   93 2    
   184   92   94 am   BACKBONE|DICT|INTERRES
   185   94   95 1    
   186   94  215 1    
   187   95   96 1    
   188   95   97 1    
   189   95  216 1    
   190   96  217 1    
   191   96  218 1    
   192   96  219 1    
   193   97   98 2    
   194   97   99 am   BACKBONE|DICT|INTERRES
   195   99  100 1    
   196   99  220 1    
   197  100  101 1    
   198  100  102 1    
   199  100  221 1    
   200  101  222 1    
   201  101  223 1    
   202  101  224 1    
   203  102  103 2    
   204  102  104 am   BACKBONE|DICT|INTERRES
   205  104  105 1    
   206  104  225 1    
   207  105  106 1    
   208  105  107 1    
   209  105  226 1    
   210  106  227 1    
   211  106  228 1    
   212  106  229 1    
   213  107  108 2    
   214  107  109 am   BACKBONE|DICT|INTERRES
   215  109  110 1    
   216  109  230 1    
   217  110  111 1    
   218  110  112 1    
   219  110  231 1    
   220  111  232 1    
   221  111  233 1    
   222  111  234 1    
   223  112  113 2    
   224  112  114 am   BACKBONE|DICT|INTERRES
   225  114  115 1    
   226  114  235 1    
   227  115  116 1    
   228  115  117 1    
   229  115  236 1    
   230  116  237 1    
   231  116  238 1    
   232  116  239 1    
   233  117  118 2    
   234  117  119 am   BACKBONE|DICT|INTERRES
   235  119  120 1    
   236  119  240 1    
   237  120  121 1    
   238  120  124 1    
   239  120  241 1    
   240  121  122 am   BACKBONE|DICT|INTERRES
   241  121  123 2    
   242  122  242 1    
   243  122  243 1    
   244  124  125 1    
   245  124  244 1    
   246  124  245 1    
   247  125  126 1    
   248  126  246 1    
   249  126  247 1    
@<TRIPOS>SUBSTRUCTURE
     1 UNK         1 GROUP             0       ****    0 ROOT    
