@<TRIPOS>MOLECULE
3R540
247   249    1
SMALL
USER_CHARGES


@<TRIPOS>ATOM
      1 CA         -2.2006   -8.9246  -48.7273 C.3       0 UNK        -0.1800 
      2 C          -1.3959  -10.0254  -48.0520 C.2       0 UNK         0.5000 
      3 O          -0.4277   -9.7337  -47.3502 O.2       0 UNK        -0.5000 
      4 N          -1.8017  -11.2893  -48.2439 N.am      1 UNK        -0.5000 
      5 CA         -1.1403  -12.4892  -47.7038 C.3       1 UNK         0.1400 
      6 C6         -1.7432  -13.7941  -48.2964 C.3       23 UNK        -0.0398 
      7 S7         -0.4649  -14.9778  -48.8369 S.3       23 UNK        -0.2404 
      8 C8         -1.4873  -16.1558  -49.7775 C.3       23 UNK        -0.0205 
      9 C9         -0.6545  -17.0194  -50.7129 C.ar      23 UNK        -0.0193 
     10 C10         0.0310  -16.4218  -51.7747 C.ar      23 UNK        -0.1150 
     11 C11         0.7642  -17.1946  -52.6777 C.ar      23 UNK        -0.0193 
     12 C12         0.7985  -18.5819  -52.5188 C.ar      23 UNK        -0.1150 
     13 C13         0.1061  -19.1955  -51.4712 C.ar      23 UNK        -0.0193 
     14 C14        -0.6110  -18.4097  -50.5620 C.ar      23 UNK        -0.1150 
     15 C15         0.1150  -20.7109  -51.3561 C.3       23 UNK        -0.0205 
     16 S16         1.6762  -21.3295  -50.6515 S.3       23 UNK        -0.2404 
     17 C17         1.3887  -21.1023  -48.8644 C.3       23 UNK        -0.0398 
     18 CA          1.0114  -22.4228  -48.1474 C.3       11 UNK         0.1400 
     19 N           1.1442  -22.3010  -46.6977 N.am      11 UNK        -0.5000 
     20 C           1.2131  -23.3316  -45.8458 C.2       10 UNK         0.5000 
     21 O           1.2187  -24.5119  -46.1954 O.2       10 UNK        -0.5000 
     22 CA          1.2794  -22.9830  -44.3463 C.3       10 UNK         0.1400 
     23 CB          2.7246  -22.6849  -43.9204 C.3       10 UNK        -0.1800 
     24 N           0.4143  -21.8580  -43.9866 N.am      10 UNK        -0.5000 
     25 C          -0.9235  -21.8816  -44.0745 C.2       9 UNK         0.5000 
     26 O          -1.5686  -22.8716  -44.4165 O.2       9 UNK        -0.5000 
     27 CA         -1.6713  -20.5752  -43.7607 C.3       9 UNK         0.1400 
     28 CB         -1.8675  -20.4153  -42.2465 C.3       9 UNK        -0.1800 
     29 N          -1.0045  -19.3907  -44.3007 N.am      9 UNK        -0.5000 
     30 C          -0.8154  -19.1490  -45.6062 C.2       8 UNK         0.5000 
     31 O          -1.1992  -19.8944  -46.5057 O.2       8 UNK        -0.5000 
     32 CA         -0.0090  -17.8911  -45.9658 C.3       8 UNK         0.1400 
     33 CB         -0.8525  -16.6279  -45.7477 C.3       8 UNK        -0.1800 
     34 N           1.2318  -17.7990  -45.1976 N.am      8 UNK        -0.5000 
     35 C           2.2161  -18.7091  -45.2201 C.2       7 UNK         0.5000 
     36 O           2.2131  -19.7054  -45.9421 O.2       7 UNK        -0.5000 
     37 CA          3.3724  -18.4990  -44.2296 C.3       7 UNK         0.1400 
     38 CB          4.4243  -17.5402  -44.8071 C.3       7 UNK        -0.1800 
     39 N           2.8938  -17.9962  -42.9422 N.am      7 UNK        -0.5000 
     40 C           2.2067  -18.7287  -42.0545 C.2       6 UNK         0.5000 
     41 O           1.9368  -19.9192  -42.2132 O.2       6 UNK        -0.5000 
     42 CA          1.7018  -17.9944  -40.7983 C.3       6 UNK         0.1400 
     43 CB          2.8224  -17.8654  -39.7558 C.3       6 UNK        -0.1800 
     44 N           1.1620  -16.6673  -41.1004 N.am      6 UNK        -0.5000 
     45 C           0.0508  -16.4552  -41.8185 C.2       5 UNK         0.5000 
     46 O          -0.6523  -17.3599  -42.2669 O.2       5 UNK        -0.5000 
     47 CA         -0.3250  -14.9913  -42.1180 C.3       5 UNK         0.1400 
     48 CB         -1.1979  -14.4293  -40.9860 C.3       5 UNK        -0.1800 
     49 N           0.8077  -14.0885  -42.3542 N.am      5 UNK        -0.5000 
     50 C           1.7964  -14.2804  -43.2414 C.2       4 UNK         0.5000 
     51 O           1.9378  -15.3147  -43.8942 O.2       4 UNK        -0.5000 
     52 CA          2.7536  -13.0965  -43.4502 C.3       4 UNK         0.1400 
     53 CB          3.8124  -13.3545  -44.5377 C.3       4 UNK        -0.1800 
     54 N           1.9545  -11.9338  -43.8167 N.am      4 UNK        -0.5000 
     55 C           2.1046  -10.6935  -43.3352 C.2       3 UNK         0.5000 
     56 O           3.0131  -10.3634  -42.5721 O.2       3 UNK        -0.5000 
     57 CA          1.0519   -9.6437  -43.7552 C.3       3 UNK         0.1400 
     58 CB          1.6059   -8.7468  -44.8721 C.3       3 UNK        -0.1800 
     59 N          -0.2141  -10.2352  -44.1988 N.am      3 UNK        -0.5000 
     60 C          -1.0458  -10.9330  -43.4092 C.2       2 UNK         0.5000 
     61 O          -0.8872  -11.0401  -42.1931 O.2       2 UNK        -0.5000 
     62 CA         -2.2253  -11.6731  -44.0768 C.3       2 UNK         0.1400 
     63 CB         -3.5480  -10.9485  -43.7859 C.3       2 UNK        -0.1800 
     64 N          -2.0957  -11.8540  -45.5254 N.am      2 UNK        -0.5000 
     65 C          -1.1188  -12.5228  -46.1574 C.2       1 UNK         0.5000 
     66 O          -0.2010  -13.0926  -45.5694 O.2       1 UNK        -0.5000 
     67 C          -0.3956  -22.9120  -48.5483 C.2       11 UNK         0.5000 
     68 O          -0.5096  -23.8887  -49.2883 O.2       11 UNK        -0.5000 
     69 N          -1.4309  -22.2008  -48.0850 N.am      12 UNK        -0.5000 
     70 CA         -2.8206  -22.4234  -48.4626 C.3       12 UNK         0.1400 
     71 CB         -3.5711  -21.0766  -48.4520 C.3       12 UNK        -0.1800 
     72 C          -3.4724  -23.4874  -47.5641 C.2       12 UNK         0.5000 
     73 O          -3.4978  -24.6627  -47.9324 O.2       12 UNK        -0.5000 
     74 N          -4.0108  -23.0471  -46.4188 N.am      13 UNK        -0.5000 
     75 CA         -4.8925  -23.7975  -45.5213 C.3       13 UNK         0.1400 
     76 CB         -5.2316  -22.9234  -44.3038 C.3       13 UNK        -0.1800 
     77 C          -4.3633  -25.1699  -45.0696 C.2       13 UNK         0.5000 
     78 O          -5.1147  -26.1447  -45.1044 O.2       13 UNK        -0.5000 
     79 N          -3.0822  -25.2347  -44.6865 N.am      14 UNK        -0.5000 
     80 CA         -2.4198  -26.4542  -44.2152 C.3       14 UNK         0.1400 
     81 CB         -1.0630  -26.0870  -43.5999 C.3       14 UNK        -0.1800 
     82 C          -2.2389  -27.5236  -45.3102 C.2       14 UNK         0.5000 
     83 O          -2.1830  -28.7113  -44.9894 O.2       14 UNK        -0.5000 
     84 N          -2.1665  -27.0910  -46.5751 N.am      15 UNK        -0.5000 
     85 CA         -2.0803  -27.9573  -47.7515 C.3       15 UNK         0.1400 
     86 CB         -1.1669  -27.2788  -48.7846 C.3       15 UNK        -0.1800 
     87 C          -3.4638  -28.2415  -48.3698 C.2       15 UNK         0.5000 
     88 O          -3.5446  -29.0246  -49.3170 O.2       15 UNK        -0.5000 
     89 N          -4.5127  -27.5796  -47.8545 N.am      16 UNK        -0.5000 
     90 CA         -5.8771  -27.5067  -48.3889 C.3       16 UNK         0.1400 
     91 CB         -6.5759  -28.8805  -48.3203 C.3       16 UNK        -0.1800 
     92 C          -5.9326  -26.8624  -49.7933 C.2       16 UNK         0.5000 
     93 O          -6.7924  -27.2138  -50.6037 O.2       16 UNK        -0.5000 
     94 N          -5.0076  -25.9308  -50.0524 N.am      17 UNK        -0.5000 
     95 CA         -4.8860  -25.1685  -51.2900 C.3       17 UNK         0.1400 
     96 CB         -3.3957  -25.0865  -51.6620 C.3       17 UNK        -0.1800 
     97 C          -5.4891  -23.7645  -51.1150 C.2       17 UNK         0.5000 
     98 O          -5.7554  -23.3317  -49.9911 O.2       17 UNK        -0.5000 
     99 N          -5.6927  -23.0716  -52.2393 N.am      18 UNK        -0.5000 
    100 CA        -6.1681  -21.6907  -52.2788 C.3       18 UNK         0.1400 
    101 CB        -6.7520  -21.4172  -53.6750 C.3       18 UNK        -0.1800 
    102 C         -5.0353  -20.6925  -51.9798 C.2       18 UNK         0.5000 
    103 O         -3.8650  -20.9883  -52.2260 O.2       18 UNK        -0.5000 
    104 N         -5.4121  -19.4855  -51.5410 N.am      19 UNK        -0.5000 
    105 CA        -4.5065  -18.3379  -51.4065 C.3       19 UNK         0.1400 
    106 CB        -5.1723  -17.2839  -50.5085 C.3       19 UNK        -0.1800 
    107 C         -4.1036  -17.7248  -52.7666 C.2       19 UNK         0.5000 
    108 O         -3.1465  -16.9571  -52.8288 O.2       19 UNK        -0.5000 
    109 N         -4.8376  -18.0742  -53.8309 N.am      20 UNK        -0.5000 
    110 CA        -4.5815  -17.6669  -55.2123 C.3       20 UNK         0.1400 
    111 CB        -5.9365  -17.4327  -55.9016 C.3       20 UNK        -0.1800 
    112 C         -3.7432  -18.7013  -55.9932 C.2       20 UNK         0.5000 
    113 O         -3.5407  -18.5173  -57.1945 O.2       20 UNK        -0.5000 
    114 N         -3.2829  -19.7750  -55.3290 N.am      21 UNK        -0.5000 
    115 CA        -2.5966  -20.9231  -55.9361 C.3       21 UNK         0.1400 
    116 CB        -2.3351  -21.9878  -54.8601 C.3       21 UNK        -0.1800 
    117 C         -1.2954  -20.5925  -56.6954 C.2       21 UNK         0.5000 
    118 O         -0.9262  -21.3423  -57.6005 O.2       21 UNK        -0.5000 
    119 N         -0.6381  -19.4812  -56.3407 N.am      22 UNK        -0.5000 
    120 CA         0.5091  -18.9285  -57.0780 C.3       22 UNK         0.1400 
    121 C          0.1465  -18.1900  -58.4034 C.2       22 UNK         0.5000 
    122 N         -1.1215  -17.9618  -58.7267 N.am      22 UNK        -0.7600 
    123 O          1.0389  -17.8313  -59.1673 O.2       22 UNK        -0.5000 
    124 C124        1.4312  -18.0809  -56.1662 C.3       23 UNK        -0.0398 
    125 S125        0.6131  -16.6406  -55.3916 S.3       23 UNK        -0.2404 
    126 C126        1.5174  -16.5225  -53.8154 C.3       23 UNK        -0.0205 
    127 H127       -3.0321   -9.3264  -49.3066 H         1 UNK         0.0600 
    128 H128       -1.5615   -8.3531  -49.4003 H         1 UNK         0.0600 
    129 H129       -2.6047   -8.2432  -47.9787 H         1 UNK         0.0600 
    130 H130       -2.6100  -11.4569  -48.8262 H         1 UNK         0.3000 
    131 H131       -0.0972  -12.4107  -48.0184 H         1 UNK         0.0600 
    132 H132       -2.3485  -13.5632  -49.1741 H         1 UNK         0.0800 
    133 H133       -2.4225  -14.2915  -47.6010 H         1 UNK         0.0800 
    134 H134       -2.0590  -16.7711  -49.0811 H         1 UNK         0.0800 
    135 H135       -2.2134  -15.6104  -50.3815 H         1 UNK         0.0800 
    136 H136       -0.0145  -15.3491  -51.8992 H         1 UNK         0.1150 
    137 H137        1.3587  -19.1913  -53.2124 H         1 UNK         0.1150 
    138 H138       -1.1522  -18.8812  -49.7537 H         1 UNK         0.1150 
    139 H139       -0.7373  -21.0600  -50.7719 H         1 UNK         0.0800 
    140 H140       -0.0096  -21.1433  -52.3495 H         1 UNK         0.0800 
    141 H141        0.6460  -20.3228  -48.6881 H         1 UNK         0.0800 
    142 H142        2.3208  -20.7171  -48.4494 H         1 UNK         0.0800 
    143 H143        1.7245  -23.1860  -48.4676 H         1 UNK         0.0600 
    144 H144        1.2121  -21.3580  -46.3268 H         1 UNK         0.3000 
    145 H145        0.9412  -23.8539  -43.7834 H         1 UNK         0.0600 
    146 H146        2.7911  -22.5093  -42.8467 H         1 UNK         0.0600 
    147 H147        3.3806  -23.5245  -44.1534 H         1 UNK         0.0600 
    148 H148        3.1224  -21.8072  -44.4292 H         1 UNK         0.0600 
    149 H149        0.8719  -21.0204  -43.6444 H         1 UNK         0.3000 
    150 H150       -2.6571  -20.6405  -44.2254 H         1 UNK         0.0600 
    151 H151       -2.3699  -21.2857  -41.8224 H         1 UNK         0.0600 
    152 H152       -2.4806  -19.5431  -42.0194 H         1 UNK         0.0600 
    153 H153       -0.9150  -20.2979  -41.7280 H         1 UNK         0.0600 
    154 H154       -0.6867  -18.7034  -43.6220 H         1 UNK         0.3000 
    155 H155        0.2593  -17.9464  -47.0231 H         1 UNK         0.0600 
    156 H156       -0.2657  -15.7290  -45.9321 H         1 UNK         0.0600 
    157 H157       -1.7059  -16.6105  -46.4260 H         1 UNK         0.0600 
    158 H158       -1.2444  -16.5668  -44.7341 H         1 UNK         0.0600 
    159 H159        1.3510  -16.9773  -44.6107 H         1 UNK         0.3000 
    160 H160        3.8531  -19.4650  -44.0625 H         1 UNK         0.0600 
    161 H161        4.0016  -16.5611  -45.0325 H         1 UNK         0.0600 
    162 H162        4.8403  -17.9359  -45.7344 H         1 UNK         0.0600 
    163 H163        5.2529  -17.3975  -44.1134 H         1 UNK         0.0600 
    164 H164        2.9859  -17.0021  -42.7856 H         1 UNK         0.3000 
    165 H165        0.9002  -18.5953  -40.3632 H         1 UNK         0.0600 
    166 H166        2.4520  -17.4200  -38.8323 H         1 UNK         0.0600 
    167 H167        3.2327  -18.8437  -39.5018 H         1 UNK         0.0600 
    168 H168        3.6450  -17.2488  -40.1202 H         1 UNK         0.0600 
    169 H169        1.6850  -15.8692  -40.7717 H         1 UNK         0.3000 
    170 H170       -0.9211  -14.9904  -43.0317 H         1 UNK         0.0600 
    171 H171       -2.0504  -15.0808  -40.7883 H         1 UNK         0.0600 
    172 H172       -0.6364  -14.3318  -40.0561 H         1 UNK         0.0600 
    173 H173       -1.5977  -13.4487  -41.2406 H         1 UNK         0.0600 
    174 H174        0.7647  -13.1960  -41.8824 H         1 UNK         0.3000 
    175 H175        3.2632  -12.9270  -42.4997 H         1 UNK         0.0600 
    176 H176        4.4406  -14.2067  -44.2768 H         1 UNK         0.0600 
    177 H177        3.3517  -13.5651  -45.5039 H         1 UNK         0.0600 
    178 H178        4.4686  -12.4929  -44.6603 H         1 UNK         0.0600 
    179 H179        1.1652  -12.1354  -44.4246 H         1 UNK         0.3000 
    180 H180        0.8451   -9.0182  -42.8844 H         1 UNK         0.0600 
    181 H181        1.8428   -9.3225  -45.7677 H         1 UNK         0.0600 
    182 H182        2.5201   -8.2444  -44.5533 H         1 UNK         0.0600 
    183 H183        0.8898   -7.9734  -45.1506 H         1 UNK         0.0600 
    184 H184       -0.4078  -10.1861  -45.1924 H         1 UNK         0.3000 
    185 H185       -2.2731  -12.6671  -43.6277 H         1 UNK         0.0600 
    186 H186       -3.6999  -10.8256  -42.7126 H         1 UNK         0.0600 
    187 H187       -3.5688   -9.9553  -44.2363 H         1 UNK         0.0600 
    188 H188       -4.3996  -11.5106  -44.1695 H         1 UNK         0.0600 
    189 H189       -2.7907  -11.3935  -46.0948 H         1 UNK         0.3000 
    190 H190       -1.2582  -21.4171  -47.4571 H         1 UNK         0.3000 
    191 H191       -2.8594  -22.7937  -49.4880 H         1 UNK         0.0600 
    192 H192       -3.5379  -20.5842  -47.4805 H         1 UNK         0.0600 
    193 H193       -4.6203  -21.2108  -48.7168 H         1 UNK         0.0600 
    194 H194       -3.1421  -20.3912  -49.1824 H         1 UNK         0.0600 
    195 H195       -3.8875  -22.0718  -46.1950 H         1 UNK         0.3000 
    196 H196       -5.8172  -23.9780  -46.0730 H         1 UNK         0.0600 
    197 H197       -5.9130  -23.4417  -43.6278 H         1 UNK         0.0600 
    198 H198       -5.7188  -21.9961  -44.6053 H         1 UNK         0.0600 
    199 H199       -4.3387  -22.6641  -43.7335 H         1 UNK         0.0600 
    200 H200       -2.5288  -24.3780  -44.6824 H         1 UNK         0.3000 
    201 H201       -3.0417  -26.8887  -43.4299 H         1 UNK         0.0600 
    202 H202       -1.1699  -25.3357  -42.8171 H         1 UNK         0.0600 
    203 H203       -0.3840  -25.6947  -44.3558 H         1 UNK         0.0600 
    204 H204       -0.5866  -26.9605  -43.1532 H         1 UNK         0.0600 
    205 H205       -2.2599  -26.0989  -46.7587 H         1 UNK         0.3000 
    206 H206       -1.6340  -28.9159  -47.4797 H         1 UNK         0.0600 
    207 H207       -0.1911  -27.0430  -48.3591 H         1 UNK         0.0600 
    208 H208       -0.9994  -27.9260  -49.6461 H         1 UNK         0.0600 
    209 H209       -1.6036  -26.3504  -49.1541 H         1 UNK         0.0600 
    210 H210       -4.3314  -26.9686  -47.0684 H         1 UNK         0.3000 
    211 H211       -6.4202  -26.8297  -47.7280 H         1 UNK         0.0600 
    212 H212       -6.1365  -29.5960  -49.0155 H         1 UNK         0.0600 
    213 H213       -7.6340  -28.7926  -48.5692 H         1 UNK         0.0600 
    214 H214       -6.5139  -29.3039  -47.3178 H         1 UNK         0.0600 
    215 H215       -4.4022  -25.6290  -49.2928 H         1 UNK         0.3000 
    216 H216       -5.4192  -25.6711  -52.0995 H         1 UNK         0.0600 
    217 H217       -2.8038  -24.6305  -50.8689 H         1 UNK         0.0600 
    218 H218       -3.2404  -24.4985  -52.5673 H         1 UNK         0.0600 
    219 H219       -2.9854  -26.0795  -51.8465 H         1 UNK         0.0600 
    220 H220       -5.4158  -23.4747  -53.1220 H         1 UNK         0.3000 
    221 H221       -6.9584  -21.5627  -51.5357 H         1 UNK         0.0600 
    222 H222       -7.5498  -22.1214  -53.9126 H         1 UNK         0.0600 
    223 H223       -5.9923  -21.4975  -54.4542 H         1 UNK         0.0600 
    224 H224       -7.1809  -20.4164  -53.7353 H         1 UNK         0.0600 
    225 H225       -6.3894  -19.3098  -51.3548 H         1 UNK         0.3000 
    226 H226       -3.5889  -18.6712  -50.9180 H         1 UNK         0.0600 
    227 H227       -5.3789  -17.6866  -49.5167 H         1 UNK         0.0600 
    228 H228       -4.5279  -16.4146  -50.3764 H         1 UNK         0.0600 
    229 H229       -6.1133  -16.9310  -50.9322 H         1 UNK         0.0600 
    230 H230       -5.6188  -18.6950  -53.6859 H         1 UNK         0.3000 
    231 H231       -4.0273  -16.7262  -55.2260 H         1 UNK         0.0600 
    232 H232       -6.5256  -18.3492  -55.9540 H         1 UNK         0.0600 
    233 H233       -5.8028  -17.0693  -56.9213 H         1 UNK         0.0600 
    234 H234       -6.5251  -16.6852  -55.3693 H         1 UNK         0.0600 
    235 H235       -3.4657  -19.8425  -54.3372 H         1 UNK         0.3000 
    236 H236       -3.2826  -21.3524  -56.6690 H         1 UNK         0.0600 
    237 H237       -3.2697  -22.3699  -54.4502 H         1 UNK         0.0600 
    238 H238       -1.7936  -22.8413  -55.2703 H         1 UNK         0.0600 
    239 H239       -1.7440  -21.5880  -54.0360 H         1 UNK         0.0600 
    240 H240       -1.0101  -18.9067  -55.5985 H         1 UNK         0.3000 
    241 H241        1.1152  -19.7778  -57.3997 H         1 UNK         0.0600 
    242 H242       -1.3302  -17.4897  -59.5918 H         1 UNK         0.3800 
    243 H243       -1.8850  -18.2429  -58.1180 H         1 UNK         0.3800 
    244 H244        2.2987  -17.7236  -56.7237 H         1 UNK         0.0800 
    245 H245        1.8375  -18.7259  -55.3880 H         1 UNK         0.0800 
    246 H246        2.5152  -16.9530  -53.9114 H         1 UNK         0.0800 
    247 H247        1.6710  -15.4668  -53.5869 H         1 UNK         0.0800 
@<TRIPOS>BOND
     1    1    2 1    
     2    1  127 1    
     3    1  128 1    
     4    1  129 1    
     5    2    3 2    
     6    2    4 am   BACKBONE|DICT|INTERRES
     7    4    5 1    
     8    4  130 1    
     9    5    6 1    
    10    5   65 1    
    11    5  131 1    
    12    6    7 1    
    13    6  132 1    
    14    6  133 1    
    15    7    8 1    
    16    8    9 1    
    17    8  134 1    
    18    8  135 1    
    19    9   10 ar   
    20    9   14 ar   
    21   10   11 ar   
    22   10  136 1    
    23   11   12 ar   
    24   11  126 1    
    25   12   13 ar   
    26   12  137 1    
    27   13   14 ar   
    28   13   15 1    
    29   14  138 1    
    30   15   16 1    
    31   15  139 1    
    32   15  140 1    
    33   16   17 1    
    34   17   18 1    
    35   17  141 1    
    36   17  142 1    
    37   18   19 1    
    38   18   67 1    
    39   18  143 1    
    40   19   20 am   BACKBONE|DICT|INTERRES
    41   19  144 1    
    42   20   21 2    
    43   20   22 1    
    44   22   23 1    
    45   22   24 1    
    46   22  145 1    
    47   23  146 1    
    48   23  147 1    
    49   23  148 1    
    50   24   25 am   BACKBONE|DICT|INTERRES
    51   24  149 1    
    52   25   26 2    
    53   25   27 1    
    54   27   28 1    
    55   27   29 1    
    56   27  150 1    
    57   28  151 1    
    58   28  152 1    
    59   28  153 1    
    60   29   30 am   BACKBONE|DICT|INTERRES
    61   29  154 1    
    62   30   31 2    
    63   30   32 1    
    64   32   33 1    
    65   32   34 1    
    66   32  155 1    
    67   33  156 1    
    68   33  157 1    
    69   33  158 1    
    70   34   35 am   BACKBONE|DICT|INTERRES
    71   34  159 1    
    72   35   36 2    
    73   35   37 1    
    74   37   38 1    
    75   37   39 1    
    76   37  160 1    
    77   38  161 1    
    78   38  162 1    
    79   38  163 1    
    80   39   40 am   BACKBONE|DICT|INTERRES
    81   39  164 1    
    82   40   41 2    
    83   40   42 1    
    84   42   43 1    
    85   42   44 1    
    86   42  165 1    
    87   43  166 1    
    88   43  167 1    
    89   43  168 1    
    90   44   45 am   BACKBONE|DICT|INTERRES
    91   44  169 1    
    92   45   46 2    
    93   45   47 1    
    94   47   48 1    
    95   47   49 1    
    96   47  170 1    
    97   48  171 1    
    98   48  172 1    
    99   48  173 1    
   100   49   50 am   BACKBONE|DICT|INTERRES
   101   49  174 1    
   102   50   51 2    
   103   50   52 1    
   104   52   53 1    
   105   52   54 1    
   106   52  175 1    
   107   53  176 1    
   108   53  177 1    
   109   53  178 1    
   110   54   55 am   BACKBONE|DICT|INTERRES
   111   54  179 1    
   112   55   56 2    
   113   55   57 1    
   114   57   58 1    
   115   57   59 1    
   116   57  180 1    
   117   58  181 1    
   118   58  182 1    
   119   58  183 1    
   120   59   60 am   BACKBONE|DICT|INTERRES
   121   59  184 1    
   122   60   61 2    
   123   60   62 1    
   124   62   63 1    
   125   62   64 1    
   126   62  185 1    
   127   63  186 1    
   128   63  187 1    
   129   63  188 1    
   130   64   65 am   BACKBONE|DICT|INTERRES
   131   64  189 1    
   132   65   66 2    
   133   67   68 2    
   134   67   69 am   BACKBONE|DICT|INTERRES
   135   69   70 1    
   136   69  190 1    
   137   70   71 1    
   138   70   72 1    
   139   70  191 1    
   140   71  192 1    
   141   71  193 1    
   142   71  194 1    
   143   72   73 2    
   144   72   74 am   BACKBONE|DICT|INTERRES
   145   74   75 1    
   146   74  195 1    
   147   75   76 1    
   148   75   77 1    
   149   75  196 1    
   150   76  197 1    
   151   76  198 1    
   152   76  199 1    
   153   77   78 2    
   154   77   79 am   BACKBONE|DICT|INTERRES
   155   79   80 1    
   156   79  200 1    
   157   80   81 1    
   158   80   82 1    
   159   80  201 1    
   160   81  202 1    
   161   81  203 1    
   162   81  204 1    
   163   82   83 2    
   164   82   84 am   BACKBONE|DICT|INTERRES
   165   84   85 1    
   166   84  205 1    
   167   85   86 1    
   168   85   87 1    
   169   85  206 1    
   170   86  207 1    
   171   86  208 1    
   172   86  209 1    
   173   87   88 2    
   174   87   89 am   BACKBONE|DICT|INTERRES
   175   89   90 1    
   176   89  210 1    
   177   90   91 1    
   178   90   92 1    
   179   90  211 1    
   180   91  212 1    
   181   91  213 1    
   182   91  214 1    
   183   92   93 2    
   184   92   94 am   BACKBONE|DICT|INTERRES
   185   94   95 1    
   186   94  215 1    
   187   95   96 1    
   188   95   97 1    
   189   95  216 1    
   190   96  217 1    
   191   96  218 1    
   192   96  219 1    
   193   97   98 2    
   194   97   99 am   BACKBONE|DICT|INTERRES
   195   99  100 1    
   196   99  220 1    
   197  100  101 1    
   198  100  102 1    
   199  100  221 1    
   200  101  222 1    
   201  101  223 1    
   202  101  224 1    
   203  102  103 2    
   204  102  104 am   BACKBONE|DICT|INTERRES
   205  104  105 1    
   206  104  225 1    
   207  105  106 1    
   208  105  107 1    
   209  105  226 1    
   210  106  227 1    
   211  106  228 1    
   212  106  229 1    
   213  107  108 2    
   214  107  109 am   BACKBONE|DICT|INTERRES
   215  109  110 1    
   216  109  230 1    
   217  110  111 1    
   218  110  112 1    
   219  110  231 1    
   220  111  232 1    
   221  111  233 1    
   222  111  234 1    
   223  112  113 2    
   224  112  114 am   BACKBONE|DICT|INTERRES
   225  114  115 1    
   226  114  235 1    
   227  115  116 1    
   228  115  117 1    
   229  115  236 1    
   230  116  237 1    
   231  116  238 1    
   232  116  239 1    
   233  117  118 2    
   234  117  119 am   BACKBONE|DICT|INTERRES
   235  119  120 1    
   236  119  240 1    
   237  120  121 1    
   238  120  124 1    
   239  120  241 1    
   240  121  122 am   BACKBONE|DICT|INTERRES
   241  121  123 2    
   242  122  242 1    
   243  122  243 1    
   244  124  125 1    
   245  124  244 1    
   246  124  245 1    
   247  125  126 1    
   248  126  246 1    
   249  126  247 1    
@<TRIPOS>SUBSTRUCTURE
     1 UNK         1 GROUP             0       ****    0 ROOT    
