@<TRIPOS>MOLECULE
3R540
247   249    1
SMALL
USER_CHARGES


@<TRIPOS>ATOM
      1 CA         -0.3623  -11.5478  -43.9904 C.3       0 UNK        -0.1800 
      2 C           0.4043  -11.2935  -45.2792 C.2       0 UNK         0.5000 
      3 O           0.0820  -10.3594  -46.0134 O.2       0 UNK        -0.5000 
      4 N           1.4248  -12.1152  -45.5498 N.am      1 UNK        -0.5000 
      5 CA          2.3312  -11.9796  -46.6966 C.3       1 UNK         0.1400 
      6 C6          3.0672  -13.3030  -47.0149 C.3       23 UNK        -0.0398 
      7 S7          1.9176  -14.6688  -47.3883 S.3       23 UNK        -0.2404 
      8 C8          2.2418  -14.9314  -49.1565 C.3       23 UNK        -0.0205 
      9 C9          1.4717  -16.1275  -49.6942 C.ar      23 UNK        -0.0193 
     10 C10         0.1802  -15.9643  -50.2043 C.ar      23 UNK        -0.1150 
     11 C11        -0.5203  -17.0552  -50.7293 C.ar      23 UNK        -0.0193 
     12 C12         0.0914  -18.3104  -50.7615 C.ar      23 UNK        -0.1150 
     13 C13         1.3704  -18.4927  -50.2295 C.ar      23 UNK        -0.0193 
     14 C14         2.0569  -17.3973  -49.6977 C.ar      23 UNK        -0.1150 
     15 C15         2.0055  -19.8744  -50.2282 C.3       23 UNK        -0.0205 
     16 S16         1.6306  -20.7850  -48.6974 S.3       23 UNK        -0.2404 
     17 C17        -0.1674  -21.0437  -48.8658 C.3       23 UNK        -0.0398 
     18 CA         -0.6870  -22.1653  -47.9418 C.3       11 UNK         0.1400 
     19 N          -0.5647  -21.8392  -46.5206 N.am      11 UNK        -0.5000 
     20 C          -0.7726  -22.7077  -45.5215 C.2       10 UNK         0.5000 
     21 O          -1.0185  -23.9013  -45.6934 O.2       10 UNK        -0.5000 
     22 CA         -0.7578  -22.1349  -44.0937 C.3       10 UNK         0.1400 
     23 CB          0.6757  -22.0309  -43.5511 C.3       10 UNK        -0.1800 
     24 N          -1.4118  -20.8277  -44.0245 N.am      10 UNK        -0.5000 
     25 C          -2.7281  -20.6336  -44.1883 C.2       9 UNK         0.5000 
     26 O          -3.5366  -21.5446  -44.3669 O.2       9 UNK        -0.5000 
     27 CA         -3.2144  -19.1735  -44.1988 C.3       9 UNK         0.1400 
     28 CB         -3.3988  -18.6478  -42.7676 C.3       9 UNK        -0.1800 
     29 N          -2.3066  -18.2915  -44.9336 N.am      9 UNK        -0.5000 
     30 C          -2.1324  -18.3375  -46.2634 C.2       8 UNK         0.5000 
     31 O          -2.7333  -19.1175  -46.9982 O.2       8 UNK        -0.5000 
     32 CA         -1.0828  -17.3898  -46.8726 C.3       8 UNK         0.1400 
     33 CB         -1.7201  -16.0237  -47.1698 C.3       8 UNK        -0.1800 
     34 N           0.0893  -17.1953  -46.0202 N.am      8 UNK        -0.5000 
     35 C           0.8774  -18.1638  -45.5323 C.2       7 UNK         0.5000 
     36 O           0.7262  -19.3583  -45.7808 O.2       7 UNK        -0.5000 
     37 CA          1.9678  -17.7346  -44.5325 C.3       7 UNK         0.1400 
     38 CB          3.3267  -17.5791  -45.2303 C.3       7 UNK        -0.1800 
     39 N           1.6415  -16.5011  -43.8092 N.am      7 UNK        -0.5000 
     40 C           0.6031  -16.3474  -42.9753 C.2       6 UNK         0.5000 
     41 O          -0.2024  -17.2481  -42.7327 O.2       6 UNK        -0.5000 
     42 CA          0.4296  -14.9556  -42.3294 C.3       6 UNK         0.1400 
     43 CB         -0.6750  -14.9285  -41.2585 C.3       6 UNK        -0.1800 
     44 N           1.6681  -14.4427  -41.7392 N.am      6 UNK        -0.5000 
     45 C           2.6926  -13.9014  -42.4052 C.2       5 UNK         0.5000 
     46 O           2.6915  -13.7525  -43.6287 O.2       5 UNK        -0.5000 
     47 CA          3.8999  -13.4456  -41.5624 C.3       5 UNK         0.1400 
     48 CB          5.1482  -13.1985  -42.4255 C.3       5 UNK        -0.1800 
     49 N           3.5928  -12.2327  -40.8034 N.am      5 UNK        -0.5000 
     50 C           2.8384  -12.1918  -39.6948 C.2       4 UNK         0.5000 
     51 O           2.3493  -13.1962  -39.1740 O.2       4 UNK        -0.5000 
     52 CA          2.5831  -10.8159  -39.0468 C.3       4 UNK         0.1400 
     53 CB          3.4635  -10.6395  -37.8000 C.3       4 UNK        -0.1800 
     54 N           2.8083   -9.6823  -39.9446 N.am      4 UNK        -0.5000 
     55 C           2.0373   -9.3580  -40.9906 C.2       3 UNK         0.5000 
     56 O           1.0298   -9.9854  -41.3170 O.2       3 UNK        -0.5000 
     57 CA          2.4677   -8.1367  -41.8290 C.3       3 UNK         0.1400 
     58 CB          3.3703   -7.1402  -41.0663 C.3       3 UNK        -0.1800 
     59 N           3.0943   -8.5356  -43.0932 N.am      3 UNK        -0.5000 
     60 C           4.1863   -9.2969  -43.2511 C.2       2 UNK         0.5000 
     61 O           4.8106   -9.8138  -42.3224 O.2       2 UNK        -0.5000 
     62 CA          4.5895   -9.5827  -44.7025 C.3       2 UNK         0.1400 
     63 CB          6.0671   -9.9916  -44.8589 C.3       2 UNK        -0.1800 
     64 N           3.7134  -10.6403  -45.1849 N.am      2 UNK        -0.5000 
     65 C           3.3526  -10.8489  -46.4560 C.2       1 UNK         0.5000 
     66 O           3.7736  -10.1895  -47.4073 O.2       1 UNK        -0.5000 
     67 C          -2.1325  -22.5520  -48.3068 C.2       11 UNK         0.5000 
     68 O          -2.3244  -23.5790  -48.9533 O.2       11 UNK        -0.5000 
     69 N          -3.1276  -21.7719  -47.8605 N.am      12 UNK        -0.5000 
     70 CA         -4.5518  -22.0485  -48.0691 C.3       12 UNK         0.1400 
     71 CB         -5.3940  -20.8632  -47.5770 C.3       12 UNK        -0.1800 
     72 C          -5.0169  -23.3638  -47.4162 C.2       12 UNK         0.5000 
     73 O          -5.8043  -24.0891  -48.0230 O.2       12 UNK        -0.5000 
     74 N          -4.4769  -23.6887  -46.2321 N.am      13 UNK        -0.5000 
     75 CA         -4.6859  -24.9701  -45.5485 C.3       13 UNK         0.1400 
     76 CB         -4.1082  -24.8932  -44.1275 C.3       13 UNK        -0.1800 
     77 C          -4.0991  -26.1757  -46.3148 C.2       13 UNK         0.5000 
     78 O          -4.6289  -27.2812  -46.2024 O.2       13 UNK        -0.5000 
     79 N          -3.0497  -25.9334  -47.1113 N.am      14 UNK        -0.5000 
     80 CA         -2.4360  -26.8846  -48.0408 C.3       14 UNK         0.1400 
     81 CB         -0.9178  -26.6343  -48.0637 C.3       14 UNK        -0.1800 
     82 C          -3.0410  -26.7934  -49.4604 C.2       14 UNK         0.5000 
     83 O          -2.4517  -27.3218  -50.4059 O.2       14 UNK        -0.5000 
     84 N          -4.1812  -26.0984  -49.6022 N.am      15 UNK        -0.5000 
     85 CA         -4.9353  -25.8505  -50.8354 C.3       15 UNK         0.1400 
     86 CB         -5.5649  -27.1599  -51.3552 C.3       15 UNK        -0.1800 
     87 C          -4.1172  -25.1166  -51.9181 C.2       15 UNK         0.5000 
     88 O          -4.2980  -25.3817  -53.1062 O.2       15 UNK        -0.5000 
     89 N          -3.1913  -24.2469  -51.4881 N.am      16 UNK        -0.5000 
     90 CA         -2.2035  -23.5226  -52.2947 C.3       16 UNK         0.1400 
     91 CB         -2.8874  -22.4282  -53.1385 C.3       16 UNK        -0.1800 
     92 C          -1.2834  -24.4565  -53.1123 C.2       16 UNK         0.5000 
     93 O          -0.8601  -24.0943  -54.2100 O.2       16 UNK        -0.5000 
     94 N          -1.0010  -25.6455  -52.5541 N.am      17 UNK        -0.5000 
     95 CA         -0.2853  -26.7669  -53.1700 C.3       17 UNK         0.1400 
     96 CB          1.1822  -26.4011  -53.4783 C.3       17 UNK        -0.1800 
     97 C          -1.0547  -27.3282  -54.3839 C.2       17 UNK         0.5000 
     98 O          -0.4873  -27.4833  -55.4668 O.2       17 UNK        -0.5000 
     99 N          -2.3464  -27.6116  -54.1575 N.am      18 UNK        -0.5000 
    100 CA        -3.3396  -28.0989  -55.1201 C.3       18 UNK         0.1400 
    101 CB        -2.9642  -29.4985  -55.6518 C.3       18 UNK        -0.1800 
    102 C         -3.6296  -27.0731  -56.2360 C.2       18 UNK         0.5000 
    103 O         -3.5772  -27.4032  -57.4226 O.2       18 UNK        -0.5000 
    104 N         -3.9457  -25.8429  -55.8201 N.am      19 UNK        -0.5000 
    105 CA        -4.3251  -24.7175  -56.6718 C.3       19 UNK         0.1400 
    106 CB        -3.0918  -23.8430  -56.9611 C.3       19 UNK        -0.1800 
    107 C         -5.4863  -23.9418  -56.0210 C.2       19 UNK         0.5000 
    108 O         -5.4925  -22.7103  -56.0300 O.2       19 UNK        -0.5000 
    109 N         -6.4475  -24.6934  -55.4643 N.am      20 UNK        -0.5000 
    110 CA        -7.6381  -24.2597  -54.7281 C.3       20 UNK         0.1400 
    111 CB        -8.5623  -23.3701  -55.5868 C.3       20 UNK        -0.1800 
    112 C         -7.3015  -23.6301  -53.3639 C.2       20 UNK         0.5000 
    113 O         -7.4585  -24.3006  -52.3445 O.2       20 UNK        -0.5000 
    114 N         -6.8594  -22.3689  -53.3675 N.am      21 UNK        -0.5000 
    115 CA        -6.5241  -21.5323  -52.2154 C.3       21 UNK         0.1400 
    116 CB        -7.7388  -21.3636  -51.2729 C.3       21 UNK        -0.1800 
    117 C         -6.0502  -20.1635  -52.7391 C.2       21 UNK         0.5000 
    118 O         -6.0376  -19.9414  -53.9531 O.2       21 UNK        -0.5000 
    119 N         -5.6963  -19.2569  -51.8189 N.am      22 UNK        -0.5000 
    120 CA        -5.3460  -17.8550  -52.1173 C.3       22 UNK         0.1400 
    121 C         -6.5184  -16.9863  -52.6684 C.2       22 UNK         0.5000 
    122 N         -7.7756  -17.3903  -52.5292 N.am      22 UNK        -0.7600 
    123 O         -6.2794  -15.9232  -53.2346 O.2       22 UNK        -0.5000 
    124 C124       -4.7034  -17.1482  -50.8965 C.3       23 UNK        -0.0398 
    125 S125       -3.1363  -17.9083  -50.3585 S.3       23 UNK        -0.2404 
    126 C126       -1.9335  -16.8795  -51.2646 C.3       23 UNK        -0.0205 
    127 H127        0.2963  -11.9313  -43.2115 H         1 UNK         0.0600 
    128 H128       -1.1627  -12.2675  -44.1603 H         1 UNK         0.0600 
    129 H129       -0.8048  -10.6226  -43.6210 H         1 UNK         0.0600 
    130 H130        1.6763  -12.8486  -44.8917 H         1 UNK         0.3000 
    131 H131        1.7405  -11.7048  -47.5733 H         1 UNK         0.0600 
    132 H132        3.6886  -13.6101  -46.1717 H         1 UNK         0.0800 
    133 H133        3.7494  -13.1660  -47.8558 H         1 UNK         0.0800 
    134 H134        3.3112  -15.0826  -49.3118 H         1 UNK         0.0800 
    135 H135        1.9721  -14.0315  -49.7114 H         1 UNK         0.0800 
    136 H136       -0.2787  -14.9858  -50.1875 H         1 UNK         0.1150 
    137 H137       -0.4448  -19.1517  -51.1771 H         1 UNK         0.1150 
    138 H138        3.0481  -17.5328  -49.2883 H         1 UNK         0.1150 
    139 H139        1.6700  -20.4504  -51.0920 H         1 UNK         0.0800 
    140 H140        3.0881  -19.7830  -50.3267 H         1 UNK         0.0800 
    141 H141       -0.3750  -21.2878  -49.9092 H         1 UNK         0.0800 
    142 H142       -0.6824  -20.1052  -48.6566 H         1 UNK         0.0800 
    143 H143       -0.0731  -23.0508  -48.1214 H         1 UNK         0.0600 
    144 H144       -0.2857  -20.8883  -46.2920 H         1 UNK         0.3000 
    145 H145       -1.3115  -22.8244  -43.4528 H         1 UNK         0.0600 
    146 H146        0.6834  -21.6608  -42.5258 H         1 UNK         0.0600 
    147 H147        1.1600  -23.0081  -43.5477 H         1 UNK         0.0600 
    148 H148        1.2927  -21.3639  -44.1532 H         1 UNK         0.0600 
    149 H149       -0.8102  -20.0208  -43.9394 H         1 UNK         0.3000 
    150 H150       -4.1866  -19.1492  -44.6957 H         1 UNK         0.0600 
    151 H151       -4.1138  -19.2610  -42.2177 H         1 UNK         0.0600 
    152 H152       -3.7788  -17.6261  -42.7677 H         1 UNK         0.0600 
    153 H153       -2.4624  -18.6571  -42.2089 H         1 UNK         0.0600 
    154 H154       -1.7320  -17.6672  -44.3822 H         1 UNK         0.3000 
    155 H155       -0.7388  -17.8256  -47.8120 H         1 UNK         0.0600 
    156 H156       -2.0676  -15.5338  -46.2595 H         1 UNK         0.0600 
    157 H157       -2.5781  -16.1310  -47.8346 H         1 UNK         0.0600 
    158 H158       -1.0155  -15.3538  -47.6605 H         1 UNK         0.0600 
    159 H159        0.3189  -16.2414  -45.7851 H         1 UNK         0.3000 
    160 H160        2.0578  -18.5345  -43.7946 H         1 UNK         0.0600 
    161 H161        4.1184  -17.3728  -44.5099 H         1 UNK         0.0600 
    162 H162        3.5988  -18.4931  -45.7601 H         1 UNK         0.0600 
    163 H163        3.3190  -16.7700  -45.9594 H         1 UNK         0.0600 
    164 H164        2.2397  -15.6986  -43.9720 H         1 UNK         0.3000 
    165 H165        0.1215  -14.2862  -43.1331 H         1 UNK         0.0600 
    166 H166       -0.8115  -13.9227  -40.8604 H         1 UNK         0.0600 
    167 H167       -1.6336  -15.2440  -41.6725 H         1 UNK         0.0600 
    168 H168       -0.4413  -15.5909  -40.4242 H         1 UNK         0.0600 
    169 H169        1.7355  -14.4779  -40.7282 H         1 UNK         0.3000 
    170 H170        4.1389  -14.2487  -40.8620 H         1 UNK         0.0600 
    171 H171        4.9715  -12.4281  -43.1741 H         1 UNK         0.0600 
    172 H172        5.9967  -12.8860  -41.8166 H         1 UNK         0.0600 
    173 H173        5.4419  -14.1058  -42.9548 H         1 UNK         0.0600 
    174 H174        3.9555  -11.3618  -41.1765 H         1 UNK         0.3000 
    175 H175        1.5377  -10.7958  -38.7319 H         1 UNK         0.0600 
    176 H176        4.5242  -10.6352  -38.0544 H         1 UNK         0.0600 
    177 H177        3.2369   -9.7055  -37.2853 H         1 UNK         0.0600 
    178 H178        3.3001  -11.4490  -37.0872 H         1 UNK         0.0600 
    179 H179        3.6396   -9.1336  -39.7785 H         1 UNK         0.3000 
    180 H180        1.5489   -7.6092  -42.0901 H         1 UNK         0.0600 
    181 H181        4.3476   -7.5597  -40.8256 H         1 UNK         0.0600 
    182 H182        2.9043   -6.8248  -40.1317 H         1 UNK         0.0600 
    183 H183        3.5387   -6.2406  -41.6584 H         1 UNK         0.0600 
    184 H184        2.6175   -8.2171  -43.9255 H         1 UNK         0.3000 
    185 H185        4.4207   -8.6728  -45.2826 H         1 UNK         0.0600 
    186 H186        6.7265   -9.2214  -44.4574 H         1 UNK         0.0600 
    187 H187        6.2938  -10.9211  -44.3375 H         1 UNK         0.0600 
    188 H188        6.3289  -10.1275  -45.9082 H         1 UNK         0.0600 
    189 H189        3.2969  -11.2232  -44.4714 H         1 UNK         0.3000 
    190 H190       -2.9048  -20.9023  -47.3797 H         1 UNK         0.3000 
    191 H191       -4.7104  -22.1470  -49.1451 H         1 UNK         0.0600 
    192 H192       -5.2457  -20.6811  -46.5122 H         1 UNK         0.0600 
    193 H193       -6.4577  -21.0450  -47.7362 H         1 UNK         0.0600 
    194 H194       -5.1368  -19.9487  -48.1120 H         1 UNK         0.0600 
    195 H195       -3.8830  -23.0129  -45.7625 H         1 UNK         0.3000 
    196 H196       -5.7629  -25.1298  -45.4660 H         1 UNK         0.0600 
    197 H197       -4.2867  -25.8210  -43.5826 H         1 UNK         0.0600 
    198 H198       -4.5703  -24.0874  -43.5570 H         1 UNK         0.0600 
    199 H199       -3.0322  -24.7214  -44.1379 H         1 UNK         0.0600 
    200 H200       -2.6754  -24.9929  -47.1378 H         1 UNK         0.3000 
    201 H201       -2.6037  -27.9030  -47.6855 H         1 UNK         0.0600 
    202 H202       -0.4945  -26.6931  -47.0607 H         1 UNK         0.0600 
    203 H203       -0.6763  -25.6515  -48.4689 H         1 UNK         0.0600 
    204 H204       -0.4044  -27.3770  -48.6753 H         1 UNK         0.0600 
    205 H205       -4.5679  -25.6548  -48.7779 H         1 UNK         0.3000 
    206 H206       -5.7466  -25.1770  -50.5599 H         1 UNK         0.0600 
    207 H207       -6.1521  -27.6492  -50.5784 H         1 UNK         0.0600 
    208 H208       -6.2370  -26.9646  -52.1917 H         1 UNK         0.0600 
    209 H209       -4.8088  -27.8657  -51.7003 H         1 UNK         0.0600 
    210 H210       -3.0721  -24.1315  -50.4826 H         1 UNK         0.3000 
    211 H211       -1.5447  -23.0178  -51.5873 H         1 UNK         0.0600 
    212 H212       -3.6204  -22.8446  -53.8287 H         1 UNK         0.0600 
    213 H213       -2.1618  -21.8667  -53.7278 H         1 UNK         0.0600 
    214 H214       -3.3986  -21.7101  -52.4989 H         1 UNK         0.0600 
    215 H215       -1.4328  -25.8598  -51.6628 H         1 UNK         0.3000 
    216 H216       -0.2702  -27.5631  -52.4241 H         1 UNK         0.0600 
    217 H217        1.7376  -27.2787  -53.8110 H         1 UNK         0.0600 
    218 H218        1.6861  -26.0148  -52.5925 H         1 UNK         0.0600 
    219 H219        1.2624  -25.6504  -54.2646 H         1 UNK         0.0600 
    220 H220       -2.7099  -27.3995  -53.2383 H         1 UNK         0.3000 
    221 H221       -4.2707  -28.2061  -54.5614 H         1 UNK         0.0600 
    222 H222       -2.0647  -29.4754  -56.2674 H         1 UNK         0.0600 
    223 H223       -2.7930  -30.1978  -54.8335 H         1 UNK         0.0600 
    224 H224       -3.7670  -29.9084  -56.2657 H         1 UNK         0.0600 
    225 H225       -3.9921  -25.6629  -54.8155 H         1 UNK         0.3000 
    226 H226       -4.7073  -25.0909  -57.6239 H         1 UNK         0.0600 
    227 H227       -2.2895  -24.4280  -57.4110 H         1 UNK         0.0600 
    228 H228       -3.3360  -23.0375  -57.6544 H         1 UNK         0.0600 
    229 H229       -2.7023  -23.3872  -56.0513 H         1 UNK         0.0600 
    230 H230       -6.3078  -25.6934  -55.4870 H         1 UNK         0.3000 
    231 H231       -8.1951  -25.1731  -54.5130 H         1 UNK         0.0600 
    232 H232       -8.8634  -23.8856  -56.4988 H         1 UNK         0.0600 
    233 H233       -8.0918  -22.4308  -55.8769 H         1 UNK         0.0600 
    234 H234       -9.4726  -23.1199  -55.0407 H         1 UNK         0.0600 
    235 H235       -6.6826  -21.9176  -54.2609 H         1 UNK         0.3000 
    236 H236       -5.7001  -22.0000  -51.6741 H         1 UNK         0.0600 
    237 H237       -7.5135  -20.6997  -50.4380 H         1 UNK         0.0600 
    238 H238       -8.5985  -20.9492  -51.8006 H         1 UNK         0.0600 
    239 H239       -8.0451  -22.3108  -50.8305 H         1 UNK         0.0600 
    240 H240       -5.7121  -19.5058  -50.8415 H         1 UNK         0.3000 
    241 H241       -4.5985  -17.8772  -52.9128 H         1 UNK         0.0600 
    242 H242       -8.5215  -16.8187  -52.8939 H         1 UNK         0.3800 
    243 H243       -7.9913  -18.2575  -52.0660 H         1 UNK         0.3800 
    244 H244       -5.3920  -17.1645  -50.0501 H         1 UNK         0.0800 
    245 H245       -4.5233  -16.0924  -51.1064 H         1 UNK         0.0800 
    246 H246       -2.2280  -15.8312  -51.1983 H         1 UNK         0.0800 
    247 H247       -1.9561  -17.1442  -52.3225 H         1 UNK         0.0800 
@<TRIPOS>BOND
     1    1    2 1    
     2    1  127 1    
     3    1  128 1    
     4    1  129 1    
     5    2    3 2    
     6    2    4 am   BACKBONE|DICT|INTERRES
     7    4    5 1    
     8    4  130 1    
     9    5    6 1    
    10    5   65 1    
    11    5  131 1    
    12    6    7 1    
    13    6  132 1    
    14    6  133 1    
    15    7    8 1    
    16    8    9 1    
    17    8  134 1    
    18    8  135 1    
    19    9   10 ar   
    20    9   14 ar   
    21   10   11 ar   
    22   10  136 1    
    23   11   12 ar   
    24   11  126 1    
    25   12   13 ar   
    26   12  137 1    
    27   13   14 ar   
    28   13   15 1    
    29   14  138 1    
    30   15   16 1    
    31   15  139 1    
    32   15  140 1    
    33   16   17 1    
    34   17   18 1    
    35   17  141 1    
    36   17  142 1    
    37   18   19 1    
    38   18   67 1    
    39   18  143 1    
    40   19   20 am   BACKBONE|DICT|INTERRES
    41   19  144 1    
    42   20   21 2    
    43   20   22 1    
    44   22   23 1    
    45   22   24 1    
    46   22  145 1    
    47   23  146 1    
    48   23  147 1    
    49   23  148 1    
    50   24   25 am   BACKBONE|DICT|INTERRES
    51   24  149 1    
    52   25   26 2    
    53   25   27 1    
    54   27   28 1    
    55   27   29 1    
    56   27  150 1    
    57   28  151 1    
    58   28  152 1    
    59   28  153 1    
    60   29   30 am   BACKBONE|DICT|INTERRES
    61   29  154 1    
    62   30   31 2    
    63   30   32 1    
    64   32   33 1    
    65   32   34 1    
    66   32  155 1    
    67   33  156 1    
    68   33  157 1    
    69   33  158 1    
    70   34   35 am   BACKBONE|DICT|INTERRES
    71   34  159 1    
    72   35   36 2    
    73   35   37 1    
    74   37   38 1    
    75   37   39 1    
    76   37  160 1    
    77   38  161 1    
    78   38  162 1    
    79   38  163 1    
    80   39   40 am   BACKBONE|DICT|INTERRES
    81   39  164 1    
    82   40   41 2    
    83   40   42 1    
    84   42   43 1    
    85   42   44 1    
    86   42  165 1    
    87   43  166 1    
    88   43  167 1    
    89   43  168 1    
    90   44   45 am   BACKBONE|DICT|INTERRES
    91   44  169 1    
    92   45   46 2    
    93   45   47 1    
    94   47   48 1    
    95   47   49 1    
    96   47  170 1    
    97   48  171 1    
    98   48  172 1    
    99   48  173 1    
   100   49   50 am   BACKBONE|DICT|INTERRES
   101   49  174 1    
   102   50   51 2    
   103   50   52 1    
   104   52   53 1    
   105   52   54 1    
   106   52  175 1    
   107   53  176 1    
   108   53  177 1    
   109   53  178 1    
   110   54   55 am   BACKBONE|DICT|INTERRES
   111   54  179 1    
   112   55   56 2    
   113   55   57 1    
   114   57   58 1    
   115   57   59 1    
   116   57  180 1    
   117   58  181 1    
   118   58  182 1    
   119   58  183 1    
   120   59   60 am   BACKBONE|DICT|INTERRES
   121   59  184 1    
   122   60   61 2    
   123   60   62 1    
   124   62   63 1    
   125   62   64 1    
   126   62  185 1    
   127   63  186 1    
   128   63  187 1    
   129   63  188 1    
   130   64   65 am   BACKBONE|DICT|INTERRES
   131   64  189 1    
   132   65   66 2    
   133   67   68 2    
   134   67   69 am   BACKBONE|DICT|INTERRES
   135   69   70 1    
   136   69  190 1    
   137   70   71 1    
   138   70   72 1    
   139   70  191 1    
   140   71  192 1    
   141   71  193 1    
   142   71  194 1    
   143   72   73 2    
   144   72   74 am   BACKBONE|DICT|INTERRES
   145   74   75 1    
   146   74  195 1    
   147   75   76 1    
   148   75   77 1    
   149   75  196 1    
   150   76  197 1    
   151   76  198 1    
   152   76  199 1    
   153   77   78 2    
   154   77   79 am   BACKBONE|DICT|INTERRES
   155   79   80 1    
   156   79  200 1    
   157   80   81 1    
   158   80   82 1    
   159   80  201 1    
   160   81  202 1    
   161   81  203 1    
   162   81  204 1    
   163   82   83 2    
   164   82   84 am   BACKBONE|DICT|INTERRES
   165   84   85 1    
   166   84  205 1    
   167   85   86 1    
   168   85   87 1    
   169   85  206 1    
   170   86  207 1    
   171   86  208 1    
   172   86  209 1    
   173   87   88 2    
   174   87   89 am   BACKBONE|DICT|INTERRES
   175   89   90 1    
   176   89  210 1    
   177   90   91 1    
   178   90   92 1    
   179   90  211 1    
   180   91  212 1    
   181   91  213 1    
   182   91  214 1    
   183   92   93 2    
   184   92   94 am   BACKBONE|DICT|INTERRES
   185   94   95 1    
   186   94  215 1    
   187   95   96 1    
   188   95   97 1    
   189   95  216 1    
   190   96  217 1    
   191   96  218 1    
   192   96  219 1    
   193   97   98 2    
   194   97   99 am   BACKBONE|DICT|INTERRES
   195   99  100 1    
   196   99  220 1    
   197  100  101 1    
   198  100  102 1    
   199  100  221 1    
   200  101  222 1    
   201  101  223 1    
   202  101  224 1    
   203  102  103 2    
   204  102  104 am   BACKBONE|DICT|INTERRES
   205  104  105 1    
   206  104  225 1    
   207  105  106 1    
   208  105  107 1    
   209  105  226 1    
   210  106  227 1    
   211  106  228 1    
   212  106  229 1    
   213  107  108 2    
   214  107  109 am   BACKBONE|DICT|INTERRES
   215  109  110 1    
   216  109  230 1    
   217  110  111 1    
   218  110  112 1    
   219  110  231 1    
   220  111  232 1    
   221  111  233 1    
   222  111  234 1    
   223  112  113 2    
   224  112  114 am   BACKBONE|DICT|INTERRES
   225  114  115 1    
   226  114  235 1    
   227  115  116 1    
   228  115  117 1    
   229  115  236 1    
   230  116  237 1    
   231  116  238 1    
   232  116  239 1    
   233  117  118 2    
   234  117  119 am   BACKBONE|DICT|INTERRES
   235  119  120 1    
   236  119  240 1    
   237  120  121 1    
   238  120  124 1    
   239  120  241 1    
   240  121  122 am   BACKBONE|DICT|INTERRES
   241  121  123 2    
   242  122  242 1    
   243  122  243 1    
   244  124  125 1    
   245  124  244 1    
   246  124  245 1    
   247  125  126 1    
   248  126  246 1    
   249  126  247 1    
@<TRIPOS>SUBSTRUCTURE
     1 UNK         1 GROUP             0       ****    0 ROOT    
