@<TRIPOS>MOLECULE
3R540
247   249    1
SMALL
USER_CHARGES


@<TRIPOS>ATOM
      1 CA         -3.6889  -12.2371  -46.3199 C.3       0 UNK        -0.1800 
      2 C          -2.2241  -12.2432  -45.9099 C.2       0 UNK         0.5000 
      3 O          -1.8777  -11.6845  -44.8705 O.2       0 UNK        -0.5000 
      4 N          -1.3641  -12.8877  -46.7085 N.am      1 UNK        -0.5000 
      5 CA          0.0833  -13.0122  -46.4863 C.3       1 UNK         0.1400 
      6 C6          0.7984  -13.6837  -47.6885 C.3       23 UNK        -0.0398 
      7 S7          0.0930  -15.3107  -48.1281 S.3       23 UNK        -0.2404 
      8 C8          1.1406  -15.8248  -49.5221 C.3       23 UNK        -0.0205 
      9 C9          0.9174  -17.3019  -49.7977 C.ar      23 UNK        -0.0193 
     10 C10        -0.1265  -17.7172  -50.6290 C.ar      23 UNK        -0.1150 
     11 C11        -0.4025  -19.0780  -50.7916 C.ar      23 UNK        -0.0193 
     12 C12         0.3755  -20.0241  -50.1178 C.ar      23 UNK        -0.1150 
     13 C13         1.4319  -19.6206  -49.2962 C.ar      23 UNK        -0.0193 
     14 C14         1.7104  -18.2584  -49.1591 C.ar      23 UNK        -0.1150 
     15 C15         2.2361  -20.6551  -48.5183 C.3       23 UNK        -0.0205 
     16 S16         2.1703  -20.3948  -46.7109 S.3       23 UNK        -0.2404 
     17 C17         0.3731  -20.3861  -46.3773 C.3       23 UNK        -0.0398 
     18 CA         -0.1329  -21.7446  -45.8455 C.3       11 UNK         0.1400 
     19 N           0.4490  -22.0761  -44.5400 N.am      11 UNK        -0.5000 
     20 C           0.3252  -23.2606  -43.9231 C.2       10 UNK         0.5000 
     21 O          -0.2744  -24.2164  -44.4145 O.2       10 UNK        -0.5000 
     22 CA          0.9193  -23.3947  -42.5065 C.3       10 UNK         0.1400 
     23 CB          2.2890  -24.0870  -42.5669 C.3       10 UNK        -0.1800 
     24 N           1.0638  -22.1235  -41.7937 N.am      10 UNK        -0.5000 
     25 C           0.0726  -21.2729  -41.4870 C.2       9 UNK         0.5000 
     26 O          -1.1118  -21.4831  -41.7472 O.2       9 UNK        -0.5000 
     27 CA          0.4839  -19.9405  -40.8273 C.3       9 UNK         0.1400 
     28 CB          0.3276  -20.0241  -39.3019 C.3       9 UNK        -0.1800 
     29 N           1.8556  -19.5289  -41.1498 N.am      9 UNK        -0.5000 
     30 C           2.2879  -19.2283  -42.3817 C.2       8 UNK         0.5000 
     31 O           1.5655  -19.2504  -43.3805 O.2       8 UNK        -0.5000 
     32 CA          3.7932  -18.9416  -42.5241 C.3       8 UNK         0.1400 
     33 CB          4.5651  -20.2605  -42.6900 C.3       8 UNK        -0.1800 
     34 N           4.0709  -18.0912  -43.6790 N.am      8 UNK        -0.5000 
     35 C           3.8146  -16.7803  -43.7305 C.2       7 UNK         0.5000 
     36 O           3.3975  -16.1244  -42.7713 O.2       7 UNK        -0.5000 
     37 CA          4.0573  -16.1030  -45.0886 C.3       7 UNK         0.1400 
     38 CB          2.9699  -16.5113  -46.0912 C.3       7 UNK        -0.1800 
     39 N           4.0140  -14.6564  -44.9215 N.am      7 UNK        -0.5000 
     40 C           5.0243  -13.8047  -45.1284 C.2       6 UNK         0.5000 
     41 O           6.1040  -14.1194  -45.6301 O.2       6 UNK        -0.5000 
     42 CA          4.7896  -12.3548  -44.6649 C.3       6 UNK         0.1400 
     43 CB          4.1902  -11.5111  -45.8007 C.3       6 UNK        -0.1800 
     44 N           3.8879  -12.3134  -43.5148 N.am      6 UNK        -0.5000 
     45 C           4.2420  -12.5802  -42.2506 C.2       5 UNK         0.5000 
     46 O           5.4103  -12.7384  -41.8917 O.2       5 UNK        -0.5000 
     47 CA          3.0913  -12.7229  -41.2308 C.3       5 UNK         0.1400 
     48 CB          3.5130  -12.3762  -39.7877 C.3       5 UNK        -0.1800 
     49 N           1.8783  -11.9969  -41.6224 N.am      5 UNK        -0.5000 
     50 C           1.7101  -10.6703  -41.7345 C.2       4 UNK         0.5000 
     51 O           2.5782   -9.8410  -41.4605 O.2       4 UNK        -0.5000 
     52 CA          0.3489  -10.1807  -42.2723 C.3       4 UNK         0.1400 
     53 CB          0.5115   -9.6284  -43.6976 C.3       4 UNK        -0.1800 
     54 N          -0.6800  -11.2224  -42.2935 N.am      4 UNK        -0.5000 
     55 C          -1.3004  -11.7242  -41.2171 C.2       3 UNK         0.5000 
     56 O          -1.1285  -11.3096  -40.0706 O.2       3 UNK        -0.5000 
     57 CA         -2.2338  -12.9230  -41.4650 C.3       3 UNK         0.1400 
     58 CB         -3.6378  -12.4519  -41.8743 C.3       3 UNK        -0.1800 
     59 N          -1.7033  -13.8296  -42.4868 N.am      3 UNK        -0.5000 
     60 C          -0.6623  -14.6552  -42.3042 C.2       2 UNK         0.5000 
     61 O          -0.0574  -14.7634  -41.2383 O.2       2 UNK        -0.5000 
     62 CA         -0.1970  -15.4699  -43.5250 C.3       2 UNK         0.1400 
     63 CB         -0.9600  -16.7989  -43.6248 C.3       2 UNK        -0.1800 
     64 N          -0.3448  -14.7318  -44.7790 N.am      2 UNK        -0.5000 
     65 C           0.4334  -13.7059  -45.1502 C.2       1 UNK         0.5000 
     66 O           1.3735  -13.2864  -44.4741 O.2       1 UNK        -0.5000 
     67 C          -1.6780  -21.7835  -45.8473 C.2       11 UNK         0.5000 
     68 O          -2.2689  -21.9724  -46.9100 O.2       11 UNK        -0.5000 
     69 N          -2.3140  -21.6560  -44.6718 N.am      12 UNK        -0.5000 
     70 CA         -3.7625  -21.7938  -44.5002 C.3       12 UNK         0.1400 
     71 CB         -4.1536  -21.2872  -43.1039 C.3       12 UNK        -0.1800 
     72 C          -4.2755  -23.2342  -44.7160 C.2       12 UNK         0.5000 
     73 O          -5.4708  -23.4145  -44.9496 O.2       12 UNK        -0.5000 
     74 N          -3.3787  -24.2292  -44.6436 N.am      13 UNK        -0.5000 
     75 CA         -3.6808  -25.6456  -44.8565 C.3       13 UNK         0.1400 
     76 CB         -2.7570  -26.4886  -43.9609 C.3       13 UNK        -0.1800 
     77 C          -3.5629  -26.0776  -46.3340 C.2       13 UNK         0.5000 
     78 O          -3.7644  -27.2586  -46.6232 O.2       13 UNK        -0.5000 
     79 N          -3.2278  -25.1475  -47.2426 N.am      14 UNK        -0.5000 
     80 CA         -3.1278  -25.3875  -48.6846 C.3       14 UNK         0.1400 
     81 CB         -2.5664  -24.1320  -49.3715 C.3       14 UNK        -0.1800 
     82 C          -4.4786  -25.7814  -49.3148 C.2       14 UNK         0.5000 
     83 O          -5.5274  -25.2919  -48.8867 O.2       14 UNK        -0.5000 
     84 N          -4.4194  -26.6471  -50.3342 N.am      15 UNK        -0.5000 
     85 CA         -5.5691  -27.0833  -51.1271 C.3       15 UNK         0.1400 
     86 CB         -5.1365  -28.2636  -52.0112 C.3       15 UNK        -0.1800 
     87 C          -6.1231  -25.9462  -52.0028 C.2       15 UNK         0.5000 
     88 O          -5.3695  -25.0502  -52.3889 O.2       15 UNK        -0.5000 
     89 N          -7.4134  -26.0310  -52.3524 N.am      16 UNK        -0.5000 
     90 CA         -8.1218  -25.0485  -53.1807 C.3       16 UNK         0.1400 
     91 CB         -9.5985  -25.4533  -53.3005 C.3       16 UNK        -0.1800 
     92 C          -7.5004  -24.8522  -54.5772 C.2       16 UNK         0.5000 
     93 O          -7.4406  -23.7235  -55.0635 O.2       16 UNK        -0.5000 
     94 N          -7.0072  -25.9477  -55.1715 N.am      17 UNK        -0.5000 
     95 CA         -6.3120  -25.9542  -56.4599 C.3       17 UNK         0.1400 
     96 CB         -6.1380  -27.4064  -56.9293 C.3       17 UNK        -0.1800 
     97 C          -4.9508  -25.2330  -56.4195 C.2       17 UNK         0.5000 
     98 O          -4.5533  -24.6395  -57.4223 O.2       17 UNK        -0.5000 
     99 N          -4.2717  -25.2822  -55.2645 N.am      18 UNK        -0.5000 
    100 CA        -3.0324  -24.5502  -55.0124 C.3       18 UNK         0.1400 
    101 CB        -2.2512  -25.2148  -53.8671 C.3       18 UNK        -0.1800 
    102 C         -3.3316  -23.0765  -54.7022 C.2       18 UNK         0.5000 
    103 O         -2.7293  -22.1946  -55.3138 O.2       18 UNK        -0.5000 
    104 N         -4.2963  -22.8393  -53.8004 N.am      19 UNK        -0.5000 
    105 CA        -4.7528  -21.5170  -53.3652 C.3       19 UNK         0.1400 
    106 CB        -5.8431  -21.6785  -52.2971 C.3       19 UNK        -0.1800 
    107 C         -5.2455  -20.6235  -54.5176 C.2       19 UNK         0.5000 
    108 O         -4.9985  -19.4183  -54.4977 O.2       19 UNK        -0.5000 
    109 N         -5.8800  -21.2337  -55.5273 N.am      20 UNK        -0.5000 
    110 CA        -6.2961  -20.5840  -56.7703 C.3       20 UNK         0.1400 
    111 CB        -7.1309  -21.5753  -57.5958 C.3       20 UNK        -0.1800 
    112 C         -5.1283  -20.0335  -57.6165 C.2       20 UNK         0.5000 
    113 O         -5.3442  -19.0977  -58.3881 O.2       20 UNK        -0.5000 
    114 N         -3.9269  -20.6102  -57.4695 N.am      21 UNK        -0.5000 
    115 CA        -2.7160  -20.1732  -58.1584 C.3       21 UNK         0.1400 
    116 CB        -1.8260  -21.3870  -58.4736 C.3       21 UNK        -0.1800 
    117 C         -1.9540  -19.1212  -57.3360 C.2       21 UNK         0.5000 
    118 O         -1.6197  -18.0672  -57.8797 O.2       21 UNK        -0.5000 
    119 N         -1.6807  -19.4170  -56.0564 N.am      22 UNK        -0.5000 
    120 CA        -0.9158  -18.5268  -55.1616 C.3       22 UNK         0.1400 
    121 C         -1.7129  -17.3363  -54.5558 C.2       22 UNK         0.5000 
    122 N         -3.0388  -17.3472  -54.5404 N.am      22 UNK        -0.7600 
    123 O         -1.1109  -16.3664  -54.1035 O.2       22 UNK        -0.5000 
    124 C124       -0.1001  -19.2939  -54.0870 C.3       23 UNK        -0.0398 
    125 S125       -1.0476  -20.5001  -53.0977 S.3       23 UNK        -0.2404 
    126 C126       -1.5728  -19.5252  -51.6536 C.3       23 UNK        -0.0205 
    127 H127       -4.2979  -12.6925  -45.5391 H         1 UNK         0.0600 
    128 H128       -3.8532  -12.7882  -47.2461 H         1 UNK         0.0600 
    129 H129       -4.0313  -11.2129  -46.4668 H         1 UNK         0.0600 
    130 H130       -1.7104  -13.3454  -47.5401 H         1 UNK         0.3000 
    131 H131        0.4725  -11.9949  -46.4088 H         1 UNK         0.0600 
    132 H132        0.7243  -13.0356  -48.5629 H         1 UNK         0.0800 
    133 H133        1.8662  -13.7952  -47.4901 H         1 UNK         0.0800 
    134 H134        0.8995  -15.2297  -50.4042 H         1 UNK         0.0800 
    135 H135        2.1904  -15.6376  -49.2925 H         1 UNK         0.0800 
    136 H136       -0.7441  -16.9786  -51.1213 H         1 UNK         0.1150 
    137 H137        0.1446  -21.0749  -50.2251 H         1 UNK         0.1150 
    138 H138        2.5152  -17.9434  -48.5127 H         1 UNK         0.1150 
    139 H139        1.8848  -21.6644  -48.7383 H         1 UNK         0.0800 
    140 H140        3.2761  -20.6131  -48.8438 H         1 UNK         0.0800 
    141 H141       -0.1665  -20.1018  -47.2807 H         1 UNK         0.0800 
    142 H142        0.1662  -19.5949  -45.6551 H         1 UNK         0.0800 
    143 H143        0.1892  -22.5174  -46.5470 H         1 UNK         0.0600 
    144 H144        0.9447  -21.3256  -44.0745 H         1 UNK         0.3000 
    145 H145        0.2395  -24.0232  -41.9277 H         1 UNK         0.0600 
    146 H146        2.6834  -24.2715  -41.5674 H         1 UNK         0.0600 
    147 H147        2.2175  -25.0526  -43.0693 H         1 UNK         0.0600 
    148 H148        3.0189  -23.4865  -43.1117 H         1 UNK         0.0600 
    149 H149        2.0032  -21.8590  -41.5390 H         1 UNK         0.3000 
    150 H150       -0.1946  -19.1704  -41.1985 H         1 UNK         0.0600 
    151 H151        1.0002  -20.7649  -38.8677 H         1 UNK         0.0600 
    152 H152       -0.6905  -20.3049  -39.0286 H         1 UNK         0.0600 
    153 H153        0.5351  -19.0632  -38.8307 H         1 UNK         0.0600 
    154 H154        2.5077  -19.4996  -40.3791 H         1 UNK         0.3000 
    155 H155        4.1451  -18.4366  -41.6218 H         1 UNK         0.0600 
    156 H156        4.2381  -20.8098  -43.5745 H         1 UNK         0.0600 
    157 H157        4.4222  -20.9125  -41.8275 H         1 UNK         0.0600 
    158 H158        5.6364  -20.0813  -42.7840 H         1 UNK         0.0600 
    159 H159        4.3579  -18.5673  -44.5215 H         1 UNK         0.3000 
    160 H160        5.0318  -16.4217  -45.4640 H         1 UNK         0.0600 
    161 H161        1.9709  -16.2653  -45.7318 H         1 UNK         0.0600 
    162 H162        2.9923  -17.5850  -46.2714 H         1 UNK         0.0600 
    163 H163        3.1162  -16.0157  -47.0500 H         1 UNK         0.0600 
    164 H164        3.1819  -14.3009  -44.4642 H         1 UNK         0.3000 
    165 H165        5.7529  -11.9240  -44.3839 H         1 UNK         0.0600 
    166 H166        4.8505  -11.5009  -46.6687 H         1 UNK         0.0600 
    167 H167        3.2247  -11.8992  -46.1267 H         1 UNK         0.0600 
    168 H168        4.0463  -10.4766  -45.4884 H         1 UNK         0.0600 
    169 H169        2.8964  -12.2725  -43.7264 H         1 UNK         0.3000 
    170 H170        2.8169  -13.7788  -41.2432 H         1 UNK         0.0600 
    171 H171        4.3043  -13.0424  -39.4424 H         1 UNK         0.0600 
    172 H172        3.8889  -11.3562  -39.7069 H         1 UNK         0.0600 
    173 H173        2.6766  -12.4830  -39.0969 H         1 UNK         0.0600 
    174 H174        1.0998  -12.5811  -41.8944 H         1 UNK         0.3000 
    175 H175        0.0090   -9.3710  -41.6236 H         1 UNK         0.0600 
    176 H176       -0.4309   -9.2333  -44.0776 H         1 UNK         0.0600 
    177 H177        1.2388   -8.8160  -43.7245 H         1 UNK         0.0600 
    178 H178        0.8538  -10.3991  -44.3892 H         1 UNK         0.0600 
    179 H179       -0.9503  -11.5683  -43.2108 H         1 UNK         0.3000 
    180 H180       -2.3232  -13.4762  -40.5275 H         1 UNK         0.0600 
    181 H181       -3.6219  -11.8888  -42.8078 H         1 UNK         0.0600 
    182 H182       -4.0684  -11.8042  -41.1096 H         1 UNK         0.0600 
    183 H183       -4.3151  -13.2962  -42.0034 H         1 UNK         0.0600 
    184 H184       -2.1123  -13.7629  -43.4070 H         1 UNK         0.3000 
    185 H185        0.8599  -15.7005  -43.3843 H         1 UNK         0.0600 
    186 H186       -0.8560  -17.3767  -42.7061 H         1 UNK         0.0600 
    187 H187       -2.0253  -16.6436  -43.7984 H         1 UNK         0.0600 
    188 H188       -0.5708  -17.4139  -44.4366 H         1 UNK         0.0600 
    189 H189       -1.0852  -15.0221  -45.4011 H         1 UNK         0.3000 
    190 H190       -1.7711  -21.5272  -43.8254 H         1 UNK         0.3000 
    191 H191       -4.2520  -21.1580  -45.2409 H         1 UNK         0.0600 
    192 H192       -3.8136  -20.2639  -42.9433 H         1 UNK         0.0600 
    193 H193       -5.2367  -21.2942  -42.9754 H         1 UNK         0.0600 
    194 H194       -3.7274  -21.9106  -42.3171 H         1 UNK         0.0600 
    195 H195       -2.4046  -24.0052  -44.4747 H         1 UNK         0.3000 
    196 H196       -4.7092  -25.8431  -44.5472 H         1 UNK         0.0600 
    197 H197       -3.0367  -27.5423  -43.9931 H         1 UNK         0.0600 
    198 H198       -2.8154  -26.1708  -42.9197 H         1 UNK         0.0600 
    199 H199       -1.7158  -26.4198  -44.2763 H         1 UNK         0.0600 
    200 H200       -3.0977  -24.1932  -46.9354 H         1 UNK         0.3000 
    201 H201       -2.4216  -26.2069  -48.8342 H         1 UNK         0.0600 
    202 H202       -2.4534  -24.2881  -50.4453 H         1 UNK         0.0600 
    203 H203       -3.2244  -23.2727  -49.2350 H         1 UNK         0.0600 
    204 H204       -1.5851  -23.8688  -48.9762 H         1 UNK         0.0600 
    205 H205       -3.5168  -26.9762  -50.6427 H         1 UNK         0.3000 
    206 H206       -6.3536  -27.4174  -50.4449 H         1 UNK         0.0600 
    207 H207       -4.7628  -29.0915  -51.4083 H         1 UNK         0.0600 
    208 H208       -5.9737  -28.6446  -52.5973 H         1 UNK         0.0600 
    209 H209       -4.3500  -27.9764  -52.7108 H         1 UNK         0.0600 
    210 H210       -7.9630  -26.8056  -52.0091 H         1 UNK         0.3000 
    211 H211       -8.0764  -24.0896  -52.6622 H         1 UNK         0.0600 
    212 H212       -9.7128  -26.4274  -53.7775 H         1 UNK         0.0600 
    213 H213      -10.1547  -24.7284  -53.8966 H         1 UNK         0.0600 
    214 H214      -10.0757  -25.5001  -52.3214 H         1 UNK         0.0600 
    215 H215       -7.0990  -26.8340  -54.6976 H         1 UNK         0.3000 
    216 H216       -6.9399  -25.4324  -57.1854 H         1 UNK         0.0600 
    217 H217       -5.6418  -27.4461  -57.9000 H         1 UNK         0.0600 
    218 H218       -7.1017  -27.9042  -57.0381 H         1 UNK         0.0600 
    219 H219       -5.5361  -27.9870  -56.2289 H         1 UNK         0.0600 
    220 H220       -4.7005  -25.7315  -54.4678 H         1 UNK         0.3000 
    221 H221       -2.4083  -24.5870  -55.9081 H         1 UNK         0.0600 
    222 H222       -2.8085  -25.2095  -52.9306 H         1 UNK         0.0600 
    223 H223       -2.0089  -26.2503  -54.1058 H         1 UNK         0.0600 
    224 H224       -1.3102  -24.6931  -53.6879 H         1 UNK         0.0600 
    225 H225       -4.7298  -23.6364  -53.3386 H         1 UNK         0.3000 
    226 H226       -3.9033  -21.0153  -52.9025 H         1 UNK         0.0600 
    227 H227       -6.1484  -20.7088  -51.9022 H         1 UNK         0.0600 
    228 H228       -6.7309  -22.1614  -52.7040 H         1 UNK         0.0600 
    229 H229       -5.4893  -22.2768  -51.4569 H         1 UNK         0.0600 
    230 H230       -6.1072  -22.2181  -55.4325 H         1 UNK         0.3000 
    231 H231       -6.9331  -19.7378  -56.5055 H         1 UNK         0.0600 
    232 H232       -6.5611  -22.4731  -57.8390 H         1 UNK         0.0600 
    233 H233       -7.4587  -21.1277  -58.5349 H         1 UNK         0.0600 
    234 H234       -8.0259  -21.8827  -57.0548 H         1 UNK         0.0600 
    235 H235       -3.8070  -21.3367  -56.7719 H         1 UNK         0.3000 
    236 H236       -2.9866  -19.7180  -59.1137 H         1 UNK         0.0600 
    237 H237       -2.3643  -22.1248  -59.0690 H         1 UNK         0.0600 
    238 H238       -0.9483  -21.0846  -59.0458 H         1 UNK         0.0600 
    239 H239       -1.4697  -21.8835  -57.5714 H         1 UNK         0.0600 
    240 H240       -1.9890  -20.3022  -55.6665 H         1 UNK         0.3000 
    241 H241       -0.1610  -18.0417  -55.7842 H         1 UNK         0.0600 
    242 H242       -3.5723  -18.1665  -54.8143 H         1 UNK         0.3800 
    243 H243       -3.5273  -16.5552  -54.1558 H         1 UNK         0.3800 
    244 H244        0.4272  -18.6036  -53.4268 H         1 UNK         0.0800 
    245 H245        0.6869  -19.8579  -54.5889 H         1 UNK         0.0800 
    246 H246       -2.2397  -20.1380  -51.0456 H         1 UNK         0.0800 
    247 H247       -2.1660  -18.6726  -51.9855 H         1 UNK         0.0800 
@<TRIPOS>BOND
     1    1    2 1    
     2    1  127 1    
     3    1  128 1    
     4    1  129 1    
     5    2    3 2    
     6    2    4 am   BACKBONE|DICT|INTERRES
     7    4    5 1    
     8    4  130 1    
     9    5    6 1    
    10    5   65 1    
    11    5  131 1    
    12    6    7 1    
    13    6  132 1    
    14    6  133 1    
    15    7    8 1    
    16    8    9 1    
    17    8  134 1    
    18    8  135 1    
    19    9   10 ar   
    20    9   14 ar   
    21   10   11 ar   
    22   10  136 1    
    23   11   12 ar   
    24   11  126 1    
    25   12   13 ar   
    26   12  137 1    
    27   13   14 ar   
    28   13   15 1    
    29   14  138 1    
    30   15   16 1    
    31   15  139 1    
    32   15  140 1    
    33   16   17 1    
    34   17   18 1    
    35   17  141 1    
    36   17  142 1    
    37   18   19 1    
    38   18   67 1    
    39   18  143 1    
    40   19   20 am   BACKBONE|DICT|INTERRES
    41   19  144 1    
    42   20   21 2    
    43   20   22 1    
    44   22   23 1    
    45   22   24 1    
    46   22  145 1    
    47   23  146 1    
    48   23  147 1    
    49   23  148 1    
    50   24   25 am   BACKBONE|DICT|INTERRES
    51   24  149 1    
    52   25   26 2    
    53   25   27 1    
    54   27   28 1    
    55   27   29 1    
    56   27  150 1    
    57   28  151 1    
    58   28  152 1    
    59   28  153 1    
    60   29   30 am   BACKBONE|DICT|INTERRES
    61   29  154 1    
    62   30   31 2    
    63   30   32 1    
    64   32   33 1    
    65   32   34 1    
    66   32  155 1    
    67   33  156 1    
    68   33  157 1    
    69   33  158 1    
    70   34   35 am   BACKBONE|DICT|INTERRES
    71   34  159 1    
    72   35   36 2    
    73   35   37 1    
    74   37   38 1    
    75   37   39 1    
    76   37  160 1    
    77   38  161 1    
    78   38  162 1    
    79   38  163 1    
    80   39   40 am   BACKBONE|DICT|INTERRES
    81   39  164 1    
    82   40   41 2    
    83   40   42 1    
    84   42   43 1    
    85   42   44 1    
    86   42  165 1    
    87   43  166 1    
    88   43  167 1    
    89   43  168 1    
    90   44   45 am   BACKBONE|DICT|INTERRES
    91   44  169 1    
    92   45   46 2    
    93   45   47 1    
    94   47   48 1    
    95   47   49 1    
    96   47  170 1    
    97   48  171 1    
    98   48  172 1    
    99   48  173 1    
   100   49   50 am   BACKBONE|DICT|INTERRES
   101   49  174 1    
   102   50   51 2    
   103   50   52 1    
   104   52   53 1    
   105   52   54 1    
   106   52  175 1    
   107   53  176 1    
   108   53  177 1    
   109   53  178 1    
   110   54   55 am   BACKBONE|DICT|INTERRES
   111   54  179 1    
   112   55   56 2    
   113   55   57 1    
   114   57   58 1    
   115   57   59 1    
   116   57  180 1    
   117   58  181 1    
   118   58  182 1    
   119   58  183 1    
   120   59   60 am   BACKBONE|DICT|INTERRES
   121   59  184 1    
   122   60   61 2    
   123   60   62 1    
   124   62   63 1    
   125   62   64 1    
   126   62  185 1    
   127   63  186 1    
   128   63  187 1    
   129   63  188 1    
   130   64   65 am   BACKBONE|DICT|INTERRES
   131   64  189 1    
   132   65   66 2    
   133   67   68 2    
   134   67   69 am   BACKBONE|DICT|INTERRES
   135   69   70 1    
   136   69  190 1    
   137   70   71 1    
   138   70   72 1    
   139   70  191 1    
   140   71  192 1    
   141   71  193 1    
   142   71  194 1    
   143   72   73 2    
   144   72   74 am   BACKBONE|DICT|INTERRES
   145   74   75 1    
   146   74  195 1    
   147   75   76 1    
   148   75   77 1    
   149   75  196 1    
   150   76  197 1    
   151   76  198 1    
   152   76  199 1    
   153   77   78 2    
   154   77   79 am   BACKBONE|DICT|INTERRES
   155   79   80 1    
   156   79  200 1    
   157   80   81 1    
   158   80   82 1    
   159   80  201 1    
   160   81  202 1    
   161   81  203 1    
   162   81  204 1    
   163   82   83 2    
   164   82   84 am   BACKBONE|DICT|INTERRES
   165   84   85 1    
   166   84  205 1    
   167   85   86 1    
   168   85   87 1    
   169   85  206 1    
   170   86  207 1    
   171   86  208 1    
   172   86  209 1    
   173   87   88 2    
   174   87   89 am   BACKBONE|DICT|INTERRES
   175   89   90 1    
   176   89  210 1    
   177   90   91 1    
   178   90   92 1    
   179   90  211 1    
   180   91  212 1    
   181   91  213 1    
   182   91  214 1    
   183   92   93 2    
   184   92   94 am   BACKBONE|DICT|INTERRES
   185   94   95 1    
   186   94  215 1    
   187   95   96 1    
   188   95   97 1    
   189   95  216 1    
   190   96  217 1    
   191   96  218 1    
   192   96  219 1    
   193   97   98 2    
   194   97   99 am   BACKBONE|DICT|INTERRES
   195   99  100 1    
   196   99  220 1    
   197  100  101 1    
   198  100  102 1    
   199  100  221 1    
   200  101  222 1    
   201  101  223 1    
   202  101  224 1    
   203  102  103 2    
   204  102  104 am   BACKBONE|DICT|INTERRES
   205  104  105 1    
   206  104  225 1    
   207  105  106 1    
   208  105  107 1    
   209  105  226 1    
   210  106  227 1    
   211  106  228 1    
   212  106  229 1    
   213  107  108 2    
   214  107  109 am   BACKBONE|DICT|INTERRES
   215  109  110 1    
   216  109  230 1    
   217  110  111 1    
   218  110  112 1    
   219  110  231 1    
   220  111  232 1    
   221  111  233 1    
   222  111  234 1    
   223  112  113 2    
   224  112  114 am   BACKBONE|DICT|INTERRES
   225  114  115 1    
   226  114  235 1    
   227  115  116 1    
   228  115  117 1    
   229  115  236 1    
   230  116  237 1    
   231  116  238 1    
   232  116  239 1    
   233  117  118 2    
   234  117  119 am   BACKBONE|DICT|INTERRES
   235  119  120 1    
   236  119  240 1    
   237  120  121 1    
   238  120  124 1    
   239  120  241 1    
   240  121  122 am   BACKBONE|DICT|INTERRES
   241  121  123 2    
   242  122  242 1    
   243  122  243 1    
   244  124  125 1    
   245  124  244 1    
   246  124  245 1    
   247  125  126 1    
   248  126  246 1    
   249  126  247 1    
@<TRIPOS>SUBSTRUCTURE
     1 UNK         1 GROUP             0       ****    0 ROOT    
