@<TRIPOS>MOLECULE
3R540
247   249    1
SMALL
USER_CHARGES


@<TRIPOS>ATOM
      1 CA         -1.3401  -16.5049  -47.7087 C.3       0 UNK        -0.1800 
      2 C          -0.3257  -15.3979  -47.4651 C.2       0 UNK         0.5000 
      3 O          -0.7049  -14.3253  -46.9935 O.2       0 UNK        -0.5000 
      4 N           0.9516  -15.6493  -47.7740 N.am      1 UNK        -0.5000 
      5 CA          2.0564  -14.7152  -47.5272 C.3       1 UNK         0.1400 
      6 C6          2.2475  -13.6970  -48.6888 C.3       23 UNK        -0.0398 
      7 S7          3.2285  -14.2814  -50.1214 S.3       23 UNK        -0.2404 
      8 C8          1.9616  -14.5419  -51.4058 C.3       23 UNK        -0.0205 
      9 C9          1.0766  -15.7601  -51.1649 C.ar      23 UNK        -0.0193 
     10 C10        -0.2963  -15.6750  -51.4233 C.ar      23 UNK        -0.1150 
     11 C11        -1.1233  -16.7869  -51.2442 C.ar      23 UNK        -0.0193 
     12 C12        -0.5677  -17.9840  -50.7913 C.ar      23 UNK        -0.1150 
     13 C13         0.7987  -18.0899  -50.5341 C.ar      23 UNK        -0.0193 
     14 C14         1.6200  -16.9774  -50.7314 C.ar      23 UNK        -0.1150 
     15 C15         1.3724  -19.4202  -50.0771 C.3       23 UNK        -0.0205 
     16 S16         0.8805  -19.8182  -48.3700 S.3       23 UNK        -0.2404 
     17 C17         1.2575  -21.6047  -48.3698 C.3       23 UNK        -0.0398 
     18 CA          0.9648  -22.3339  -47.0364 C.3       11 UNK         0.1400 
     19 N           1.7174  -21.7641  -45.9198 N.am      11 UNK        -0.5000 
     20 C           2.1164  -22.4453  -44.8376 C.2       10 UNK         0.5000 
     21 O           1.9044  -23.6459  -44.6673 O.2       10 UNK        -0.5000 
     22 CA          2.8402  -21.6326  -43.7466 C.3       10 UNK         0.1400 
     23 CB          4.3556  -21.6166  -43.9971 C.3       10 UNK        -0.1800 
     24 N           2.3580  -20.2535  -43.6511 N.am      10 UNK        -0.5000 
     25 C           1.1116  -19.9017  -43.3212 C.2       9 UNK         0.5000 
     26 O           0.2213  -20.7138  -43.0645 O.2       9 UNK        -0.5000 
     27 CA          0.7986  -18.3970  -43.3692 C.3       9 UNK         0.1400 
     28 CB          0.3552  -18.0133  -44.7904 C.3       9 UNK        -0.1800 
     29 N          -0.2301  -17.9960  -42.4082 N.am      9 UNK        -0.5000 
     30 C          -0.1108  -18.1039  -41.0746 C.2       8 UNK         0.5000 
     31 O           0.8841  -18.5697  -40.5168 O.2       8 UNK        -0.5000 
     32 CA         -1.2654  -17.5835  -40.1956 C.3       8 UNK         0.1400 
     33 CB         -0.8372  -16.3183  -39.4344 C.3       8 UNK        -0.1800 
     34 N          -2.4791  -17.2922  -40.9560 N.am      8 UNK        -0.5000 
     35 C          -3.3806  -18.2143  -41.3202 C.2       7 UNK         0.5000 
     36 O          -3.3154  -19.3974  -40.9858 O.2       7 UNK        -0.5000 
     37 CA         -4.5546  -17.7492  -42.2065 C.3       7 UNK         0.1400 
     38 CB         -5.8476  -17.6571  -41.3813 C.3       7 UNK        -0.1800 
     39 N          -4.3381  -16.4678  -42.8850 N.am      7 UNK        -0.5000 
     40 C          -3.3998  -16.2303  -43.8110 C.2       6 UNK         0.5000 
     41 O          -2.5796  -17.0751  -44.1672 O.2       6 UNK        -0.5000 
     42 CA         -3.3648  -14.8261  -44.4491 C.3       6 UNK         0.1400 
     43 CB         -4.3617  -13.8217  -43.8273 C.3       6 UNK        -0.1800 
     44 N          -2.0197  -14.2470  -44.4697 N.am      6 UNK        -0.5000 
     45 C          -1.2160  -14.0074  -43.4262 C.2       5 UNK         0.5000 
     46 O          -1.4721  -14.3263  -42.2625 O.2       5 UNK        -0.5000 
     47 CA          0.0488  -13.1888  -43.7395 C.3       5 UNK         0.1400 
     48 CB         -0.2325  -11.6903  -43.5472 C.3       5 UNK        -0.1800 
     49 N           1.1746  -13.5656  -42.8880 N.am      5 UNK        -0.5000 
     50 C           2.0162  -14.5644  -43.1684 C.2       4 UNK         0.5000 
     51 O           1.9205  -15.2747  -44.1705 O.2       4 UNK        -0.5000 
     52 CA          3.1730  -14.7900  -42.1838 C.3       4 UNK         0.1400 
     53 CB          2.6822  -15.3704  -40.8466 C.3       4 UNK        -0.1800 
     54 N           4.1314  -15.6992  -42.8012 N.am      4 UNK        -0.5000 
     55 C           5.4265  -15.8220  -42.5037 C.2       3 UNK         0.5000 
     56 O           5.9762  -15.1821  -41.6061 O.2       3 UNK        -0.5000 
     57 CA          6.2724  -16.7952  -43.3546 C.3       3 UNK         0.1400 
     58 CB          6.4208  -18.1584  -42.6494 C.3       3 UNK        -0.1800 
     59 N           5.8334  -16.9557  -44.7513 N.am      3 UNK        -0.5000 
     60 C           4.7380  -17.5690  -45.2165 C.2       2 UNK         0.5000 
     61 O           3.8888  -18.0968  -44.4994 O.2       2 UNK        -0.5000 
     62 CA          4.5387  -17.5794  -46.7401 C.3       2 UNK         0.1400 
     63 CB          4.3428  -19.0129  -47.2586 C.3       2 UNK        -0.1800 
     64 N           3.3774  -16.7723  -47.1085 N.am      2 UNK        -0.5000 
     65 C           3.3596  -15.4299  -47.1019 C.2       1 UNK         0.5000 
     66 O           4.3367  -14.7483  -46.7846 O.2       1 UNK        -0.5000 
     67 C          -0.5486  -22.4480  -46.7517 C.2       11 UNK         0.5000 
     68 O          -1.2326  -23.1593  -47.4878 O.2       11 UNK        -0.5000 
     69 N          -1.0669  -21.7996  -45.6936 N.am      12 UNK        -0.5000 
     70 CA         -2.4862  -21.8626  -45.3155 C.3       12 UNK         0.1400 
     71 CB         -2.7990  -20.8321  -44.2214 C.3       12 UNK        -0.1800 
     72 C          -2.9250  -23.2742  -44.8794 C.2       12 UNK         0.5000 
     73 O          -4.0753  -23.6497  -45.1048 O.2       12 UNK        -0.5000 
     74 N          -1.9788  -24.0586  -44.3425 N.am      13 UNK        -0.5000 
     75 CA         -2.1334  -25.4811  -44.0271 C.3       13 UNK         0.1400 
     76 CB         -0.9035  -25.9451  -43.2323 C.3       13 UNK        -0.1800 
     77 C          -2.3371  -26.3711  -45.2730 C.2       13 UNK         0.5000 
     78 O          -2.8908  -27.4637  -45.1498 O.2       13 UNK        -0.5000 
     79 N          -1.9138  -25.8809  -46.4461 N.am      14 UNK        -0.5000 
     80 CA         -2.1054  -26.4995  -47.7576 C.3       14 UNK         0.1400 
     81 CB         -0.7722  -26.4403  -48.5263 C.3       14 UNK        -0.1800 
     82 C          -3.2430  -25.8091  -48.5399 C.2       14 UNK         0.5000 
     83 O          -3.2654  -25.8849  -49.7688 O.2       14 UNK        -0.5000 
     84 N          -4.1488  -25.1167  -47.8291 N.am      15 UNK        -0.5000 
     85 CA         -5.2843  -24.3448  -48.3498 C.3       15 UNK         0.1400 
     86 CB         -6.3326  -25.2769  -48.9934 C.3       15 UNK        -0.1800 
     87 C          -4.8449  -23.1938  -49.2796 C.2       15 UNK         0.5000 
     88 O          -5.4883  -22.9400  -50.2976 O.2       15 UNK        -0.5000 
     89 N          -3.7298  -22.5457  -48.9111 N.am      16 UNK        -0.5000 
     90 CA         -3.0067  -21.4851  -49.6232 C.3       16 UNK         0.1400 
     91 CB         -3.9375  -20.3325  -50.0545 C.3       16 UNK        -0.1800 
     92 C          -2.1385  -22.0054  -50.7863 C.2       16 UNK         0.5000 
     93 O          -1.4614  -21.2010  -51.4244 O.2       16 UNK        -0.5000 
     94 N          -2.1398  -23.3253  -51.0328 N.am      17 UNK        -0.5000 
     95 CA         -1.4261  -24.0664  -52.0793 C.3       17 UNK         0.1400 
     96 CB          0.1021  -23.9454  -51.9152 C.3       17 UNK        -0.1800 
     97 C          -1.8884  -23.7040  -53.5041 C.2       17 UNK         0.5000 
     98 O          -2.4438  -24.5523  -54.2026 O.2       17 UNK        -0.5000 
     99 N          -1.7019  -22.4393  -53.8939 N.am      18 UNK        -0.5000 
    100 CA        -2.1561  -21.8378  -55.1451 C.3       18 UNK         0.1400 
    101 CB        -1.1776  -20.7140  -55.5309 C.3       18 UNK        -0.1800 
    102 C         -3.6067  -21.3342  -55.0082 C.2       18 UNK         0.5000 
    103 O         -3.8928  -20.1738  -55.3061 O.2       18 UNK        -0.5000 
    104 N         -4.5060  -22.2163  -54.5505 N.am      19 UNK        -0.5000 
    105 CA        -5.9053  -21.9270  -54.2189 C.3       19 UNK         0.1400 
    106 CB        -6.5788  -23.2176  -53.7301 C.3       19 UNK        -0.1800 
    107 C         -6.7168  -21.3012  -55.3699 C.2       19 UNK         0.5000 
    108 O         -7.5729  -20.4532  -55.1188 O.2       19 UNK        -0.5000 
    109 N         -6.4022  -21.6954  -56.6113 N.am      20 UNK        -0.5000 
    110 CA        -6.9986  -21.1582  -57.8356 C.3       20 UNK         0.1400 
    111 CB        -6.5787  -22.0401  -59.0215 C.3       20 UNK        -0.1800 
    112 C         -6.6375  -19.6829  -58.1070 C.2       20 UNK         0.5000 
    113 O         -7.4145  -18.9882  -58.7635 O.2       20 UNK        -0.5000 
    114 N         -5.4798  -19.2321  -57.6051 N.am      21 UNK        -0.5000 
    115 CA        -5.0235  -17.8465  -57.6939 C.3       21 UNK         0.1400 
    116 CB        -3.4954  -17.8209  -57.8617 C.3       21 UNK        -0.1800 
    117 C         -5.4481  -17.0490  -56.4505 C.2       21 UNK         0.5000 
    118 O         -5.9120  -15.9159  -56.5869 O.2       21 UNK        -0.5000 
    119 N         -5.2786  -17.6504  -55.2661 N.am      22 UNK        -0.5000 
    120 CA        -5.5977  -17.0408  -53.9659 C.3       22 UNK         0.1400 
    121 C         -7.1190  -16.8917  -53.6800 C.2       22 UNK         0.5000 
    122 N         -7.9865  -17.7399  -54.2178 N.am      22 UNK        -0.7600 
    123 O         -7.5202  -15.9824  -52.9589 O.2       22 UNK        -0.5000 
    124 C124       -4.8980  -17.7792  -52.7991 C.3       23 UNK        -0.0398 
    125 S125       -3.0781  -17.7542  -52.9413 S.3       23 UNK        -0.2404 
    126 C126       -2.6165  -16.7096  -51.5229 C.3       23 UNK        -0.0205 
    127 H127       -1.8949  -16.7115  -46.7942 H         1 UNK         0.0600 
    128 H128       -0.8624  -17.4310  -48.0235 H         1 UNK         0.0600 
    129 H129       -2.0500  -16.2017  -48.4771 H         1 UNK         0.0600 
    130 H130        1.1854  -16.5018  -48.2609 H         1 UNK         0.3000 
    131 H131        1.7912  -14.1295  -46.6449 H         1 UNK         0.0600 
    132 H132        1.2796  -13.3294  -49.0319 H         1 UNK         0.0800 
    133 H133        2.7625  -12.8173  -48.2999 H         1 UNK         0.0800 
    134 H134        1.3610  -13.6356  -51.4970 H         1 UNK         0.0800 
    135 H135        2.4649  -14.6734  -52.3644 H         1 UNK         0.0800 
    136 H136       -0.7212  -14.7446  -51.7729 H         1 UNK         0.1150 
    137 H137       -1.2018  -18.8434  -50.6437 H         1 UNK         0.1150 
    138 H138        2.6827  -17.0598  -50.5514 H         1 UNK         0.1150 
    139 H139        1.0184  -20.2002  -50.7530 H         1 UNK         0.0800 
    140 H140        2.4609  -19.4207  -50.1490 H         1 UNK         0.0800 
    141 H141        2.3134  -21.7238  -48.6169 H         1 UNK         0.0800 
    142 H142        0.7098  -22.0791  -49.1867 H         1 UNK         0.0800 
    143 H143        1.3081  -23.3619  -47.1735 H         1 UNK         0.0600 
    144 H144        1.9166  -20.7764  -45.9727 H         1 UNK         0.3000 
    145 H145        2.6527  -22.1216  -42.7885 H         1 UNK         0.0600 
    146 H146        4.8826  -21.1063  -43.1908 H         1 UNK         0.0600 
    147 H147        4.7536  -22.6305  -44.0554 H         1 UNK         0.0600 
    148 H148        4.6042  -21.1106  -44.9306 H         1 UNK         0.0600 
    149 H149        3.0192  -19.5150  -43.8926 H         1 UNK         0.3000 
    150 H150        1.7024  -17.8401  -43.1186 H         1 UNK         0.0600 
    151 H151        1.1653  -18.1610  -45.5046 H         1 UNK         0.0600 
    152 H152        0.0642  -16.9651  -44.8457 H         1 UNK         0.0600 
    153 H153       -0.4930  -18.6093  -45.1278 H         1 UNK         0.0600 
    154 H154       -1.0914  -17.6347  -42.8019 H         1 UNK         0.3000 
    155 H155       -1.4860  -18.3573  -39.4572 H         1 UNK         0.0600 
    156 H156       -0.5554  -15.5144  -40.1140 H         1 UNK         0.0600 
    157 H157        0.0236  -16.5196  -38.7957 H         1 UNK         0.0600 
    158 H158       -1.6384  -15.9516  -38.7927 H         1 UNK         0.0600 
    159 H159       -2.5841  -16.3443  -41.2935 H         1 UNK         0.3000 
    160 H160       -4.6948  -18.5107  -42.9763 H         1 UNK         0.0600 
    161 H161       -5.7761  -16.8920  -40.6072 H         1 UNK         0.0600 
    162 H162       -6.0655  -18.6048  -40.8869 H         1 UNK         0.0600 
    163 H163       -6.7038  -17.4189  -42.0128 H         1 UNK         0.0600 
    164 H164       -4.9640  -15.7165  -42.6339 H         1 UNK         0.3000 
    165 H165       -3.6473  -14.9672  -45.4932 H         1 UNK         0.0600 
    166 H166       -4.3068  -12.8578  -44.3337 H         1 UNK         0.0600 
    167 H167       -5.3909  -14.1695  -43.9236 H         1 UNK         0.0600 
    168 H168       -4.1616  -13.6472  -42.7693 H         1 UNK         0.0600 
    169 H169       -1.6577  -14.0395  -45.3980 H         1 UNK         0.3000 
    170 H170        0.3239  -13.3454  -44.7837 H         1 UNK         0.0600 
    171 H171       -1.0505  -11.3612  -44.1894 H         1 UNK         0.0600 
    172 H172       -0.5112  -11.4613  -42.5177 H         1 UNK         0.0600 
    173 H173        0.6406  -11.0890  -43.8014 H         1 UNK         0.0600 
    174 H174        1.2769  -13.0526  -42.0248 H         1 UNK         0.3000 
    175 H175        3.6557  -13.8263  -42.0092 H         1 UNK         0.0600 
    176 H176        2.2519  -16.3605  -40.9831 H         1 UNK         0.0600 
    177 H177        3.4990  -15.4601  -40.1305 H         1 UNK         0.0600 
    178 H178        1.9209  -14.7371  -40.3904 H         1 UNK         0.0600 
    179 H179        3.7509  -16.2499  -43.5653 H         1 UNK         0.3000 
    180 H180        7.2688  -16.3550  -43.4172 H         1 UNK         0.0600 
    181 H181        7.0380  -18.8416  -43.2326 H         1 UNK         0.0600 
    182 H182        5.4568  -18.6380  -42.4781 H         1 UNK         0.0600 
    183 H183        6.8976  -18.0396  -41.6758 H         1 UNK         0.0600 
    184 H184        6.4308  -16.5021  -45.4289 H         1 UNK         0.3000 
    185 H185        5.4251  -17.1642  -47.2246 H         1 UNK         0.0600 
    186 H186        4.2152  -19.0273  -48.3409 H         1 UNK         0.0600 
    187 H187        5.2094  -19.6326  -47.0255 H         1 UNK         0.0600 
    188 H188        3.4709  -19.4894  -46.8115 H         1 UNK         0.0600 
    189 H189        2.5255  -17.2765  -47.2910 H         1 UNK         0.3000 
    190 H190       -0.4565  -21.2818  -45.0740 H         1 UNK         0.3000 
    191 H191       -3.0727  -21.5936  -46.1961 H         1 UNK         0.0600 
    192 H192       -3.8719  -20.7835  -44.0323 H         1 UNK         0.0600 
    193 H193       -2.4766  -19.8320  -44.5093 H         1 UNK         0.0600 
    194 H194       -2.3188  -21.0835  -43.2758 H         1 UNK         0.0600 
    195 H195       -1.0600  -23.6637  -44.1986 H         1 UNK         0.3000 
    196 H196       -3.0164  -25.5933  -43.3947 H         1 UNK         0.0600 
    197 H197        0.0146  -25.8319  -43.8107 H         1 UNK         0.0600 
    198 H198       -0.7913  -25.3746  -42.3101 H         1 UNK         0.0600 
    199 H199       -0.9900  -26.9964  -42.9544 H         1 UNK         0.0600 
    200 H200       -1.5096  -24.9524  -46.4676 H         1 UNK         0.3000 
    201 H201       -2.3847  -27.5487  -47.6446 H         1 UNK         0.0600 
    202 H202       -0.4758  -25.4136  -48.7427 H         1 UNK         0.0600 
    203 H203       -0.8425  -26.9678  -49.4783 H         1 UNK         0.0600 
    204 H204        0.0315  -26.9082  -47.9577 H         1 UNK         0.0600 
    205 H205       -4.0309  -25.0758  -46.8243 H         1 UNK         0.3000 
    206 H206       -5.7531  -23.8717  -47.4858 H         1 UNK         0.0600 
    207 H207       -6.6280  -26.0707  -48.3075 H         1 UNK         0.0600 
    208 H208       -7.2355  -24.7252  -49.2576 H         1 UNK         0.0600 
    209 H209       -5.9575  -25.7429  -49.9050 H         1 UNK         0.0600 
    210 H210       -3.2273  -22.9088  -48.1097 H         1 UNK         0.3000 
    211 H211       -2.3068  -21.0697  -48.8971 H         1 UNK         0.0600 
    212 H212       -3.3603  -19.4634  -50.3634 H         1 UNK         0.0600 
    213 H213       -4.5843  -20.0152  -49.2369 H         1 UNK         0.0600 
    214 H214       -4.5676  -20.6094  -50.8999 H         1 UNK         0.0600 
    215 H215       -2.7397  -23.9041  -50.4574 H         1 UNK         0.3000 
    216 H216       -1.6834  -25.1154  -51.9248 H         1 UNK         0.0600 
    217 H217        0.4549  -22.9226  -52.0483 H         1 UNK         0.0600 
    218 H218        0.6200  -24.5652  -52.6480 H         1 UNK         0.0600 
    219 H219        0.4168  -24.2798  -50.9267 H         1 UNK         0.0600 
    220 H220       -1.3567  -21.7952  -53.1855 H         1 UNK         0.3000 
    221 H221       -2.1405  -22.5876  -55.9384 H         1 UNK         0.0600 
    222 H222       -0.1603  -21.0929  -55.6283 H         1 UNK         0.0600 
    223 H223       -1.1686  -19.9168  -54.7857 H         1 UNK         0.0600 
    224 H224       -1.4503  -20.2679  -56.4881 H         1 UNK         0.0600 
    225 H225       -4.1788  -23.1526  -54.3488 H         1 UNK         0.3000 
    226 H226       -5.9005  -21.2113  -53.3945 H         1 UNK         0.0600 
    227 H227       -6.6008  -23.9805  -54.5093 H         1 UNK         0.0600 
    228 H228       -6.0565  -23.6344  -52.8689 H         1 UNK         0.0600 
    229 H229       -7.6086  -23.0291  -53.4235 H         1 UNK         0.0600 
    230 H230       -5.6798  -22.3913  -56.7236 H         1 UNK         0.3000 
    231 H231       -8.0844  -21.2161  -57.7343 H         1 UNK         0.0600 
    232 H232       -5.4967  -22.0392  -59.1601 H         1 UNK         0.0600 
    233 H233       -7.0288  -21.6865  -59.9501 H         1 UNK         0.0600 
    234 H234       -6.8994  -23.0723  -58.8794 H         1 UNK         0.0600 
    235 H235       -4.9270  -19.8459  -57.0179 H         1 UNK         0.3000 
    236 H236       -5.4617  -17.3655  -58.5710 H         1 UNK         0.0600 
    237 H237       -2.9839  -18.2621  -57.0057 H         1 UNK         0.0600 
    238 H238       -3.1879  -18.3672  -58.7534 H         1 UNK         0.0600 
    239 H239       -3.1335  -16.7973  -57.9657 H         1 UNK         0.0600 
    240 H240       -4.8381  -18.5663  -55.2374 H         1 UNK         0.3000 
    241 H241       -5.1977  -16.0248  -53.9854 H         1 UNK         0.0600 
    242 H242       -8.9685  -17.6223  -54.0268 H         1 UNK         0.3800 
    243 H243       -7.6800  -18.5544  -54.7409 H         1 UNK         0.3800 
    244 H244       -5.2198  -18.8212  -52.7664 H         1 UNK         0.0800 
    245 H245       -5.1874  -17.3447  -51.8407 H         1 UNK         0.0800 
    246 H246       -2.9257  -15.6817  -51.7178 H         1 UNK         0.0800 
    247 H247       -3.1555  -17.0351  -50.6324 H         1 UNK         0.0800 
@<TRIPOS>BOND
     1    1    2 1    
     2    1  127 1    
     3    1  128 1    
     4    1  129 1    
     5    2    3 2    
     6    2    4 am   BACKBONE|DICT|INTERRES
     7    4    5 1    
     8    4  130 1    
     9    5    6 1    
    10    5   65 1    
    11    5  131 1    
    12    6    7 1    
    13    6  132 1    
    14    6  133 1    
    15    7    8 1    
    16    8    9 1    
    17    8  134 1    
    18    8  135 1    
    19    9   10 ar   
    20    9   14 ar   
    21   10   11 ar   
    22   10  136 1    
    23   11   12 ar   
    24   11  126 1    
    25   12   13 ar   
    26   12  137 1    
    27   13   14 ar   
    28   13   15 1    
    29   14  138 1    
    30   15   16 1    
    31   15  139 1    
    32   15  140 1    
    33   16   17 1    
    34   17   18 1    
    35   17  141 1    
    36   17  142 1    
    37   18   19 1    
    38   18   67 1    
    39   18  143 1    
    40   19   20 am   BACKBONE|DICT|INTERRES
    41   19  144 1    
    42   20   21 2    
    43   20   22 1    
    44   22   23 1    
    45   22   24 1    
    46   22  145 1    
    47   23  146 1    
    48   23  147 1    
    49   23  148 1    
    50   24   25 am   BACKBONE|DICT|INTERRES
    51   24  149 1    
    52   25   26 2    
    53   25   27 1    
    54   27   28 1    
    55   27   29 1    
    56   27  150 1    
    57   28  151 1    
    58   28  152 1    
    59   28  153 1    
    60   29   30 am   BACKBONE|DICT|INTERRES
    61   29  154 1    
    62   30   31 2    
    63   30   32 1    
    64   32   33 1    
    65   32   34 1    
    66   32  155 1    
    67   33  156 1    
    68   33  157 1    
    69   33  158 1    
    70   34   35 am   BACKBONE|DICT|INTERRES
    71   34  159 1    
    72   35   36 2    
    73   35   37 1    
    74   37   38 1    
    75   37   39 1    
    76   37  160 1    
    77   38  161 1    
    78   38  162 1    
    79   38  163 1    
    80   39   40 am   BACKBONE|DICT|INTERRES
    81   39  164 1    
    82   40   41 2    
    83   40   42 1    
    84   42   43 1    
    85   42   44 1    
    86   42  165 1    
    87   43  166 1    
    88   43  167 1    
    89   43  168 1    
    90   44   45 am   BACKBONE|DICT|INTERRES
    91   44  169 1    
    92   45   46 2    
    93   45   47 1    
    94   47   48 1    
    95   47   49 1    
    96   47  170 1    
    97   48  171 1    
    98   48  172 1    
    99   48  173 1    
   100   49   50 am   BACKBONE|DICT|INTERRES
   101   49  174 1    
   102   50   51 2    
   103   50   52 1    
   104   52   53 1    
   105   52   54 1    
   106   52  175 1    
   107   53  176 1    
   108   53  177 1    
   109   53  178 1    
   110   54   55 am   BACKBONE|DICT|INTERRES
   111   54  179 1    
   112   55   56 2    
   113   55   57 1    
   114   57   58 1    
   115   57   59 1    
   116   57  180 1    
   117   58  181 1    
   118   58  182 1    
   119   58  183 1    
   120   59   60 am   BACKBONE|DICT|INTERRES
   121   59  184 1    
   122   60   61 2    
   123   60   62 1    
   124   62   63 1    
   125   62   64 1    
   126   62  185 1    
   127   63  186 1    
   128   63  187 1    
   129   63  188 1    
   130   64   65 am   BACKBONE|DICT|INTERRES
   131   64  189 1    
   132   65   66 2    
   133   67   68 2    
   134   67   69 am   BACKBONE|DICT|INTERRES
   135   69   70 1    
   136   69  190 1    
   137   70   71 1    
   138   70   72 1    
   139   70  191 1    
   140   71  192 1    
   141   71  193 1    
   142   71  194 1    
   143   72   73 2    
   144   72   74 am   BACKBONE|DICT|INTERRES
   145   74   75 1    
   146   74  195 1    
   147   75   76 1    
   148   75   77 1    
   149   75  196 1    
   150   76  197 1    
   151   76  198 1    
   152   76  199 1    
   153   77   78 2    
   154   77   79 am   BACKBONE|DICT|INTERRES
   155   79   80 1    
   156   79  200 1    
   157   80   81 1    
   158   80   82 1    
   159   80  201 1    
   160   81  202 1    
   161   81  203 1    
   162   81  204 1    
   163   82   83 2    
   164   82   84 am   BACKBONE|DICT|INTERRES
   165   84   85 1    
   166   84  205 1    
   167   85   86 1    
   168   85   87 1    
   169   85  206 1    
   170   86  207 1    
   171   86  208 1    
   172   86  209 1    
   173   87   88 2    
   174   87   89 am   BACKBONE|DICT|INTERRES
   175   89   90 1    
   176   89  210 1    
   177   90   91 1    
   178   90   92 1    
   179   90  211 1    
   180   91  212 1    
   181   91  213 1    
   182   91  214 1    
   183   92   93 2    
   184   92   94 am   BACKBONE|DICT|INTERRES
   185   94   95 1    
   186   94  215 1    
   187   95   96 1    
   188   95   97 1    
   189   95  216 1    
   190   96  217 1    
   191   96  218 1    
   192   96  219 1    
   193   97   98 2    
   194   97   99 am   BACKBONE|DICT|INTERRES
   195   99  100 1    
   196   99  220 1    
   197  100  101 1    
   198  100  102 1    
   199  100  221 1    
   200  101  222 1    
   201  101  223 1    
   202  101  224 1    
   203  102  103 2    
   204  102  104 am   BACKBONE|DICT|INTERRES
   205  104  105 1    
   206  104  225 1    
   207  105  106 1    
   208  105  107 1    
   209  105  226 1    
   210  106  227 1    
   211  106  228 1    
   212  106  229 1    
   213  107  108 2    
   214  107  109 am   BACKBONE|DICT|INTERRES
   215  109  110 1    
   216  109  230 1    
   217  110  111 1    
   218  110  112 1    
   219  110  231 1    
   220  111  232 1    
   221  111  233 1    
   222  111  234 1    
   223  112  113 2    
   224  112  114 am   BACKBONE|DICT|INTERRES
   225  114  115 1    
   226  114  235 1    
   227  115  116 1    
   228  115  117 1    
   229  115  236 1    
   230  116  237 1    
   231  116  238 1    
   232  116  239 1    
   233  117  118 2    
   234  117  119 am   BACKBONE|DICT|INTERRES
   235  119  120 1    
   236  119  240 1    
   237  120  121 1    
   238  120  124 1    
   239  120  241 1    
   240  121  122 am   BACKBONE|DICT|INTERRES
   241  121  123 2    
   242  122  242 1    
   243  122  243 1    
   244  124  125 1    
   245  124  244 1    
   246  124  245 1    
   247  125  126 1    
   248  126  246 1    
   249  126  247 1    
@<TRIPOS>SUBSTRUCTURE
     1 UNK         1 GROUP             0       ****    0 ROOT    
