@<TRIPOS>MOLECULE
3R540
247   249    1
SMALL
USER_CHARGES


@<TRIPOS>ATOM
      1 CA         -6.6414  -18.4209  -46.3397 C.3       0 UNK        -0.1800 
      2 C          -6.3647  -16.9260  -46.3952 C.2       0 UNK         0.5000 
      3 O          -7.2934  -16.1262  -46.2835 O.2       0 UNK        -0.5000 
      4 N          -5.0910  -16.5562  -46.5775 N.am      1 UNK        -0.5000 
      5 CA         -4.6075  -15.1741  -46.6825 C.3       1 UNK         0.1400 
      6 C6         -3.1220  -15.0716  -47.1060 C.3       23 UNK        -0.0398 
      7 S7         -2.7090  -16.0666  -48.5787 S.3       23 UNK        -0.2404 
      8 C8         -1.2139  -15.2008  -49.1554 C.3       23 UNK        -0.0205 
      9 C9         -0.2339  -16.1413  -49.8412 C.ar      23 UNK        -0.0193 
     10 C10         0.1449  -15.9416  -51.1718 C.ar      23 UNK        -0.1150 
     11 C11         1.0985  -16.7710  -51.7748 C.ar      23 UNK        -0.0193 
     12 C12         1.6622  -17.8160  -51.0326 C.ar      23 UNK        -0.1150 
     13 C13         1.2786  -18.0356  -49.7064 C.ar      23 UNK        -0.0193 
     14 C14         0.3375  -17.1891  -49.1178 C.ar      23 UNK        -0.1150 
     15 C15         1.9067  -19.1603  -48.8981 C.3       23 UNK        -0.0205 
     16 S16         1.0436  -20.7446  -49.1293 S.3       23 UNK        -0.2404 
     17 C17        -0.5415  -20.4973  -48.2556 C.3       23 UNK        -0.0398 
     18 CA         -0.9263  -21.7398  -47.4191 C.3       11 UNK         0.1400 
     19 N          -0.0561  -21.9441  -46.2558 N.am      11 UNK        -0.5000 
     20 C          -0.0151  -23.0852  -45.5529 C.2       10 UNK         0.5000 
     21 O          -0.6630  -24.0882  -45.8492 O.2       10 UNK        -0.5000 
     22 CA          0.8432  -23.0923  -44.2773 C.3       10 UNK         0.1400 
     23 CB          2.3172  -23.3797  -44.6008 C.3       10 UNK        -0.1800 
     24 N           0.7246  -21.8348  -43.5389 N.am      10 UNK        -0.5000 
     25 C          -0.3649  -21.4722  -42.8450 C.2       9 UNK         0.5000 
     26 O          -1.3641  -22.1808  -42.7308 O.2       9 UNK        -0.5000 
     27 CA         -0.3572  -20.0678  -42.2108 C.3       9 UNK         0.1400 
     28 CB          0.3211  -20.0971  -40.8335 C.3       9 UNK        -0.1800 
     29 N           0.3092  -19.0779  -43.0539 N.am      9 UNK        -0.5000 
     30 C          -0.1333  -18.6889  -44.2570 C.2       8 UNK         0.5000 
     31 O          -1.1875  -19.0729  -44.7602 O.2       8 UNK        -0.5000 
     32 CA          0.7924  -17.7786  -45.0771 C.3       8 UNK         0.1400 
     33 CB          0.3978  -16.3052  -44.9279 C.3       8 UNK        -0.1800 
     34 N           2.2130  -17.9633  -44.7705 N.am      8 UNK        -0.5000 
     35 C           2.8886  -19.0938  -45.0317 C.2       7 UNK         0.5000 
     36 O           2.3532  -20.0960  -45.5062 O.2       7 UNK        -0.5000 
     37 CA          4.3974  -19.1277  -44.7228 C.3       7 UNK         0.1400 
     38 CB          5.2019  -19.0076  -46.0259 C.3       7 UNK        -0.1800 
     39 N           4.8289  -18.0752  -43.8028 N.am      7 UNK        -0.5000 
     40 C           4.5945  -18.0632  -42.4831 C.2       6 UNK         0.5000 
     41 O           4.0159  -18.9692  -41.8828 O.2       6 UNK        -0.5000 
     42 CA          5.0423  -16.7975  -41.7209 C.3       6 UNK         0.1400 
     43 CB          6.4837  -16.9541  -41.2138 C.3       6 UNK        -0.1800 
     44 N           4.9402  -15.5717  -42.5249 N.am      6 UNK        -0.5000 
     45 C           3.7895  -15.0960  -43.0175 C.2       5 UNK         0.5000 
     46 O           2.6964  -15.6299  -42.8103 O.2       5 UNK        -0.5000 
     47 CA          3.8692  -13.8686  -43.9379 C.3       5 UNK         0.1400 
     48 CB          4.5794  -14.2193  -45.2603 C.3       5 UNK        -0.1800 
     49 N           2.5023  -13.4411  -44.2066 N.am      5 UNK        -0.5000 
     50 C           2.0938  -12.2742  -44.7131 C.2       4 UNK         0.5000 
     51 O           2.8563  -11.3654  -45.0433 O.2       4 UNK        -0.5000 
     52 CA          0.5696  -12.0937  -44.8835 C.3       4 UNK         0.1400 
     53 CB          0.1625  -12.3654  -46.3404 C.3       4 UNK        -0.1800 
     54 N          -0.2292  -12.9589  -44.0075 N.am      4 UNK        -0.5000 
     55 C          -0.3188  -12.8319  -42.6758 C.2       3 UNK         0.5000 
     56 O           0.2491  -11.9419  -42.0413 O.2       3 UNK        -0.5000 
     57 CA         -1.1849  -13.8724  -41.9411 C.3       3 UNK         0.1400 
     58 CB         -1.7640  -13.3403  -40.6166 C.3       3 UNK        -0.1800 
     59 N          -2.2794  -14.3579  -42.7881 N.am      3 UNK        -0.5000 
     60 C          -2.6677  -15.6379  -42.8761 C.2       2 UNK         0.5000 
     61 O          -2.0849  -16.5591  -42.3056 O.2       2 UNK        -0.5000 
     62 CA         -3.9129  -15.9536  -43.7312 C.3       2 UNK         0.1400 
     63 CB         -4.9178  -16.7960  -42.9241 C.3       2 UNK        -0.1800 
     64 N          -4.5929  -14.7327  -44.1853 N.am      2 UNK        -0.5000 
     65 C          -4.8809  -14.3045  -45.4273 C.2       1 UNK         0.5000 
     66 O          -5.3854  -13.1954  -45.5951 O.2       1 UNK        -0.5000 
     67 C          -2.4211  -21.7319  -47.0297 C.2       11 UNK         0.5000 
     68 O          -3.2380  -22.2800  -47.7706 O.2       11 UNK        -0.5000 
     69 N          -2.7561  -21.1693  -45.8601 N.am      12 UNK        -0.5000 
     70 CA         -4.0971  -21.2154  -45.2765 C.3       12 UNK         0.1400 
     71 CB         -4.1926  -20.2205  -44.1128 C.3       12 UNK        -0.1800 
     72 C          -4.5088  -22.6315  -44.8358 C.2       12 UNK         0.5000 
     73 O          -5.6544  -23.0198  -45.0632 O.2       12 UNK        -0.5000 
     74 N          -3.5665  -23.4036  -44.2732 N.am      13 UNK        -0.5000 
     75 CA         -3.7469  -24.8229  -43.9439 C.3       13 UNK         0.1400 
     76 CB         -2.5537  -25.3230  -43.1165 C.3       13 UNK        -0.1800 
     77 C          -3.9617  -25.7054  -45.1913 C.2       13 UNK         0.5000 
     78 O          -4.6916  -26.6938  -45.1189 O.2       13 UNK        -0.5000 
     79 N          -3.3800  -25.2933  -46.3261 N.am      14 UNK        -0.5000 
     80 CA         -3.6079  -25.8485  -47.6625 C.3       14 UNK         0.1400 
     81 CB         -2.3628  -25.5874  -48.5294 C.3       14 UNK        -0.1800 
     82 C          -4.8914  -25.3083  -48.3372 C.2       14 UNK         0.5000 
     83 O          -5.0478  -25.4692  -49.5480 O.2       14 UNK        -0.5000 
     84 N          -5.7795  -24.6601  -47.5667 N.am      15 UNK        -0.5000 
     85 CA         -7.0849  -24.1177  -47.9618 C.3       15 UNK         0.1400 
     86 CB         -8.0504  -25.2586  -48.3456 C.3       15 UNK        -0.1800 
     87 C          -6.9965  -23.0199  -49.0418 C.2       15 UNK         0.5000 
     88 O          -7.9186  -22.8735  -49.8453 O.2       15 UNK        -0.5000 
     89 N          -5.8755  -22.2830  -49.0486 N.am      16 UNK        -0.5000 
     90 CA         -5.4948  -21.2366  -50.0008 C.3       16 UNK         0.1400 
     91 CB         -6.5108  -20.0762  -50.0113 C.3       16 UNK        -0.1800 
     92 C          -5.1869  -21.7547  -51.4205 C.2       16 UNK         0.5000 
     93 O          -4.9631  -20.9370  -52.3125 O.2       16 UNK        -0.5000 
     94 N          -5.1116  -23.0801  -51.6221 N.am      17 UNK        -0.5000 
     95 CA         -4.7510  -23.6874  -52.9074 C.3       17 UNK         0.1400 
     96 CB         -4.9928  -25.2025  -52.8554 C.3       17 UNK        -0.1800 
     97 C          -3.2951  -23.3802  -53.2993 C.2       17 UNK         0.5000 
     98 O          -3.0171  -23.1001  -54.4644 O.2       17 UNK        -0.5000 
     99 N          -2.4047  -23.3739  -52.2987 N.am      18 UNK        -0.5000 
    100 CA        -1.0014  -22.9903  -52.4412 C.3       18 UNK         0.1400 
    101 CB        -0.2339  -23.4520  -51.1961 C.3       18 UNK        -0.1800 
    102 C         -0.8099  -21.4792  -52.6851 C.2       18 UNK         0.5000 
    103 O          0.1672  -21.0998  -53.3275 O.2       18 UNK        -0.5000 
    104 N         -1.7516  -20.6532  -52.2032 N.am      19 UNK        -0.5000 
    105 CA        -1.7901  -19.2134  -52.4664 C.3       19 UNK         0.1400 
    106 CB        -2.6221  -18.5011  -51.3896 C.3       19 UNK        -0.1800 
    107 C         -2.3324  -18.9088  -53.8742 C.2       19 UNK         0.5000 
    108 O         -1.8145  -18.0197  -54.5474 O.2       19 UNK        -0.5000 
    109 N         -3.3421  -19.6715  -54.3187 N.am      20 UNK        -0.5000 
    110 CA        -3.8882  -19.6156  -55.6771 C.3       20 UNK         0.1400 
    111 CB        -5.1597  -20.4735  -55.7545 C.3       20 UNK        -0.1800 
    112 C         -2.8627  -20.0533  -56.7409 C.2       20 UNK         0.5000 
    113 O         -2.8054  -19.4573  -57.8182 O.2       20 UNK        -0.5000 
    114 N         -2.0296  -21.0459  -56.3945 N.am      21 UNK        -0.5000 
    115 CA        -0.9208  -21.5552  -57.2058 C.3       21 UNK         0.1400 
    116 CB        -0.3382  -22.8095  -56.5364 C.3       21 UNK        -0.1800 
    117 C          0.1925  -20.5251  -57.4968 C.2       21 UNK         0.5000 
    118 O          0.9918  -20.7583  -58.4051 O.2       21 UNK        -0.5000 
    119 N          0.2213  -19.4039  -56.7616 N.am      22 UNK        -0.5000 
    120 CA         1.0799  -18.2426  -57.0497 C.3       22 UNK         0.1400 
    121 C          0.7061  -17.4882  -58.3625 C.2       22 UNK         0.5000 
    122 N         -0.4844  -17.6709  -58.9256 N.am      22 UNK        -0.7600 
    123 O          1.5148  -16.7229  -58.8805 O.2       22 UNK        -0.5000 
    124 C124        1.1345  -17.2351  -55.8722 C.3       23 UNK        -0.0398 
    125 S125        1.5736  -17.9786  -54.2654 S.3       23 UNK        -0.2404 
    126 C126        1.5438  -16.4927  -53.2074 C.3       23 UNK        -0.0205 
    127 H127       -5.8383  -18.9874  -46.8095 H         1 UNK         0.0600 
    128 H128       -7.5685  -18.6548  -46.8631 H         1 UNK         0.0600 
    129 H129       -6.7406  -18.7492  -45.3053 H         1 UNK         0.0600 
    130 H130       -4.3851  -17.2671  -46.7004 H         1 UNK         0.3000 
    131 H131       -5.1884  -14.7267  -47.4923 H         1 UNK         0.0600 
    132 H132       -2.4655  -15.3860  -46.2976 H         1 UNK         0.0800 
    133 H133       -2.8721  -14.0291  -47.3134 H         1 UNK         0.0800 
    134 H134       -0.7027  -14.7420  -48.3089 H         1 UNK         0.0800 
    135 H135       -1.5083  -14.3862  -49.8187 H         1 UNK         0.0800 
    136 H136       -0.2860  -15.1233  -51.7313 H         1 UNK         0.1150 
    137 H137        2.4028  -18.4588  -51.4872 H         1 UNK         0.1150 
    138 H138        0.0431  -17.3345  -48.0911 H         1 UNK         0.1150 
    139 H139        2.9478  -19.2860  -49.1986 H         1 UNK         0.0800 
    140 H140        1.9325  -18.9039  -47.8413 H         1 UNK         0.0800 
    141 H141       -1.2953  -20.2969  -49.0177 H         1 UNK         0.0800 
    142 H142       -0.4973  -19.6117  -47.6221 H         1 UNK         0.0800 
    143 H143       -0.7977  -22.6144  -48.0583 H         1 UNK         0.0600 
    144 H144        0.5498  -21.1789  -45.9834 H         1 UNK         0.3000 
    145 H145        0.4814  -23.8984  -43.6356 H         1 UNK         0.0600 
    146 H146        2.9260  -23.3878  -43.6967 H         1 UNK         0.0600 
    147 H147        2.4242  -24.3568  -45.0734 H         1 UNK         0.0600 
    148 H148        2.7392  -22.6429  -45.2838 H         1 UNK         0.0600 
    149 H149        1.4793  -21.1723  -43.6494 H         1 UNK         0.3000 
    150 H150       -1.3944  -19.7534  -42.0765 H         1 UNK         0.0600 
    151 H151       -0.1615  -20.8212  -40.1758 H         1 UNK         0.0600 
    152 H152        0.2607  -19.1241  -40.3453 H         1 UNK         0.0600 
    153 H153        1.3748  -20.3699  -40.9083 H         1 UNK         0.0600 
    154 H154        1.1909  -18.7127  -42.7235 H         1 UNK         0.3000 
    155 H155        0.6517  -18.0539  -46.1200 H         1 UNK         0.0600 
    156 H156        0.4104  -15.9903  -43.8850 H         1 UNK         0.0600 
    157 H157       -0.6123  -16.1461  -45.2990 H         1 UNK         0.0600 
    158 H158        1.0619  -15.6559  -45.4981 H         1 UNK         0.0600 
    159 H159        2.6833  -17.1961  -44.3088 H         1 UNK         0.3000 
    160 H160        4.6173  -20.0975  -44.2716 H         1 UNK         0.0600 
    161 H161        5.0278  -18.0510  -46.5205 H         1 UNK         0.0600 
    162 H162        4.9270  -19.7949  -46.7295 H         1 UNK         0.0600 
    163 H163        6.2719  -19.1005  -45.8393 H         1 UNK         0.0600 
    164 H164        5.3152  -17.2899  -44.2092 H         1 UNK         0.3000 
    165 H165        4.3856  -16.6866  -40.8554 H         1 UNK         0.0600 
    166 H166        6.7819  -16.1019  -40.6029 H         1 UNK         0.0600 
    167 H167        6.5850  -17.8468  -40.5950 H         1 UNK         0.0600 
    168 H168        7.1936  -17.0430  -42.0371 H         1 UNK         0.0600 
    169 H169        5.8041  -15.0896  -42.7288 H         1 UNK         0.3000 
    170 H170        4.4045  -13.0720  -43.4178 H         1 UNK         0.0600 
    171 H171        5.6060  -14.5431  -45.0865 H         1 UNK         0.0600 
    172 H172        4.0652  -15.0218  -45.7911 H         1 UNK         0.0600 
    173 H173        4.6271  -13.3582  -45.9269 H         1 UNK         0.0600 
    174 H174        1.8117  -14.1138  -43.8987 H         1 UNK         0.3000 
    175 H175        0.3317  -11.0544  -44.6473 H         1 UNK         0.0600 
    176 H176        0.3881  -13.3910  -46.6335 H         1 UNK         0.0600 
    177 H177       -0.9034  -12.1959  -46.4937 H         1 UNK         0.0600 
    178 H178        0.6969  -11.7051  -47.0246 H         1 UNK         0.0600 
    179 H179       -0.7271  -13.7149  -44.4506 H         1 UNK         0.3000 
    180 H180       -0.5059  -14.6942  -41.7037 H         1 UNK         0.0600 
    181 H181       -2.3391  -14.1101  -40.1018 H         1 UNK         0.0600 
    182 H182       -2.4206  -12.4854  -40.7818 H         1 UNK         0.0600 
    183 H183       -0.9720  -13.0234  -39.9370 H         1 UNK         0.0600 
    184 H184       -2.7939  -13.6525  -43.2969 H         1 UNK         0.3000 
    185 H185       -3.5467  -16.5504  -44.5640 H         1 UNK         0.0600 
    186 H186       -5.7803  -17.0758  -43.5270 H         1 UNK         0.0600 
    187 H187       -4.4645  -17.7192  -42.5617 H         1 UNK         0.0600 
    188 H188       -5.2858  -16.2523  -42.0533 H         1 UNK         0.0600 
    189 H189       -4.8671  -14.1208  -43.4301 H         1 UNK         0.3000 
    190 H190       -2.0523  -20.6549  -45.3373 H         1 UNK         0.3000 
    191 H191       -4.8040  -20.9030  -46.0463 H         1 UNK         0.0600 
    192 H192       -5.1946  -20.2145  -43.6822 H         1 UNK         0.0600 
    193 H193       -3.9760  -19.2075  -44.4508 H         1 UNK         0.0600 
    194 H194       -3.4916  -20.4638  -43.3145 H         1 UNK         0.0600 
    195 H195       -2.6660  -22.9949  -44.0457 H         1 UNK         0.3000 
    196 H196       -4.6429  -24.9073  -43.3255 H         1 UNK         0.0600 
    197 H197       -1.6212  -25.2696  -43.6771 H         1 UNK         0.0600 
    198 H198       -2.4317  -24.7371  -42.2054 H         1 UNK         0.0600 
    199 H199       -2.6958  -26.3623  -42.8176 H         1 UNK         0.0600 
    200 H200       -2.7451  -24.5056  -46.2734 H         1 UNK         0.3000 
    201 H201       -3.7295  -26.9296  -47.5730 H         1 UNK         0.0600 
    202 H202       -2.2224  -24.5253  -48.7252 H         1 UNK         0.0600 
    203 H203       -2.4422  -26.0893  -49.4944 H         1 UNK         0.0600 
    204 H204       -1.4595  -25.9596  -48.0457 H         1 UNK         0.0600 
    205 H205       -5.5404  -24.5089  -46.5945 H         1 UNK         0.3000 
    206 H206       -7.4908  -23.6303  -47.0745 H         1 UNK         0.0600 
    207 H207       -8.0992  -26.0138  -47.5612 H         1 UNK         0.0600 
    208 H208       -9.0632  -24.8823  -48.4941 H         1 UNK         0.0600 
    209 H209       -7.7469  -25.7527  -49.2691 H         1 UNK         0.0600 
    210 H210       -5.1515  -22.5128  -48.3742 H         1 UNK         0.3000 
    211 H211       -4.5536  -20.8312  -49.6277 H         1 UNK         0.0600 
    212 H212       -6.1181  -19.2188  -50.5590 H         1 UNK         0.0600 
    213 H213       -6.7363  -19.7383  -49.0012 H         1 UNK         0.0600 
    214 H214       -7.4492  -20.3603  -50.4876 H         1 UNK         0.0600 
    215 H215       -5.2879  -23.7128  -50.8502 H         1 UNK         0.3000 
    216 H216       -5.4022  -23.2650  -53.6755 H         1 UNK         0.0600 
    217 H217       -4.3376  -25.6924  -52.1344 H         1 UNK         0.0600 
    218 H218       -4.8070  -25.6590  -53.8284 H         1 UNK         0.0600 
    219 H219       -6.0230  -25.4292  -52.5798 H         1 UNK         0.0600 
    220 H220       -2.7219  -23.6214  -51.3732 H         1 UNK         0.3000 
    221 H221       -0.5899  -23.5163  -53.3052 H         1 UNK         0.0600 
    222 H222       -0.2764  -24.5354  -51.0836 H         1 UNK         0.0600 
    223 H223       -0.6444  -23.0052  -50.2926 H         1 UNK         0.0600 
    224 H224        0.8184  -23.1709  -51.2560 H         1 UNK         0.0600 
    225 H225       -2.5475  -21.0510  -51.7304 H         1 UNK         0.3000 
    226 H226       -0.7726  -18.8239  -52.4107 H         1 UNK         0.0600 
    227 H227       -3.6542  -18.8482  -51.3679 H         1 UNK         0.0600 
    228 H228       -2.1942  -18.6469  -50.3990 H         1 UNK         0.0600 
    229 H229       -2.6446  -17.4257  -51.5699 H         1 UNK         0.0600 
    230 H230       -3.7837  -20.3231  -53.6764 H         1 UNK         0.3000 
    231 H231       -4.1627  -18.5796  -55.8857 H         1 UNK         0.0600 
    232 H232       -4.9509  -21.5243  -55.5542 H         1 UNK         0.0600 
    233 H233       -5.6118  -20.4116  -56.7451 H         1 UNK         0.0600 
    234 H234       -5.9058  -20.1382  -55.0337 H         1 UNK         0.0600 
    235 H235       -2.1963  -21.5219  -55.5147 H         1 UNK         0.3000 
    236 H236       -1.3369  -21.8519  -58.1705 H         1 UNK         0.0600 
    237 H237       -1.1015  -23.5747  -56.3948 H         1 UNK         0.0600 
    238 H238        0.4500  -23.2495  -57.1486 H         1 UNK         0.0600 
    239 H239        0.0948  -22.5800  -55.5635 H         1 UNK         0.0600 
    240 H240       -0.4522  -19.2822  -56.0172 H         1 UNK         0.3000 
    241 H241        2.0920  -18.6245  -57.1955 H         1 UNK         0.0600 
    242 H242       -0.7099  -17.1783  -59.7753 H         1 UNK         0.3800 
    243 H243       -1.1704  -18.2907  -58.5105 H         1 UNK         0.3800 
    244 H244        0.1700  -16.7361  -55.7637 H         1 UNK         0.0800 
    245 H245        1.8617  -16.4492  -56.0846 H         1 UNK         0.0800 
    246 H246        0.8855  -15.7480  -53.6572 H         1 UNK         0.0800 
    247 H247        2.5406  -16.0507  -53.1899 H         1 UNK         0.0800 
@<TRIPOS>BOND
     1    1    2 1    
     2    1  127 1    
     3    1  128 1    
     4    1  129 1    
     5    2    3 2    
     6    2    4 am   BACKBONE|DICT|INTERRES
     7    4    5 1    
     8    4  130 1    
     9    5    6 1    
    10    5   65 1    
    11    5  131 1    
    12    6    7 1    
    13    6  132 1    
    14    6  133 1    
    15    7    8 1    
    16    8    9 1    
    17    8  134 1    
    18    8  135 1    
    19    9   10 ar   
    20    9   14 ar   
    21   10   11 ar   
    22   10  136 1    
    23   11   12 ar   
    24   11  126 1    
    25   12   13 ar   
    26   12  137 1    
    27   13   14 ar   
    28   13   15 1    
    29   14  138 1    
    30   15   16 1    
    31   15  139 1    
    32   15  140 1    
    33   16   17 1    
    34   17   18 1    
    35   17  141 1    
    36   17  142 1    
    37   18   19 1    
    38   18   67 1    
    39   18  143 1    
    40   19   20 am   BACKBONE|DICT|INTERRES
    41   19  144 1    
    42   20   21 2    
    43   20   22 1    
    44   22   23 1    
    45   22   24 1    
    46   22  145 1    
    47   23  146 1    
    48   23  147 1    
    49   23  148 1    
    50   24   25 am   BACKBONE|DICT|INTERRES
    51   24  149 1    
    52   25   26 2    
    53   25   27 1    
    54   27   28 1    
    55   27   29 1    
    56   27  150 1    
    57   28  151 1    
    58   28  152 1    
    59   28  153 1    
    60   29   30 am   BACKBONE|DICT|INTERRES
    61   29  154 1    
    62   30   31 2    
    63   30   32 1    
    64   32   33 1    
    65   32   34 1    
    66   32  155 1    
    67   33  156 1    
    68   33  157 1    
    69   33  158 1    
    70   34   35 am   BACKBONE|DICT|INTERRES
    71   34  159 1    
    72   35   36 2    
    73   35   37 1    
    74   37   38 1    
    75   37   39 1    
    76   37  160 1    
    77   38  161 1    
    78   38  162 1    
    79   38  163 1    
    80   39   40 am   BACKBONE|DICT|INTERRES
    81   39  164 1    
    82   40   41 2    
    83   40   42 1    
    84   42   43 1    
    85   42   44 1    
    86   42  165 1    
    87   43  166 1    
    88   43  167 1    
    89   43  168 1    
    90   44   45 am   BACKBONE|DICT|INTERRES
    91   44  169 1    
    92   45   46 2    
    93   45   47 1    
    94   47   48 1    
    95   47   49 1    
    96   47  170 1    
    97   48  171 1    
    98   48  172 1    
    99   48  173 1    
   100   49   50 am   BACKBONE|DICT|INTERRES
   101   49  174 1    
   102   50   51 2    
   103   50   52 1    
   104   52   53 1    
   105   52   54 1    
   106   52  175 1    
   107   53  176 1    
   108   53  177 1    
   109   53  178 1    
   110   54   55 am   BACKBONE|DICT|INTERRES
   111   54  179 1    
   112   55   56 2    
   113   55   57 1    
   114   57   58 1    
   115   57   59 1    
   116   57  180 1    
   117   58  181 1    
   118   58  182 1    
   119   58  183 1    
   120   59   60 am   BACKBONE|DICT|INTERRES
   121   59  184 1    
   122   60   61 2    
   123   60   62 1    
   124   62   63 1    
   125   62   64 1    
   126   62  185 1    
   127   63  186 1    
   128   63  187 1    
   129   63  188 1    
   130   64   65 am   BACKBONE|DICT|INTERRES
   131   64  189 1    
   132   65   66 2    
   133   67   68 2    
   134   67   69 am   BACKBONE|DICT|INTERRES
   135   69   70 1    
   136   69  190 1    
   137   70   71 1    
   138   70   72 1    
   139   70  191 1    
   140   71  192 1    
   141   71  193 1    
   142   71  194 1    
   143   72   73 2    
   144   72   74 am   BACKBONE|DICT|INTERRES
   145   74   75 1    
   146   74  195 1    
   147   75   76 1    
   148   75   77 1    
   149   75  196 1    
   150   76  197 1    
   151   76  198 1    
   152   76  199 1    
   153   77   78 2    
   154   77   79 am   BACKBONE|DICT|INTERRES
   155   79   80 1    
   156   79  200 1    
   157   80   81 1    
   158   80   82 1    
   159   80  201 1    
   160   81  202 1    
   161   81  203 1    
   162   81  204 1    
   163   82   83 2    
   164   82   84 am   BACKBONE|DICT|INTERRES
   165   84   85 1    
   166   84  205 1    
   167   85   86 1    
   168   85   87 1    
   169   85  206 1    
   170   86  207 1    
   171   86  208 1    
   172   86  209 1    
   173   87   88 2    
   174   87   89 am   BACKBONE|DICT|INTERRES
   175   89   90 1    
   176   89  210 1    
   177   90   91 1    
   178   90   92 1    
   179   90  211 1    
   180   91  212 1    
   181   91  213 1    
   182   91  214 1    
   183   92   93 2    
   184   92   94 am   BACKBONE|DICT|INTERRES
   185   94   95 1    
   186   94  215 1    
   187   95   96 1    
   188   95   97 1    
   189   95  216 1    
   190   96  217 1    
   191   96  218 1    
   192   96  219 1    
   193   97   98 2    
   194   97   99 am   BACKBONE|DICT|INTERRES
   195   99  100 1    
   196   99  220 1    
   197  100  101 1    
   198  100  102 1    
   199  100  221 1    
   200  101  222 1    
   201  101  223 1    
   202  101  224 1    
   203  102  103 2    
   204  102  104 am   BACKBONE|DICT|INTERRES
   205  104  105 1    
   206  104  225 1    
   207  105  106 1    
   208  105  107 1    
   209  105  226 1    
   210  106  227 1    
   211  106  228 1    
   212  106  229 1    
   213  107  108 2    
   214  107  109 am   BACKBONE|DICT|INTERRES
   215  109  110 1    
   216  109  230 1    
   217  110  111 1    
   218  110  112 1    
   219  110  231 1    
   220  111  232 1    
   221  111  233 1    
   222  111  234 1    
   223  112  113 2    
   224  112  114 am   BACKBONE|DICT|INTERRES
   225  114  115 1    
   226  114  235 1    
   227  115  116 1    
   228  115  117 1    
   229  115  236 1    
   230  116  237 1    
   231  116  238 1    
   232  116  239 1    
   233  117  118 2    
   234  117  119 am   BACKBONE|DICT|INTERRES
   235  119  120 1    
   236  119  240 1    
   237  120  121 1    
   238  120  124 1    
   239  120  241 1    
   240  121  122 am   BACKBONE|DICT|INTERRES
   241  121  123 2    
   242  122  242 1    
   243  122  243 1    
   244  124  125 1    
   245  124  244 1    
   246  124  245 1    
   247  125  126 1    
   248  126  246 1    
   249  126  247 1    
@<TRIPOS>SUBSTRUCTURE
     1 UNK         1 GROUP             0       ****    0 ROOT    
