@<TRIPOS>MOLECULE
3R540
247   249    1
SMALL
USER_CHARGES


@<TRIPOS>ATOM
      1 CA          5.4564   -9.4427  -50.5695 C.3       0 UNK        -0.1800 
      2 C           4.4296  -10.5460  -50.7843 C.2       0 UNK         0.5000 
      3 O           4.1055  -10.8686  -51.9274 O.2       0 UNK        -0.5000 
      4 N           3.9194  -11.1246  -49.6939 N.am      1 UNK        -0.5000 
      5 CA          2.9553  -12.2219  -49.6784 C.3       1 UNK         0.1400 
      6 C6          1.5134  -11.7518  -50.0174 C.3       23 UNK        -0.0398 
      7 S7          0.4845  -13.1042  -50.6834 S.3       23 UNK        -0.2404 
      8 C8         -0.8675  -13.1833  -49.4643 C.3       23 UNK        -0.0205 
      9 C9         -1.7893  -14.3597  -49.7518 C.ar      23 UNK        -0.0193 
     10 C10        -2.5732  -14.3654  -50.9085 C.ar      23 UNK        -0.1150 
     11 C11        -3.3867  -15.4597  -51.2134 C.ar      23 UNK        -0.0193 
     12 C12        -3.4328  -16.5493  -50.3382 C.ar      23 UNK        -0.1150 
     13 C13        -2.6679  -16.5480  -49.1671 C.ar      23 UNK        -0.0193 
     14 C14        -1.8504  -15.4496  -48.8781 C.ar      23 UNK        -0.1150 
     15 C15        -2.7158  -17.7319  -48.2137 C.3       23 UNK        -0.0205 
     16 S16        -1.4076  -18.9387  -48.6041 S.3       23 UNK        -0.2404 
     17 C17        -0.8047  -19.3979  -46.9438 C.3       23 UNK        -0.0398 
     18 CA         -0.8263  -20.9201  -46.6608 C.3       11 UNK         0.1400 
     19 N           0.0678  -21.2503  -45.5471 N.am      11 UNK        -0.5000 
     20 C           0.3991  -22.4833  -45.1440 C.2       10 UNK         0.5000 
     21 O           0.0126  -23.5103  -45.6985 O.2       10 UNK        -0.5000 
     22 CA          1.2673  -22.5863  -43.8752 C.3       10 UNK         0.1400 
     23 CB          2.7508  -22.3514  -44.1962 C.3       10 UNK        -0.1800 
     24 N           0.8339  -21.6620  -42.8251 N.am      10 UNK        -0.5000 
     25 C          -0.3473  -21.7438  -42.1955 C.2       9 UNK         0.5000 
     26 O          -1.1684  -22.6370  -42.4015 O.2       9 UNK        -0.5000 
     27 CA         -0.6948  -20.6146  -41.2087 C.3       9 UNK         0.1400 
     28 CB         -0.0050  -20.8388  -39.8552 C.3       9 UNK        -0.1800 
     29 N          -0.3541  -19.2892  -41.7272 N.am      9 UNK        -0.5000 
     30 C          -0.8999  -18.7413  -42.8233 C.2       8 UNK         0.5000 
     31 O          -1.7924  -19.2728  -43.4809 O.2       8 UNK        -0.5000 
     32 CA         -0.3120  -17.4053  -43.3038 C.3       8 UNK         0.1400 
     33 CB         -0.8996  -16.2311  -42.5069 C.3       8 UNK        -0.1800 
     34 N           1.1453  -17.3791  -43.2157 N.am      8 UNK        -0.5000 
     35 C           1.9791  -18.1901  -43.8777 C.2       7 UNK         0.5000 
     36 O           1.6082  -19.0480  -44.6757 O.2       7 UNK        -0.5000 
     37 CA          3.4756  -18.0497  -43.5584 C.3       7 UNK         0.1400 
     38 CB          4.0970  -16.8645  -44.3123 C.3       7 UNK        -0.1800 
     39 N           3.7046  -17.8945  -42.1236 N.am      7 UNK        -0.5000 
     40 C           3.5432  -18.8741  -41.2243 C.2       6 UNK         0.5000 
     41 O           3.2127  -20.0242  -41.5167 O.2       6 UNK        -0.5000 
     42 CA          3.7605  -18.4910  -39.7488 C.3       6 UNK         0.1400 
     43 CB          5.2531  -18.5423  -39.3898 C.3       6 UNK        -0.1800 
     44 N           3.2279  -17.1655  -39.4230 N.am      6 UNK        -0.5000 
     45 C           1.9209  -16.8728  -39.3906 C.2       5 UNK         0.5000 
     46 O           1.0324  -17.6892  -39.6348 O.2       5 UNK        -0.5000 
     47 CA          1.5412  -15.4139  -39.0692 C.3       5 UNK         0.1400 
     48 CB          1.6118  -15.1595  -37.5557 C.3       5 UNK        -0.1800 
     49 N           2.3272  -14.3910  -39.7721 N.am      5 UNK        -0.5000 
     50 C           2.4988  -14.3276  -41.0989 C.2       4 UNK         0.5000 
     51 O           2.1736  -15.2249  -41.8741 O.2       4 UNK        -0.5000 
     52 CA          3.1556  -13.0613  -41.6724 C.3       4 UNK         0.1400 
     53 CB          4.6663  -13.2769  -41.8478 C.3       4 UNK        -0.1800 
     54 N           2.5679  -12.7262  -42.9720 N.am      4 UNK        -0.5000 
     55 C           1.3097  -12.2970  -43.1545 C.2       3 UNK         0.5000 
     56 O           0.5480  -12.0106  -42.2296 O.2       3 UNK        -0.5000 
     57 CA          0.8118  -12.1609  -44.6057 C.3       3 UNK         0.1400 
     58 CB          0.8774  -10.6947  -45.0608 C.3       3 UNK        -0.1800 
     59 N           1.5874  -12.9730  -45.5430 N.am      3 UNK        -0.5000 
     60 C           1.2876  -14.2180  -45.9298 C.2       2 UNK         0.5000 
     61 O           0.2893  -14.8283  -45.5479 O.2       2 UNK        -0.5000 
     62 CA          2.2559  -14.8621  -46.9490 C.3       2 UNK         0.1400 
     63 CB          1.8452  -16.2933  -47.3420 C.3       2 UNK        -0.1800 
     64 N           2.3884  -14.0694  -48.1733 N.am      2 UNK        -0.5000 
     65 C           3.0418  -12.9088  -48.3030 C.2       1 UNK         0.5000 
     66 O           3.6675  -12.3729  -47.3816 O.2       1 UNK        -0.5000 
     67 C          -2.2587  -21.4540  -46.4319 C.2       11 UNK         0.5000 
     68 O          -2.8561  -22.0092  -47.3531 O.2       11 UNK        -0.5000 
     69 N          -2.7673  -21.3146  -45.1991 N.am      12 UNK        -0.5000 
     70 CA         -4.0607  -21.8439  -44.7678 C.3       12 UNK         0.1400 
     71 CB         -4.4357  -21.2390  -43.4066 C.3       12 UNK        -0.1800 
     72 C          -4.0908  -23.3819  -44.7060 C.2       12 UNK         0.5000 
     73 O          -5.1121  -23.9751  -45.0519 O.2       12 UNK        -0.5000 
     74 N          -2.9818  -24.0025  -44.2772 N.am      13 UNK        -0.5000 
     75 CA         -2.8063  -25.4557  -44.2550 C.3       13 UNK         0.1400 
     76 CB         -1.5571  -25.8203  -43.4384 C.3       13 UNK        -0.1800 
     77 C          -2.7353  -26.0484  -45.6736 C.2       13 UNK         0.5000 
     78 O          -3.4305  -27.0223  -45.9656 O.2       13 UNK        -0.5000 
     79 N          -1.9453  -25.4167  -46.5509 N.am      14 UNK        -0.5000 
     80 CA         -1.8115  -25.7417  -47.9718 C.3       14 UNK         0.1400 
     81 CB         -0.4191  -25.2943  -48.4509 C.3       14 UNK        -0.1800 
     82 C          -2.9516  -25.1233  -48.8099 C.2       14 UNK         0.5000 
     83 O          -2.6947  -24.4879  -49.8349 O.2       14 UNK        -0.5000 
     84 N          -4.1987  -25.3247  -48.3610 N.am      15 UNK        -0.5000 
     85 CA         -5.4176  -24.7363  -48.9199 C.3       15 UNK         0.1400 
     86 CB         -6.6309  -25.1985  -48.0992 C.3       15 UNK        -0.1800 
     87 C          -5.6384  -25.0506  -50.4086 C.2       15 UNK         0.5000 
     88 O          -6.0719  -24.1724  -51.1516 O.2       15 UNK        -0.5000 
     89 N          -5.3077  -26.2815  -50.8230 N.am      16 UNK        -0.5000 
     90 CA         -5.3986  -26.7355  -52.2111 C.3       16 UNK         0.1400 
     91 CB         -5.1676  -28.2528  -52.2682 C.3       16 UNK        -0.1800 
     92 C          -4.4187  -25.9998  -53.1426 C.2       16 UNK         0.5000 
     93 O          -4.7960  -25.6416  -54.2576 O.2       16 UNK        -0.5000 
     94 N          -3.1927  -25.7574  -52.6576 N.am      17 UNK        -0.5000 
     95 CA         -2.1601  -25.0086  -53.3740 C.3       17 UNK         0.1400 
     96 CB         -0.7960  -25.2298  -52.7038 C.3       17 UNK        -0.1800 
     97 C          -2.4961  -23.5108  -53.4567 C.2       17 UNK         0.5000 
     98 O          -2.2907  -22.9025  -54.5065 O.2       17 UNK        -0.5000 
     99 N          -3.0452  -22.9564  -52.3661 N.am      18 UNK        -0.5000 
    100 CA        -3.5444  -21.5836  -52.3020 C.3       18 UNK         0.1400 
    101 CB        -3.9161  -21.2300  -50.8540 C.3       18 UNK        -0.1800 
    102 C         -4.7296  -21.3539  -53.2575 C.2       18 UNK         0.5000 
    103 O         -4.7182  -20.3781  -54.0071 O.2       18 UNK        -0.5000 
    104 N         -5.7028  -22.2768  -53.2545 N.am      19 UNK        -0.5000 
    105 CA        -6.8792  -22.2608  -54.1281 C.3       19 UNK         0.1400 
    106 CB        -7.8667  -23.3491  -53.6811 C.3       19 UNK        -0.1800 
    107 C         -6.5407  -22.4253  -55.6211 C.2       19 UNK         0.5000 
    108 O         -7.2092  -21.8210  -56.4600 O.2       19 UNK        -0.5000 
    109 N         -5.5046  -23.2189  -55.9284 N.am      20 UNK        -0.5000 
    110 CA        -4.9638  -23.3873  -57.2798 C.3       20 UNK         0.1400 
    111 CB        -4.0233  -24.6018  -57.3033 C.3       20 UNK        -0.1800 
    112 C         -4.2384  -22.1306  -57.8028 C.2       20 UNK         0.5000 
    113 O         -4.1402  -21.9538  -59.0182 O.2       20 UNK        -0.5000 
    114 N         -3.7487  -21.2903  -56.8831 N.am      21 UNK        -0.5000 
    115 CA        -3.1403  -19.9940  -57.1509 C.3       21 UNK         0.1400 
    116 CB        -1.9646  -19.7905  -56.1723 C.3       21 UNK        -0.1800 
    117 C         -4.2217  -18.8948  -57.0837 C.2       21 UNK         0.5000 
    118 O         -5.1523  -18.9065  -57.8916 O.2       21 UNK        -0.5000 
    119 N         -4.0708  -17.9494  -56.1511 N.am      22 UNK        -0.5000 
    120 CA        -4.9579  -16.7957  -55.9404 C.3       22 UNK         0.1400 
    121 C         -6.2741  -17.0897  -55.1637 C.2       22 UNK         0.5000 
    122 N         -6.4486  -18.2457  -54.5388 N.am      22 UNK        -0.7600 
    123 O         -7.1676  -16.2475  -55.1381 O.2       22 UNK        -0.5000 
    124 C124       -4.1849  -15.5953  -55.3327 C.3       23 UNK        -0.0398 
    125 S125       -3.1476  -16.0214  -53.8881 S.3       23 UNK        -0.2404 
    126 C126       -4.1872  -15.4651  -52.5049 C.3       23 UNK        -0.0205 
    127 H127        5.1053   -8.5116  -51.0143 H         1 UNK         0.0600 
    128 H128        6.4014   -9.7123  -51.0408 H         1 UNK         0.0600 
    129 H129        5.6434   -9.2641  -49.5102 H         1 UNK         0.0600 
    130 H130        4.2464  -10.8668  -48.7699 H         1 UNK         0.3000 
    131 H131        3.2848  -12.9517  -50.4215 H         1 UNK         0.0600 
    132 H132        1.0326  -11.2829  -49.1567 H         1 UNK         0.0800 
    133 H133        1.5396  -10.9826  -50.7901 H         1 UNK         0.0800 
    134 H134       -1.4415  -12.2561  -49.4972 H         1 UNK         0.0800 
    135 H135       -0.4523  -13.2582  -48.4581 H         1 UNK         0.0800 
    136 H136       -2.5239  -13.5282  -51.5909 H         1 UNK         0.1150 
    137 H137       -4.0536  -17.4024  -50.5741 H         1 UNK         0.1150 
    138 H138       -1.2556  -15.4501  -47.9755 H         1 UNK         0.1150 
    139 H139       -2.6185  -17.3641  -47.1917 H         1 UNK         0.0800 
    140 H140       -3.6860  -18.2282  -48.2676 H         1 UNK         0.0800 
    141 H141       -1.3410  -18.8563  -46.1646 H         1 UNK         0.0800 
    142 H142        0.2218  -19.0337  -46.8969 H         1 UNK         0.0800 
    143 H143       -0.4270  -21.4334  -47.5383 H         1 UNK         0.0600 
    144 H144        0.4881  -20.4607  -45.0618 H         1 UNK         0.3000 
    145 H145        1.1658  -23.6019  -43.4872 H         1 UNK         0.0600 
    146 H146        2.9299  -21.3487  -44.5838 H         1 UNK         0.0600 
    147 H147        3.3705  -22.4807  -43.3087 H         1 UNK         0.0600 
    148 H148        3.1032  -23.0603  -44.9464 H         1 UNK         0.0600 
    149 H149        1.4673  -20.9084  -42.5863 H         1 UNK         0.3000 
    150 H150       -1.7742  -20.6392  -41.0458 H         1 UNK         0.0600 
    151 H151       -0.2482  -21.8220  -39.4504 H         1 UNK         0.0600 
    152 H152       -0.3260  -20.0979  -39.1230 H         1 UNK         0.0600 
    153 H153        1.0802  -20.7766  -39.9393 H         1 UNK         0.0600 
    154 H154        0.3397  -18.7611  -41.2076 H         1 UNK         0.3000 
    155 H155       -0.5824  -17.2750  -44.3534 H         1 UNK         0.0600 
    156 H156       -0.5298  -15.2768  -42.8831 H         1 UNK         0.0600 
    157 H157       -1.9872  -16.2122  -42.5840 H         1 UNK         0.0600 
    158 H158       -0.6438  -16.2938  -41.4491 H         1 UNK         0.0600 
    159 H159        1.5454  -16.6586  -42.6149 H         1 UNK         0.3000 
    160 H160        3.9775  -18.9618  -43.8885 H         1 UNK         0.0600 
    161 H161        4.0248  -17.0143  -45.3896 H         1 UNK         0.0600 
    162 H162        5.1548  -16.7552  -44.0728 H         1 UNK         0.0600 
    163 H163        3.6002  -15.9238  -44.0733 H         1 UNK         0.0600 
    164 H164        3.8987  -16.9608  -41.7926 H         1 UNK         0.3000 
    165 H165        3.2383  -19.2286  -39.1354 H         1 UNK         0.0600 
    166 H166        5.4098  -18.3511  -38.3281 H         1 UNK         0.0600 
    167 H167        5.6727  -19.5255  -39.6073 H         1 UNK         0.0600 
    168 H168        5.8299  -17.8072  -39.9526 H         1 UNK         0.0600 
    169 H169        3.8946  -16.4346  -39.2222 H         1 UNK         0.3000 
    170 H170        0.5032  -15.2813  -39.3806 H         1 UNK         0.0600 
    171 H171        1.0239  -15.8966  -37.0069 H         1 UNK         0.0600 
    172 H172        2.6361  -15.2143  -37.1850 H         1 UNK         0.0600 
    173 H173        1.2147  -14.1766  -37.3015 H         1 UNK         0.0600 
    174 H174        2.6526  -13.6199  -39.2072 H         1 UNK         0.3000 
    175 H175        2.9902  -12.2275  -40.9871 H         1 UNK         0.0600 
    176 H176        4.8801  -14.1015  -42.5292 H         1 UNK         0.0600 
    177 H177        5.1489  -12.3824  -42.2421 H         1 UNK         0.0600 
    178 H178        5.1418  -13.5078  -40.8937 H         1 UNK         0.0600 
    179 H179        3.1093  -12.9687  -43.7871 H         1 UNK         0.3000 
    180 H180       -0.2336  -12.4763  -44.6263 H         1 UNK         0.0600 
    181 H181        1.9015  -10.3191  -45.0634 H         1 UNK         0.0600 
    182 H182        0.2927  -10.0531  -44.4004 H         1 UNK         0.0600 
    183 H183        0.4749  -10.5772  -46.0672 H         1 UNK         0.0600 
    184 H184        2.4072  -12.5399  -45.9594 H         1 UNK         0.3000 
    185 H185        3.2336  -14.9155  -46.4670 H         1 UNK         0.0600 
    186 H186        2.6129  -16.7694  -47.9518 H         1 UNK         0.0600 
    187 H187        1.6992  -16.9190  -46.4630 H         1 UNK         0.0600 
    188 H188        0.9142  -16.3082  -47.9081 H         1 UNK         0.0600 
    189 H189        1.8737  -14.4118  -48.9732 H         1 UNK         0.3000 
    190 H190       -2.2444  -20.7827  -44.5080 H         1 UNK         0.3000 
    191 H191       -4.8110  -21.5283  -45.4957 H         1 UNK         0.0600 
    192 H192       -3.7036  -21.4908  -42.6387 H         1 UNK         0.0600 
    193 H193       -5.4060  -21.6055  -43.0694 H         1 UNK         0.0600 
    194 H194       -4.5001  -20.1522  -43.4630 H         1 UNK         0.0600 
    195 H195       -2.2078  -23.4427  -43.9351 H         1 UNK         0.3000 
    196 H196       -3.6730  -25.8924  -43.7543 H         1 UNK         0.0600 
    197 H197       -0.6511  -25.3960  -43.8707 H         1 UNK         0.0600 
    198 H198       -1.4235  -26.9017  -43.3922 H         1 UNK         0.0600 
    199 H199       -1.6383  -25.4584  -42.4133 H         1 UNK         0.0600 
    200 H200       -1.3978  -24.6224  -46.2263 H         1 UNK         0.3000 
    201 H201       -1.8713  -26.8248  -48.0946 H         1 UNK         0.0600 
    202 H202        0.3686  -25.7248  -47.8325 H         1 UNK         0.0600 
    203 H203       -0.3141  -24.2089  -48.4175 H         1 UNK         0.0600 
    204 H204       -0.2356  -25.6140  -49.4767 H         1 UNK         0.0600 
    205 H205       -4.3054  -25.8687  -47.5131 H         1 UNK         0.3000 
    206 H206       -5.3282  -23.6528  -48.8203 H         1 UNK         0.0600 
    207 H207       -6.7401  -26.2835  -48.1171 H         1 UNK         0.0600 
    208 H208       -6.5477  -24.8884  -47.0586 H         1 UNK         0.0600 
    209 H209       -7.5541  -24.7683  -48.4899 H         1 UNK         0.0600 
    210 H210       -4.9549  -26.9402  -50.1445 H         1 UNK         0.3000 
    211 H211       -6.4107  -26.5314  -52.5672 H         1 UNK         0.0600 
    212 H212       -4.1793  -28.5257  -51.8960 H         1 UNK         0.0600 
    213 H213       -5.2461  -28.6206  -53.2922 H         1 UNK         0.0600 
    214 H214       -5.9097  -28.7871  -51.6746 H         1 UNK         0.0600 
    215 H215       -2.9854  -26.0184  -51.7046 H         1 UNK         0.3000 
    216 H216       -2.1024  -25.3968  -54.3932 H         1 UNK         0.0600 
    217 H217       -0.0032  -24.7388  -53.2694 H         1 UNK         0.0600 
    218 H218       -0.5483  -26.2899  -52.6489 H         1 UNK         0.0600 
    219 H219       -0.7722  -24.8246  -51.6924 H         1 UNK         0.0600 
    220 H220       -3.1309  -23.5189  -51.5246 H         1 UNK         0.3000 
    221 H221       -2.7342  -20.9203  -52.6122 H         1 UNK         0.0600 
    222 H222       -4.2409  -20.1917  -50.7771 H         1 UNK         0.0600 
    223 H223       -4.7242  -21.8569  -50.4776 H         1 UNK         0.0600 
    224 H224       -3.0626  -21.3532  -50.1865 H         1 UNK         0.0600 
    225 H225       -5.6626  -23.0307  -52.5723 H         1 UNK         0.3000 
    226 H226       -7.3666  -21.2911  -54.0081 H         1 UNK         0.0600 
    227 H227       -8.1974  -23.1836  -52.6557 H         1 UNK         0.0600 
    228 H228       -8.7565  -23.3549  -54.3119 H         1 UNK         0.0600 
    229 H229       -7.4188  -24.3422  -53.7332 H         1 UNK         0.0600 
    230 H230       -5.0518  -23.7436  -55.1887 H         1 UNK         0.3000 
    231 H231       -5.7962  -23.5906  -57.9567 H         1 UNK         0.0600 
    232 H232       -3.6128  -24.7603  -58.3013 H         1 UNK         0.0600 
    233 H233       -4.5498  -25.5136  -57.0213 H         1 UNK         0.0600 
    234 H234       -3.1840  -24.4734  -56.6193 H         1 UNK         0.0600 
    235 H235       -3.8927  -21.5150  -55.9072 H         1 UNK         0.3000 
    236 H236       -2.7318  -19.9779  -58.1633 H         1 UNK         0.0600 
    237 H237       -1.4577  -18.8416  -56.3517 H         1 UNK         0.0600 
    238 H238       -1.2202  -20.5775  -56.2950 H         1 UNK         0.0600 
    239 H239       -2.2873  -19.8107  -55.1307 H         1 UNK         0.0600 
    240 H240       -3.3040  -18.0262  -55.4984 H         1 UNK         0.3000 
    241 H241       -5.2930  -16.4713  -56.9276 H         1 UNK         0.0600 
    242 H242       -7.3130  -18.4096  -54.0504 H         1 UNK         0.3800 
    243 H243       -5.7149  -18.9515  -54.5102 H         1 UNK         0.3800 
    244 H244       -4.8560  -14.7705  -55.0866 H         1 UNK         0.0800 
    245 H245       -3.5128  -15.1946  -56.0925 H         1 UNK         0.0800 
    246 H246       -5.0575  -16.1174  -52.4162 H         1 UNK         0.0800 
    247 H247       -4.5664  -14.4617  -52.7043 H         1 UNK         0.0800 
@<TRIPOS>BOND
     1    1    2 1    
     2    1  127 1    
     3    1  128 1    
     4    1  129 1    
     5    2    3 2    
     6    2    4 am   BACKBONE|DICT|INTERRES
     7    4    5 1    
     8    4  130 1    
     9    5    6 1    
    10    5   65 1    
    11    5  131 1    
    12    6    7 1    
    13    6  132 1    
    14    6  133 1    
    15    7    8 1    
    16    8    9 1    
    17    8  134 1    
    18    8  135 1    
    19    9   10 ar   
    20    9   14 ar   
    21   10   11 ar   
    22   10  136 1    
    23   11   12 ar   
    24   11  126 1    
    25   12   13 ar   
    26   12  137 1    
    27   13   14 ar   
    28   13   15 1    
    29   14  138 1    
    30   15   16 1    
    31   15  139 1    
    32   15  140 1    
    33   16   17 1    
    34   17   18 1    
    35   17  141 1    
    36   17  142 1    
    37   18   19 1    
    38   18   67 1    
    39   18  143 1    
    40   19   20 am   BACKBONE|DICT|INTERRES
    41   19  144 1    
    42   20   21 2    
    43   20   22 1    
    44   22   23 1    
    45   22   24 1    
    46   22  145 1    
    47   23  146 1    
    48   23  147 1    
    49   23  148 1    
    50   24   25 am   BACKBONE|DICT|INTERRES
    51   24  149 1    
    52   25   26 2    
    53   25   27 1    
    54   27   28 1    
    55   27   29 1    
    56   27  150 1    
    57   28  151 1    
    58   28  152 1    
    59   28  153 1    
    60   29   30 am   BACKBONE|DICT|INTERRES
    61   29  154 1    
    62   30   31 2    
    63   30   32 1    
    64   32   33 1    
    65   32   34 1    
    66   32  155 1    
    67   33  156 1    
    68   33  157 1    
    69   33  158 1    
    70   34   35 am   BACKBONE|DICT|INTERRES
    71   34  159 1    
    72   35   36 2    
    73   35   37 1    
    74   37   38 1    
    75   37   39 1    
    76   37  160 1    
    77   38  161 1    
    78   38  162 1    
    79   38  163 1    
    80   39   40 am   BACKBONE|DICT|INTERRES
    81   39  164 1    
    82   40   41 2    
    83   40   42 1    
    84   42   43 1    
    85   42   44 1    
    86   42  165 1    
    87   43  166 1    
    88   43  167 1    
    89   43  168 1    
    90   44   45 am   BACKBONE|DICT|INTERRES
    91   44  169 1    
    92   45   46 2    
    93   45   47 1    
    94   47   48 1    
    95   47   49 1    
    96   47  170 1    
    97   48  171 1    
    98   48  172 1    
    99   48  173 1    
   100   49   50 am   BACKBONE|DICT|INTERRES
   101   49  174 1    
   102   50   51 2    
   103   50   52 1    
   104   52   53 1    
   105   52   54 1    
   106   52  175 1    
   107   53  176 1    
   108   53  177 1    
   109   53  178 1    
   110   54   55 am   BACKBONE|DICT|INTERRES
   111   54  179 1    
   112   55   56 2    
   113   55   57 1    
   114   57   58 1    
   115   57   59 1    
   116   57  180 1    
   117   58  181 1    
   118   58  182 1    
   119   58  183 1    
   120   59   60 am   BACKBONE|DICT|INTERRES
   121   59  184 1    
   122   60   61 2    
   123   60   62 1    
   124   62   63 1    
   125   62   64 1    
   126   62  185 1    
   127   63  186 1    
   128   63  187 1    
   129   63  188 1    
   130   64   65 am   BACKBONE|DICT|INTERRES
   131   64  189 1    
   132   65   66 2    
   133   67   68 2    
   134   67   69 am   BACKBONE|DICT|INTERRES
   135   69   70 1    
   136   69  190 1    
   137   70   71 1    
   138   70   72 1    
   139   70  191 1    
   140   71  192 1    
   141   71  193 1    
   142   71  194 1    
   143   72   73 2    
   144   72   74 am   BACKBONE|DICT|INTERRES
   145   74   75 1    
   146   74  195 1    
   147   75   76 1    
   148   75   77 1    
   149   75  196 1    
   150   76  197 1    
   151   76  198 1    
   152   76  199 1    
   153   77   78 2    
   154   77   79 am   BACKBONE|DICT|INTERRES
   155   79   80 1    
   156   79  200 1    
   157   80   81 1    
   158   80   82 1    
   159   80  201 1    
   160   81  202 1    
   161   81  203 1    
   162   81  204 1    
   163   82   83 2    
   164   82   84 am   BACKBONE|DICT|INTERRES
   165   84   85 1    
   166   84  205 1    
   167   85   86 1    
   168   85   87 1    
   169   85  206 1    
   170   86  207 1    
   171   86  208 1    
   172   86  209 1    
   173   87   88 2    
   174   87   89 am   BACKBONE|DICT|INTERRES
   175   89   90 1    
   176   89  210 1    
   177   90   91 1    
   178   90   92 1    
   179   90  211 1    
   180   91  212 1    
   181   91  213 1    
   182   91  214 1    
   183   92   93 2    
   184   92   94 am   BACKBONE|DICT|INTERRES
   185   94   95 1    
   186   94  215 1    
   187   95   96 1    
   188   95   97 1    
   189   95  216 1    
   190   96  217 1    
   191   96  218 1    
   192   96  219 1    
   193   97   98 2    
   194   97   99 am   BACKBONE|DICT|INTERRES
   195   99  100 1    
   196   99  220 1    
   197  100  101 1    
   198  100  102 1    
   199  100  221 1    
   200  101  222 1    
   201  101  223 1    
   202  101  224 1    
   203  102  103 2    
   204  102  104 am   BACKBONE|DICT|INTERRES
   205  104  105 1    
   206  104  225 1    
   207  105  106 1    
   208  105  107 1    
   209  105  226 1    
   210  106  227 1    
   211  106  228 1    
   212  106  229 1    
   213  107  108 2    
   214  107  109 am   BACKBONE|DICT|INTERRES
   215  109  110 1    
   216  109  230 1    
   217  110  111 1    
   218  110  112 1    
   219  110  231 1    
   220  111  232 1    
   221  111  233 1    
   222  111  234 1    
   223  112  113 2    
   224  112  114 am   BACKBONE|DICT|INTERRES
   225  114  115 1    
   226  114  235 1    
   227  115  116 1    
   228  115  117 1    
   229  115  236 1    
   230  116  237 1    
   231  116  238 1    
   232  116  239 1    
   233  117  118 2    
   234  117  119 am   BACKBONE|DICT|INTERRES
   235  119  120 1    
   236  119  240 1    
   237  120  121 1    
   238  120  124 1    
   239  120  241 1    
   240  121  122 am   BACKBONE|DICT|INTERRES
   241  121  123 2    
   242  122  242 1    
   243  122  243 1    
   244  124  125 1    
   245  124  244 1    
   246  124  245 1    
   247  125  126 1    
   248  126  246 1    
   249  126  247 1    
@<TRIPOS>SUBSTRUCTURE
     1 UNK         1 GROUP             0       ****    0 ROOT    
