@<TRIPOS>MOLECULE
3R540
247   249    1
SMALL
USER_CHARGES


@<TRIPOS>ATOM
      1 CA          6.3147  -10.3024  -50.2207 C.3       0 UNK        -0.1800 
      2 C           5.7215  -11.1031  -49.0707 C.2       0 UNK         0.5000 
      3 O           5.2470  -10.5169  -48.0975 O.2       0 UNK        -0.5000 
      4 N           5.7333  -12.4395  -49.1838 N.am      1 UNK        -0.5000 
      5 CA          5.2236  -13.3833  -48.1777 C.3       1 UNK         0.1400 
      6 C6          5.5594  -14.8490  -48.5525 C.3       23 UNK        -0.0398 
      7 S7          5.6179  -15.9916  -47.1239 S.3       23 UNK        -0.2404 
      8 C8          3.9301  -16.6840  -47.0302 C.3       23 UNK        -0.0205 
      9 C9          3.5230  -17.4380  -48.2845 C.ar      23 UNK        -0.0193 
     10 C10         2.7733  -16.8054  -49.2791 C.ar      23 UNK        -0.1150 
     11 C11         2.3886  -17.4951  -50.4337 C.ar      23 UNK        -0.0193 
     12 C12         2.7553  -18.8370  -50.5799 C.ar      23 UNK        -0.1150 
     13 C13         3.4970  -19.4832  -49.5848 C.ar      23 UNK        -0.0193 
     14 C14         3.8778  -18.7780  -48.4407 C.ar      23 UNK        -0.1150 
     15 C15         3.8964  -20.9430  -49.7390 C.3       23 UNK        -0.0205 
     16 S16         2.4786  -22.0691  -49.5630 S.3       23 UNK        -0.2404 
     17 C17         1.7561  -21.5295  -47.9713 C.3       23 UNK        -0.0398 
     18 CA          0.8973  -22.6074  -47.2669 C.3       11 UNK         0.1400 
     19 N           0.4035  -22.1377  -45.9694 N.am      11 UNK        -0.5000 
     20 C          -0.2495  -22.8941  -45.0753 C.2       10 UNK         0.5000 
     21 O          -0.4502  -24.0991  -45.2144 O.2       10 UNK        -0.5000 
     22 CA         -0.8328  -22.1763  -43.8461 C.3       10 UNK         0.1400 
     23 CB          0.2471  -21.9500  -42.7784 C.3       10 UNK        -0.1800 
     24 N          -1.4779  -20.9084  -44.1918 N.am      10 UNK        -0.5000 
     25 C          -2.5470  -20.8026  -44.9954 C.2       9 UNK         0.5000 
     26 O          -3.1286  -21.7697  -45.4862 O.2       9 UNK        -0.5000 
     27 CA         -3.0271  -19.3831  -45.3440 C.3       9 UNK         0.1400 
     28 CB         -3.9056  -18.8172  -44.2189 C.3       9 UNK        -0.1800 
     29 N          -1.9240  -18.4637  -45.6245 N.am      9 UNK        -0.5000 
     30 C          -1.0681  -18.5898  -46.6496 C.2       8 UNK         0.5000 
     31 O          -1.1433  -19.4805  -47.4967 O.2       8 UNK        -0.5000 
     32 CA          0.1070  -17.5942  -46.6961 C.3       8 UNK         0.1400 
     33 CB         -0.3399  -16.2141  -47.1971 C.3       8 UNK        -0.1800 
     34 N           0.7539  -17.4400  -45.3949 N.am      8 UNK        -0.5000 
     35 C           1.3678  -18.4238  -44.7247 C.2       7 UNK         0.5000 
     36 O           1.5234  -19.5626  -45.1661 O.2       7 UNK        -0.5000 
     37 CA          1.8411  -18.0863  -43.3010 C.3       7 UNK         0.1400 
     38 CB          3.2159  -17.4017  -43.3221 C.3       7 UNK        -0.1800 
     39 N           0.8780  -17.2372  -42.5979 N.am      7 UNK        -0.5000 
     40 C          -0.3089  -17.6623  -42.1427 C.2       6 UNK         0.5000 
     41 O          -0.7042  -18.8223  -42.2507 O.2       6 UNK        -0.5000 
     42 CA         -1.2218  -16.6091  -41.4875 C.3       6 UNK         0.1400 
     43 CB         -0.8210  -16.3802  -40.0226 C.3       6 UNK        -0.1800 
     44 N          -1.2142  -15.3302  -42.1986 N.am      6 UNK        -0.5000 
     45 C          -1.7011  -15.1506  -43.4343 C.2       5 UNK         0.5000 
     46 O          -2.2383  -16.0407  -44.0910 O.2       5 UNK        -0.5000 
     47 CA         -1.5184  -13.7562  -44.0623 C.3       5 UNK         0.1400 
     48 CB         -2.6949  -12.8410  -43.6934 C.3       5 UNK        -0.1800 
     49 N          -0.2614  -13.0918  -43.7080 N.am      5 UNK        -0.5000 
     50 C           0.9659  -13.5964  -43.8913 C.2       4 UNK         0.5000 
     51 O           1.1838  -14.7336  -44.3141 O.2       4 UNK        -0.5000 
     52 CA          2.1297  -12.6419  -43.5838 C.3       4 UNK         0.1400 
     53 CB          3.4626  -13.3826  -43.3713 C.3       4 UNK        -0.1800 
     54 N           2.2619  -11.7165  -44.7039 N.am      4 UNK        -0.5000 
     55 C           1.6378  -10.5349  -44.8083 C.2       3 UNK         0.5000 
     56 O           0.9625  -10.0438  -43.9026 O.2       3 UNK        -0.5000 
     57 CA          1.7593   -9.7838  -46.1513 C.3       3 UNK         0.1400 
     58 CB          2.9103   -8.7686  -46.0967 C.3       3 UNK        -0.1800 
     59 N           1.9626  -10.6759  -47.2941 N.am      3 UNK        -0.5000 
     60 C           1.0462  -11.5361  -47.7647 C.2       2 UNK         0.5000 
     61 O          -0.1149  -11.5790  -47.3574 O.2       2 UNK        -0.5000 
     62 CA          1.5001  -12.5363  -48.8521 C.3       2 UNK         0.1400 
     63 CB          1.0163  -12.0804  -50.2368 C.3       2 UNK        -0.1800 
     64 N           2.9475  -12.7733  -48.9141 N.am      2 UNK        -0.5000 
     65 C           3.7148  -13.2069  -47.9024 C.2       1 UNK         0.5000 
     66 O           3.2819  -13.4167  -46.7726 O.2       1 UNK        -0.5000 
     67 C          -0.2570  -23.1166  -48.1573 C.2       11 UNK         0.5000 
     68 O          -0.1752  -24.2326  -48.6706 O.2       11 UNK        -0.5000 
     69 N          -1.3257  -22.3170  -48.2861 N.am      12 UNK        -0.5000 
     70 CA         -2.5244  -22.6529  -49.0569 C.3       12 UNK         0.1400 
     71 CB         -3.4845  -21.4567  -49.0463 C.3       12 UNK        -0.1800 
     72 C          -3.2364  -23.9236  -48.5573 C.2       12 UNK         0.5000 
     73 O          -3.6942  -24.7232  -49.3774 O.2       12 UNK        -0.5000 
     74 N          -3.2987  -24.0899  -47.2296 N.am      13 UNK        -0.5000 
     75 CA         -3.8323  -25.2717  -46.5582 C.3       13 UNK         0.1400 
     76 CB         -4.0496  -24.9641  -45.0693 C.3       13 UNK        -0.1800 
     77 C          -2.9324  -26.5067  -46.7384 C.2       13 UNK         0.5000 
     78 O          -3.4457  -27.5793  -47.0546 O.2       13 UNK        -0.5000 
     79 N          -1.6120  -26.3390  -46.5701 N.am      14 UNK        -0.5000 
     80 CA         -0.6050  -27.3931  -46.7401 C.3       14 UNK         0.1400 
     81 CB          0.7648  -26.8845  -46.2666 C.3       14 UNK        -0.1800 
     82 C          -0.5157  -27.9176  -48.1848 C.2       14 UNK         0.5000 
     83 O          -0.3255  -29.1172  -48.3878 O.2       14 UNK        -0.5000 
     84 N          -0.7004  -27.0173  -49.1591 N.am      15 UNK        -0.5000 
     85 CA         -0.8174  -27.3282  -50.5845 C.3       15 UNK         0.1400 
     86 CB         -0.6532  -26.0253  -51.3842 C.3       15 UNK        -0.1800 
     87 C          -2.1486  -28.0142  -50.9573 C.2       15 UNK         0.5000 
     88 O          -2.2665  -28.5181  -52.0748 O.2       15 UNK        -0.5000 
     89 N          -3.1271  -27.9956  -50.0374 N.am      16 UNK        -0.5000 
     90 CA         -4.5072  -28.4723  -50.1793 C.3       16 UNK         0.1400 
     91 CB         -4.5474  -30.0011  -50.3824 C.3       16 UNK        -0.1800 
     92 C          -5.3030  -27.6966  -51.2502 C.2       16 UNK         0.5000 
     93 O          -6.2367  -28.2416  -51.8419 O.2       16 UNK        -0.5000 
     94 N          -4.9145  -26.4363  -51.4791 N.am      17 UNK        -0.5000 
     95 CA         -5.5335  -25.5346  -52.4429 C.3       17 UNK         0.1400 
     96 CB         -4.4502  -24.6290  -53.0518 C.3       17 UNK        -0.1800 
     97 C          -6.6345  -24.7084  -51.7648 C.2       17 UNK         0.5000 
     98 O          -7.7656  -24.6905  -52.2528 O.2       17 UNK        -0.5000 
     99 N          -6.2752  -24.0700  -50.6389 N.am      18 UNK        -0.5000 
    100 CA        -7.0986  -23.1773  -49.8155 C.3       18 UNK         0.1400 
    101 CB        -8.1637  -24.0037  -49.0620 C.3       18 UNK        -0.1800 
    102 C         -7.6988  -21.9864  -50.6047 C.2       18 UNK         0.5000 
    103 O         -7.2176  -21.6547  -51.6915 O.2       18 UNK        -0.5000 
    104 N         -8.7383  -21.3602  -50.0339 N.am      19 UNK        -0.5000 
    105 CA        -9.5799  -20.3150  -50.6242 C.3       19 UNK         0.1400 
    106 CB       -10.5484  -20.9499  -51.6482 C.3       19 UNK        -0.1800 
    107 C         -8.7741  -19.1213  -51.1841 C.2       19 UNK         0.5000 
    108 O         -8.2163  -18.3497  -50.4029 O.2       19 UNK        -0.5000 
    109 N         -8.7435  -18.9855  -52.5157 N.am      20 UNK        -0.5000 
    110 CA        -8.1077  -17.8901  -53.2445 C.3       20 UNK         0.1400 
    111 CB        -8.7671  -17.7827  -54.6292 C.3       20 UNK        -0.1800 
    112 C         -6.5784  -18.0200  -53.3871 C.2       20 UNK         0.5000 
    113 O         -5.9473  -17.0499  -53.8130 O.2       20 UNK        -0.5000 
    114 N         -5.9966  -19.1860  -53.0619 N.am      21 UNK        -0.5000 
    115 CA        -4.5542  -19.4351  -53.1455 C.3       21 UNK         0.1400 
    116 CB        -4.2604  -20.9151  -52.8615 C.3       21 UNK        -0.1800 
    117 C         -3.7670  -18.5083  -52.1991 C.2       21 UNK         0.5000 
    118 O         -3.9553  -18.5731  -50.9837 O.2       21 UNK        -0.5000 
    119 N         -2.9425  -17.6333  -52.7887 N.am      22 UNK        -0.5000 
    120 CA        -2.2503  -16.5198  -52.1180 C.3       22 UNK         0.1400 
    121 C         -3.2056  -15.4088  -51.5649 C.2       22 UNK         0.5000 
    122 N         -4.4393  -15.2969  -52.0441 N.am      22 UNK        -0.7600 
    123 O         -2.8292  -14.6137  -50.7089 O.2       22 UNK        -0.5000 
    124 C124       -1.1826  -17.0062  -51.0935 C.3       23 UNK        -0.0398 
    125 S125        0.2041  -15.8229  -50.9448 S.3       23 UNK        -0.2404 
    126 C126        1.6378  -16.7739  -51.5478 C.3       23 UNK        -0.0205 
    127 H127        5.5588   -9.6431  -50.6472 H         1 UNK         0.0600 
    128 H128        6.6900  -10.9486  -51.0146 H         1 UNK         0.0600 
    129 H129        7.1411   -9.6886  -49.8625 H         1 UNK         0.0600 
    130 H130        6.1357  -12.8546  -50.0124 H         1 UNK         0.3000 
    131 H131        5.7444  -13.1449  -47.2475 H         1 UNK         0.0600 
    132 H132        4.9044  -15.2243  -49.3371 H         1 UNK         0.0800 
    133 H133        6.5598  -14.8844  -48.9859 H         1 UNK         0.0800 
    134 H134        3.8958  -17.3685  -46.1830 H         1 UNK         0.0800 
    135 H135        3.2010  -15.9087  -46.8012 H         1 UNK         0.0800 
    136 H136        2.4968  -15.7676  -49.1596 H         1 UNK         0.1150 
    137 H137        2.4708  -19.3815  -51.4694 H         1 UNK         0.1150 
    138 H138        4.4514  -19.2707  -47.6682 H         1 UNK         0.1150 
    139 H139        4.3489  -21.0923  -50.7202 H         1 UNK         0.0800 
    140 H140        4.6584  -21.2156  -49.0071 H         1 UNK         0.0800 
    141 H141        1.1700  -20.6272  -48.1513 H         1 UNK         0.0800 
    142 H142        2.5687  -21.2319  -47.3071 H         1 UNK         0.0800 
    143 H143        1.5463  -23.4621  -47.0652 H         1 UNK         0.0600 
    144 H144        0.5641  -21.1583  -45.7513 H         1 UNK         0.3000 
    145 H145       -1.5971  -22.8274  -43.4168 H         1 UNK         0.0600 
    146 H146       -0.1780  -21.5152  -41.8737 H         1 UNK         0.0600 
    147 H147        0.7179  -22.8921  -42.4951 H         1 UNK         0.0600 
    148 H148        1.0338  -21.2849  -43.1330 H         1 UNK         0.0600 
    149 H149       -1.0894  -20.0698  -43.7726 H         1 UNK         0.3000 
    150 H150       -3.6374  -19.4525  -46.2465 H         1 UNK         0.0600 
    151 H151       -4.7364  -19.4879  -43.9959 H         1 UNK         0.0600 
    152 H152       -4.3324  -17.8543  -44.4998 H         1 UNK         0.0600 
    153 H153       -3.3394  -18.6761  -43.2977 H         1 UNK         0.0600 
    154 H154       -1.8271  -17.6715  -44.9949 H         1 UNK         0.3000 
    155 H155        0.8453  -17.9908  -47.3949 H         1 UNK         0.0600 
    156 H156       -1.0625  -15.7552  -46.5244 H         1 UNK         0.0600 
    157 H157       -0.8114  -16.2851  -48.1748 H         1 UNK         0.0600 
    158 H158        0.5087  -15.5360  -47.2906 H         1 UNK         0.0600 
    159 H159        0.7186  -16.5176  -44.9701 H         1 UNK         0.3000 
    160 H160        1.9402  -19.0227  -42.7484 H         1 UNK         0.0600 
    161 H161        3.1970  -16.4685  -43.8855 H         1 UNK         0.0600 
    162 H162        3.9639  -18.0480  -43.7826 H         1 UNK         0.0600 
    163 H163        3.5602  -17.1761  -42.3127 H         1 UNK         0.0600 
    164 H164        1.0934  -16.2512  -42.5531 H         1 UNK         0.3000 
    165 H165       -2.2419  -16.9989  -41.5040 H         1 UNK         0.0600 
    166 H166       -1.5120  -15.6980  -39.5270 H         1 UNK         0.0600 
    167 H167       -0.8344  -17.3171  -39.4641 H         1 UNK         0.0600 
    168 H168        0.1828  -15.9620  -39.9385 H         1 UNK         0.0600 
    169 H169       -0.7844  -14.5456  -41.7314 H         1 UNK         0.3000 
    170 H170       -1.5179  -13.8828  -45.1463 H         1 UNK         0.0600 
    171 H171       -3.6467  -13.2986  -43.9667 H         1 UNK         0.0600 
    172 H172       -2.7244  -12.6346  -42.6228 H         1 UNK         0.0600 
    173 H173       -2.6320  -11.8876  -44.2185 H         1 UNK         0.0600 
    174 H174       -0.3361  -12.1347  -43.3909 H         1 UNK         0.3000 
    175 H175        1.9001  -12.0985  -42.6649 H         1 UNK         0.0600 
    176 H176        3.7568  -13.9599  -44.2482 H         1 UNK         0.0600 
    177 H177        4.2686  -12.6837  -43.1482 H         1 UNK         0.0600 
    178 H178        3.3914  -14.0768  -42.5333 H         1 UNK         0.0600 
    179 H179        2.7180  -12.1057  -45.5252 H         1 UNK         0.3000 
    180 H180        0.8279   -9.2363  -46.3096 H         1 UNK         0.0600 
    181 H181        3.8720   -9.2602  -45.9439 H         1 UNK         0.0600 
    182 H182        2.7691   -8.0610  -45.2786 H         1 UNK         0.0600 
    183 H183        2.9723   -8.1911  -47.0193 H         1 UNK         0.0600 
    184 H184        2.8990  -10.7116  -47.6762 H         1 UNK         0.3000 
    185 H185        1.0257  -13.4928  -48.6242 H         1 UNK         0.0600 
    186 H186       -0.0660  -11.9444  -50.2469 H         1 UNK         0.0600 
    187 H187        1.4710  -11.1332  -50.5294 H         1 UNK         0.0600 
    188 H188        1.2539  -12.8196  -51.0020 H         1 UNK         0.0600 
    189 H189        3.3927  -12.5901  -49.8013 H         1 UNK         0.3000 
    190 H190       -1.3081  -21.3981  -47.8518 H         1 UNK         0.3000 
    191 H191       -2.2137  -22.8331  -50.0880 H         1 UNK         0.0600 
    192 H192       -3.0078  -20.5698  -49.4632 H         1 UNK         0.0600 
    193 H193       -4.3737  -21.6596  -49.6409 H         1 UNK         0.0600 
    194 H194       -3.8162  -21.2120  -48.0377 H         1 UNK         0.0600 
    195 H195       -2.9591  -23.3424  -46.6306 H         1 UNK         0.3000 
    196 H196       -4.8044  -25.5001  -47.0008 H         1 UNK         0.0600 
    197 H197       -4.4631  -25.8279  -44.5474 H         1 UNK         0.0600 
    198 H198       -4.7484  -24.1379  -44.9370 H         1 UNK         0.0600 
    199 H199       -3.1173  -24.6938  -44.5726 H         1 UNK         0.0600 
    200 H200       -1.2638  -25.4315  -46.2700 H         1 UNK         0.3000 
    201 H201       -0.8932  -28.2320  -46.1035 H         1 UNK         0.0600 
    202 H202        0.7387  -26.6064  -45.2129 H         1 UNK         0.0600 
    203 H203        1.0877  -26.0121  -46.8357 H         1 UNK         0.0600 
    204 H204        1.5296  -27.6537  -46.3802 H         1 UNK         0.0600 
    205 H205       -0.7621  -26.0341  -48.9046 H         1 UNK         0.3000 
    206 H206       -0.0075  -28.0070  -50.8588 H         1 UNK         0.0600 
    207 H207        0.3089  -25.5552  -51.1794 H         1 UNK         0.0600 
    208 H208       -0.7010  -26.2125  -52.4577 H         1 UNK         0.0600 
    209 H209       -1.4353  -25.3046  -51.1411 H         1 UNK         0.0600 
    210 H210       -2.9188  -27.5743  -49.1404 H         1 UNK         0.3000 
    211 H211       -4.9994  -28.2560  -49.2304 H         1 UNK         0.0600 
    212 H212       -4.1445  -30.2934  -51.3524 H         1 UNK         0.0600 
    213 H213       -5.5700  -30.3758  -50.3281 H         1 UNK         0.0600 
    214 H214       -3.9736  -30.5151  -49.6112 H         1 UNK         0.0600 
    215 H215       -4.1901  -26.0442  -50.8881 H         1 UNK         0.3000 
    216 H216       -5.9849  -26.1094  -53.2545 H         1 UNK         0.0600 
    217 H217       -4.8812  -23.9601  -53.7970 H         1 UNK         0.0600 
    218 H218       -3.6817  -25.2193  -53.5513 H         1 UNK         0.0600 
    219 H219       -3.9582  -24.0133  -52.2977 H         1 UNK         0.0600 
    220 H220       -5.3236  -24.2023  -50.3136 H         1 UNK         0.3000 
    221 H221       -6.4280  -22.7465  -49.0715 H         1 UNK         0.0600 
    222 H222       -8.9411  -24.3686  -49.7345 H         1 UNK         0.0600 
    223 H223       -7.7141  -24.8692  -48.5746 H         1 UNK         0.0600 
    224 H224       -8.6485  -23.4192  -48.2798 H         1 UNK         0.0600 
    225 H225       -9.0273  -21.6721  -49.1180 H         1 UNK         0.3000 
    226 H226      -10.1858  -19.9112  -49.8117 H         1 UNK         0.0600 
    227 H227      -11.1808  -21.6978  -51.1696 H         1 UNK         0.0600 
    228 H228      -11.2137  -20.2020  -52.0819 H         1 UNK         0.0600 
    229 H229      -10.0200  -21.4450  -52.4640 H         1 UNK         0.0600 
    230 H230       -9.1994  -19.6913  -53.0756 H         1 UNK         0.3000 
    231 H231       -8.3005  -16.9595  -52.7064 H         1 UNK         0.0600 
    232 H232       -8.6125  -18.6871  -55.2192 H         1 UNK         0.0600 
    233 H233       -8.3562  -16.9466  -55.1968 H         1 UNK         0.0600 
    234 H234       -9.8411  -17.6163  -54.5435 H         1 UNK         0.0600 
    235 H235       -6.5643  -19.9328  -52.6746 H         1 UNK         0.3000 
    236 H236       -4.2459  -19.2322  -54.1734 H         1 UNK         0.0600 
    237 H237       -4.7719  -21.5577  -53.5774 H         1 UNK         0.0600 
    238 H238       -3.1929  -21.1259  -52.9342 H         1 UNK         0.0600 
    239 H239       -4.5857  -21.2046  -51.8640 H         1 UNK         0.0600 
    240 H240       -2.8784  -17.6355  -53.7968 H         1 UNK         0.3000 
    241 H241       -1.7144  -16.0270  -52.9299 H         1 UNK         0.0600 
    242 H242       -5.0371  -14.5697  -51.6858 H         1 UNK         0.3800 
    243 H243       -4.7997  -15.9395  -52.7435 H         1 UNK         0.3800 
    244 H244       -1.6348  -17.1734  -50.1155 H         1 UNK         0.0800 
    245 H245       -0.7806  -17.9739  -51.3957 H         1 UNK         0.0800 
    246 H246        2.3309  -16.0788  -52.0230 H         1 UNK         0.0800 
    247 H247        1.3224  -17.4673  -52.3287 H         1 UNK         0.0800 
@<TRIPOS>BOND
     1    1    2 1    
     2    1  127 1    
     3    1  128 1    
     4    1  129 1    
     5    2    3 2    
     6    2    4 am   BACKBONE|DICT|INTERRES
     7    4    5 1    
     8    4  130 1    
     9    5    6 1    
    10    5   65 1    
    11    5  131 1    
    12    6    7 1    
    13    6  132 1    
    14    6  133 1    
    15    7    8 1    
    16    8    9 1    
    17    8  134 1    
    18    8  135 1    
    19    9   10 ar   
    20    9   14 ar   
    21   10   11 ar   
    22   10  136 1    
    23   11   12 ar   
    24   11  126 1    
    25   12   13 ar   
    26   12  137 1    
    27   13   14 ar   
    28   13   15 1    
    29   14  138 1    
    30   15   16 1    
    31   15  139 1    
    32   15  140 1    
    33   16   17 1    
    34   17   18 1    
    35   17  141 1    
    36   17  142 1    
    37   18   19 1    
    38   18   67 1    
    39   18  143 1    
    40   19   20 am   BACKBONE|DICT|INTERRES
    41   19  144 1    
    42   20   21 2    
    43   20   22 1    
    44   22   23 1    
    45   22   24 1    
    46   22  145 1    
    47   23  146 1    
    48   23  147 1    
    49   23  148 1    
    50   24   25 am   BACKBONE|DICT|INTERRES
    51   24  149 1    
    52   25   26 2    
    53   25   27 1    
    54   27   28 1    
    55   27   29 1    
    56   27  150 1    
    57   28  151 1    
    58   28  152 1    
    59   28  153 1    
    60   29   30 am   BACKBONE|DICT|INTERRES
    61   29  154 1    
    62   30   31 2    
    63   30   32 1    
    64   32   33 1    
    65   32   34 1    
    66   32  155 1    
    67   33  156 1    
    68   33  157 1    
    69   33  158 1    
    70   34   35 am   BACKBONE|DICT|INTERRES
    71   34  159 1    
    72   35   36 2    
    73   35   37 1    
    74   37   38 1    
    75   37   39 1    
    76   37  160 1    
    77   38  161 1    
    78   38  162 1    
    79   38  163 1    
    80   39   40 am   BACKBONE|DICT|INTERRES
    81   39  164 1    
    82   40   41 2    
    83   40   42 1    
    84   42   43 1    
    85   42   44 1    
    86   42  165 1    
    87   43  166 1    
    88   43  167 1    
    89   43  168 1    
    90   44   45 am   BACKBONE|DICT|INTERRES
    91   44  169 1    
    92   45   46 2    
    93   45   47 1    
    94   47   48 1    
    95   47   49 1    
    96   47  170 1    
    97   48  171 1    
    98   48  172 1    
    99   48  173 1    
   100   49   50 am   BACKBONE|DICT|INTERRES
   101   49  174 1    
   102   50   51 2    
   103   50   52 1    
   104   52   53 1    
   105   52   54 1    
   106   52  175 1    
   107   53  176 1    
   108   53  177 1    
   109   53  178 1    
   110   54   55 am   BACKBONE|DICT|INTERRES
   111   54  179 1    
   112   55   56 2    
   113   55   57 1    
   114   57   58 1    
   115   57   59 1    
   116   57  180 1    
   117   58  181 1    
   118   58  182 1    
   119   58  183 1    
   120   59   60 am   BACKBONE|DICT|INTERRES
   121   59  184 1    
   122   60   61 2    
   123   60   62 1    
   124   62   63 1    
   125   62   64 1    
   126   62  185 1    
   127   63  186 1    
   128   63  187 1    
   129   63  188 1    
   130   64   65 am   BACKBONE|DICT|INTERRES
   131   64  189 1    
   132   65   66 2    
   133   67   68 2    
   134   67   69 am   BACKBONE|DICT|INTERRES
   135   69   70 1    
   136   69  190 1    
   137   70   71 1    
   138   70   72 1    
   139   70  191 1    
   140   71  192 1    
   141   71  193 1    
   142   71  194 1    
   143   72   73 2    
   144   72   74 am   BACKBONE|DICT|INTERRES
   145   74   75 1    
   146   74  195 1    
   147   75   76 1    
   148   75   77 1    
   149   75  196 1    
   150   76  197 1    
   151   76  198 1    
   152   76  199 1    
   153   77   78 2    
   154   77   79 am   BACKBONE|DICT|INTERRES
   155   79   80 1    
   156   79  200 1    
   157   80   81 1    
   158   80   82 1    
   159   80  201 1    
   160   81  202 1    
   161   81  203 1    
   162   81  204 1    
   163   82   83 2    
   164   82   84 am   BACKBONE|DICT|INTERRES
   165   84   85 1    
   166   84  205 1    
   167   85   86 1    
   168   85   87 1    
   169   85  206 1    
   170   86  207 1    
   171   86  208 1    
   172   86  209 1    
   173   87   88 2    
   174   87   89 am   BACKBONE|DICT|INTERRES
   175   89   90 1    
   176   89  210 1    
   177   90   91 1    
   178   90   92 1    
   179   90  211 1    
   180   91  212 1    
   181   91  213 1    
   182   91  214 1    
   183   92   93 2    
   184   92   94 am   BACKBONE|DICT|INTERRES
   185   94   95 1    
   186   94  215 1    
   187   95   96 1    
   188   95   97 1    
   189   95  216 1    
   190   96  217 1    
   191   96  218 1    
   192   96  219 1    
   193   97   98 2    
   194   97   99 am   BACKBONE|DICT|INTERRES
   195   99  100 1    
   196   99  220 1    
   197  100  101 1    
   198  100  102 1    
   199  100  221 1    
   200  101  222 1    
   201  101  223 1    
   202  101  224 1    
   203  102  103 2    
   204  102  104 am   BACKBONE|DICT|INTERRES
   205  104  105 1    
   206  104  225 1    
   207  105  106 1    
   208  105  107 1    
   209  105  226 1    
   210  106  227 1    
   211  106  228 1    
   212  106  229 1    
   213  107  108 2    
   214  107  109 am   BACKBONE|DICT|INTERRES
   215  109  110 1    
   216  109  230 1    
   217  110  111 1    
   218  110  112 1    
   219  110  231 1    
   220  111  232 1    
   221  111  233 1    
   222  111  234 1    
   223  112  113 2    
   224  112  114 am   BACKBONE|DICT|INTERRES
   225  114  115 1    
   226  114  235 1    
   227  115  116 1    
   228  115  117 1    
   229  115  236 1    
   230  116  237 1    
   231  116  238 1    
   232  116  239 1    
   233  117  118 2    
   234  117  119 am   BACKBONE|DICT|INTERRES
   235  119  120 1    
   236  119  240 1    
   237  120  121 1    
   238  120  124 1    
   239  120  241 1    
   240  121  122 am   BACKBONE|DICT|INTERRES
   241  121  123 2    
   242  122  242 1    
   243  122  243 1    
   244  124  125 1    
   245  124  244 1    
   246  124  245 1    
   247  125  126 1    
   248  126  246 1    
   249  126  247 1    
@<TRIPOS>SUBSTRUCTURE
     1 UNK         1 GROUP             0       ****    0 ROOT    
