@<TRIPOS>MOLECULE
3R540
247   249    1
SMALL
USER_CHARGES


@<TRIPOS>ATOM
      1 CA          6.0260  -13.9695  -45.9161 C.3       0 UNK        -0.1800 
      2 C           4.6681  -13.3488  -45.6280 C.2       0 UNK         0.5000 
      3 O           4.5687  -12.4456  -44.7964 O.2       0 UNK        -0.5000 
      4 N           3.6211  -13.8080  -46.3260 N.am      1 UNK        -0.5000 
      5 CA          2.2145  -13.4217  -46.1317 C.3       1 UNK         0.1400 
      6 C6          1.2288  -14.4439  -46.7418 C.3       23 UNK        -0.0398 
      7 S7          1.5107  -14.8315  -48.4998 S.3       23 UNK        -0.2404 
      8 C8          0.0192  -15.8230  -48.8189 C.3       23 UNK        -0.0205 
      9 C9          0.2505  -16.8515  -49.9117 C.ar      23 UNK        -0.0193 
     10 C10        -0.3053  -16.6754  -51.1815 C.ar      23 UNK        -0.1150 
     11 C11        -0.1080  -17.6338  -52.1802 C.ar      23 UNK        -0.0193 
     12 C12         0.6540  -18.7715  -51.9020 C.ar      23 UNK        -0.1150 
     13 C13         1.2102  -18.9594  -50.6335 C.ar      23 UNK        -0.0193 
     14 C14         1.0051  -17.9967  -49.6418 C.ar      23 UNK        -0.1150 
     15 C15         2.0292  -20.2045  -50.3383 C.3       23 UNK        -0.0205 
     16 S16         0.9657  -21.5877  -49.8285 S.3       23 UNK        -0.2404 
     17 C17         0.5258  -21.1074  -48.1221 C.3       23 UNK        -0.0398 
     18 CA          0.2393  -22.3471  -47.2428 C.3       11 UNK         0.1400 
     19 N           0.5017  -22.1135  -45.8200 N.am      11 UNK        -0.5000 
     20 C           0.5525  -23.0929  -44.9048 C.2       10 UNK         0.5000 
     21 O           0.3857  -24.2828  -45.1731 O.2       10 UNK        -0.5000 
     22 CA          0.7832  -22.6775  -43.4423 C.3       10 UNK         0.1400 
     23 CB          2.2602  -22.3341  -43.1990 C.3       10 UNK        -0.1800 
     24 N          -0.0624  -21.5544  -43.0404 N.am      10 UNK        -0.5000 
     25 C          -1.4017  -21.5949  -42.9834 C.2       9 UNK         0.5000 
     26 O          -2.0663  -22.6052  -43.2120 O.2       9 UNK        -0.5000 
     27 CA         -2.1235  -20.2723  -42.6646 C.3       9 UNK         0.1400 
     28 CB         -2.1127  -19.9905  -41.1551 C.3       9 UNK        -0.1800 
     29 N          -1.5556  -19.1295  -43.3810 N.am      9 UNK        -0.5000 
     30 C          -1.5070  -19.0156  -44.7164 C.2       8 UNK         0.5000 
     31 O          -1.9572  -19.8511  -45.4982 O.2       8 UNK        -0.5000 
     32 CA         -0.7773  -17.7861  -45.2738 C.3       8 UNK         0.1400 
     33 CB         -1.6706  -16.5382  -45.1946 C.3       8 UNK        -0.1800 
     34 N           0.4890  -17.5536  -44.5795 N.am      8 UNK        -0.5000 
     35 C           1.5482  -18.3728  -44.6635 C.2       7 UNK         0.5000 
     36 O           1.5862  -19.3693  -45.3855 O.2       7 UNK        -0.5000 
     37 CA          2.7431  -18.0543  -43.7493 C.3       7 UNK         0.1400 
     38 CB          3.6821  -17.0360  -44.4137 C.3       7 UNK        -0.1800 
     39 N           2.3119  -17.5586  -42.4406 N.am      7 UNK        -0.5000 
     40 C           1.7215  -18.3272  -41.5111 C.2       6 UNK         0.5000 
     41 O           1.5141  -19.5303  -41.6607 O.2       6 UNK        -0.5000 
     42 CA          1.2439  -17.6438  -40.2143 C.3       6 UNK         0.1400 
     43 CB          2.3531  -17.6769  -39.1529 C.3       6 UNK        -0.1800 
     44 N           0.8101  -16.2613  -40.4101 N.am      6 UNK        -0.5000 
     45 C          -0.1967  -15.8709  -41.2043 C.2       5 UNK         0.5000 
     46 O          -0.9332  -16.6563  -41.8022 O.2       5 UNK        -0.5000 
     47 CA         -0.3659  -14.3502  -41.4140 C.3       5 UNK         0.1400 
     48 CB         -1.4558  -13.7984  -40.4840 C.3       5 UNK        -0.1800 
     49 N           0.8707  -13.5783  -41.2210 N.am      5 UNK        -0.5000 
     50 C           1.9997  -13.7579  -41.9194 C.2       4 UNK         0.5000 
     51 O           2.1078  -14.5857  -42.8249 O.2       4 UNK        -0.5000 
     52 CA          3.2120  -12.9074  -41.5132 C.3       4 UNK         0.1400 
     53 CB          4.5147  -13.7247  -41.5784 C.3       4 UNK        -0.1800 
     54 N           3.3363  -11.7406  -42.3826 N.am      4 UNK        -0.5000 
     55 C           2.7620  -10.5547  -42.1419 C.2       3 UNK         0.5000 
     56 O           2.0096  -10.3521  -41.1876 O.2       3 UNK        -0.5000 
     57 CA          3.0825   -9.3933  -43.0990 C.3       3 UNK         0.1400 
     58 CB          4.3961   -8.7017  -42.6977 C.3       3 UNK        -0.1800 
     59 N           3.1563   -9.8147  -44.4983 N.am      3 UNK        -0.5000 
     60 C           2.7157   -9.0843  -45.5354 C.2       2 UNK         0.5000 
     61 O           2.2360   -7.9556  -45.4193 O.2       2 UNK        -0.5000 
     62 CA          2.8111   -9.7116  -46.9450 C.3       2 UNK         0.1400 
     63 CB          4.0527   -9.1890  -47.6834 C.3       2 UNK        -0.1800 
     64 N           2.8613  -11.1724  -46.9127 N.am      2 UNK        -0.5000 
     65 C           1.8644  -11.9593  -46.4885 C.2       1 UNK         0.5000 
     66 O           0.7174  -11.5498  -46.3038 O.2       1 UNK        -0.5000 
     67 C          -1.1745  -22.9129  -47.4883 C.2       11 UNK         0.5000 
     68 O          -1.3112  -23.8539  -48.2654 O.2       11 UNK        -0.5000 
     69 N          -2.1820  -22.3793  -46.7824 N.am      12 UNK        -0.5000 
     70 CA         -3.5727  -22.8397  -46.8267 C.3       12 UNK         0.1400 
     71 CB         -4.4636  -21.8201  -46.1015 C.3       12 UNK        -0.1800 
     72 C          -3.7859  -24.2528  -46.2463 C.2       12 UNK         0.5000 
     73 O          -4.7660  -24.9084  -46.6020 O.2       12 UNK        -0.5000 
     74 N          -2.8836  -24.7009  -45.3637 N.am      13 UNK        -0.5000 
     75 CA         -2.8469  -26.0723  -44.8608 C.3       13 UNK         0.1400 
     76 CB         -2.1518  -26.1001  -43.4906 C.3       13 UNK        -0.1800 
     77 C          -2.1453  -27.0158  -45.8549 C.2       13 UNK         0.5000 
     78 O          -2.6024  -28.1432  -46.0469 O.2       13 UNK        -0.5000 
     79 N          -1.0466  -26.5442  -46.4600 N.am      14 UNK        -0.5000 
     80 CA         -0.2190  -27.3018  -47.3984 C.3       14 UNK         0.1400 
     81 CB          1.1377  -26.5966  -47.5511 C.3       14 UNK        -0.1800 
     82 C          -0.8709  -27.5102  -48.7783 C.2       14 UNK         0.5000 
     83 O          -0.6979  -28.5774  -49.3694 O.2       14 UNK        -0.5000 
     84 N          -1.5842  -26.4955  -49.2769 N.am      15 UNK        -0.5000 
     85 CA         -2.1906  -26.4585  -50.6043 C.3       15 UNK         0.1400 
     86 CB         -1.1676  -25.8853  -51.6032 C.3       15 UNK        -0.1800 
     87 C          -3.4712  -25.6109  -50.5793 C.2       15 UNK         0.5000 
     88 O          -3.7615  -24.9424  -49.5876 O.2       15 UNK        -0.5000 
     89 N          -4.2140  -25.6166  -51.6913 N.am      16 UNK        -0.5000 
     90 CA         -5.4530  -24.8576  -51.8842 C.3       16 UNK         0.1400 
     91 CB         -6.2778  -25.5544  -52.9804 C.3       16 UNK        -0.1800 
     92 C          -5.1988  -23.3646  -52.1970 C.2       16 UNK         0.5000 
     93 O          -5.7773  -22.8313  -53.1470 O.2       16 UNK        -0.5000 
     94 N          -4.3294  -22.7173  -51.4085 N.am      17 UNK        -0.5000 
     95 CA         -3.9125  -21.3192  -51.5374 C.3       17 UNK         0.1400 
     96 CB         -2.9125  -20.9819  -50.4193 C.3       17 UNK        -0.1800 
     97 C          -5.1138  -20.3553  -51.5252 C.2       17 UNK         0.5000 
     98 O          -5.8398  -20.3005  -50.5309 O.2       17 UNK        -0.5000 
     99 N          -5.3165  -19.6620  -52.6541 N.am      18 UNK        -0.5000 
    100 CA        -6.4179  -18.7429  -52.9638 C.3       18 UNK         0.1400 
    101 CB        -6.4372  -17.5494  -51.9862 C.3       18 UNK        -0.1800 
    102 C         -7.8027  -19.4165  -53.1048 C.2       18 UNK         0.5000 
    103 O         -8.8013  -18.7037  -53.2202 O.2       18 UNK        -0.5000 
    104 N         -7.8524  -20.7560  -53.1205 N.am      19 UNK        -0.5000 
    105 CA        -9.0692  -21.5512  -53.2954 C.3       19 UNK         0.1400 
    106 CB        -9.1966  -22.5517  -52.1356 C.3       19 UNK        -0.1800 
    107 C         -9.0603  -22.2762  -54.6510 C.2       19 UNK         0.5000 
    108 O        -10.0711  -22.2573  -55.3544 O.2       19 UNK        -0.5000 
    109 N         -7.9178  -22.8748  -55.0077 N.am      20 UNK        -0.5000 
    110 CA        -7.6718  -23.5475  -56.2850 C.3       20 UNK         0.1400 
    111 CB        -8.1830  -25.0006  -56.2379 C.3       20 UNK        -0.1800 
    112 C         -6.1838  -23.4347  -56.6691 C.2       20 UNK         0.5000 
    113 O         -5.6324  -24.3302  -57.3109 O.2       20 UNK        -0.5000 
    114 N         -5.5630  -22.3251  -56.2613 N.am      21 UNK        -0.5000 
    115 CA        -4.1790  -21.9382  -56.4949 C.3       21 UNK         0.1400 
    116 CB        -3.2416  -22.6998  -55.5386 C.3       21 UNK        -0.1800 
    117 C         -4.0920  -20.4166  -56.2928 C.2       21 UNK         0.5000 
    118 O         -5.0785  -19.8016  -55.8765 O.2       21 UNK        -0.5000 
    119 N         -2.9214  -19.8403  -56.5879 N.am      22 UNK        -0.5000 
    120 CA        -2.6342  -18.3900  -56.5771 C.3       22 UNK         0.1400 
    121 C         -3.2114  -17.6131  -57.8016 C.2       22 UNK         0.5000 
    122 N         -3.7088  -18.2764  -58.8386 N.am      22 UNK        -0.7600 
    123 O         -3.1809  -16.3857  -57.8323 O.2       22 UNK        -0.5000 
    124 C124       -2.9598  -17.6702  -55.2339 C.3       23 UNK        -0.0398 
    125 S125       -2.2133  -18.4533  -53.7640 S.3       23 UNK        -0.2404 
    126 C126       -0.7178  -17.4385  -53.5578 C.3       23 UNK        -0.0205 
    127 H127        6.7246  -13.2041  -46.2537 H         1 UNK         0.0600 
    128 H128        5.9644  -14.7402  -46.6847 H         1 UNK         0.0600 
    129 H129        6.4265  -14.4238  -45.0099 H         1 UNK         0.0600 
    130 H130        3.7707  -14.5148  -47.0324 H         1 UNK         0.3000 
    131 H131        2.0462  -13.4581  -45.0563 H         1 UNK         0.0600 
    132 H132        1.3066  -15.3788  -46.1868 H         1 UNK         0.0800 
    133 H133        0.1983  -14.1092  -46.6137 H         1 UNK         0.0800 
    134 H134       -0.8053  -15.1565  -49.0768 H         1 UNK         0.0800 
    135 H135       -0.2835  -16.3444  -47.9124 H         1 UNK         0.0800 
    136 H136       -0.8959  -15.7946  -51.3914 H         1 UNK         0.1150 
    137 H137        0.8031  -19.5172  -52.6704 H         1 UNK         0.1150 
    138 H138        1.4315  -18.1365  -48.6581 H         1 UNK         0.1150 
    139 H139        2.5823  -20.4984  -51.2316 H         1 UNK         0.0800 
    140 H140        2.7788  -20.0031  -49.5715 H         1 UNK         0.0800 
    141 H141       -0.3150  -20.4110  -48.1339 H         1 UNK         0.0800 
    142 H142        1.3704  -20.5557  -47.7097 H         1 UNK         0.0800 
    143 H143        0.9445  -23.1269  -47.5399 H         1 UNK         0.0600 
    144 H144        0.6735  -21.1542  -45.5354 H         1 UNK         0.3000 
    145 H145        0.5262  -23.5309  -42.8113 H         1 UNK         0.0600 
    146 H146        2.4481  -22.1316  -42.1445 H         1 UNK         0.0600 
    147 H147        2.9074  -23.1620  -43.4910 H         1 UNK         0.0600 
    148 H148        2.5702  -21.4573  -43.7679 H         1 UNK         0.0600 
    149 H149        0.4162  -20.6995  -42.7731 H         1 UNK         0.3000 
    150 H150       -3.1626  -20.3762  -42.9836 H         1 UNK         0.0600 
    151 H151       -2.5932  -20.8005  -40.6050 H         1 UNK         0.0600 
    152 H152       -2.6510  -19.0719  -40.9203 H         1 UNK         0.0600 
    153 H153       -1.0977  -19.8914  -40.7712 H         1 UNK         0.0600 
    154 H154       -1.1895  -18.3697  -42.8158 H         1 UNK         0.3000 
    155 H155       -0.5553  -17.9851  -46.3237 H         1 UNK         0.0600 
    156 H156       -1.9705  -16.3124  -44.1717 H         1 UNK         0.0600 
    157 H157       -2.5829  -16.6806  -45.7752 H         1 UNK         0.0600 
    158 H158       -1.1692  -15.6596  -45.5934 H         1 UNK         0.0600 
    159 H159        0.5210  -16.7878  -43.9220 H         1 UNK         0.3000 
    160 H160        3.3038  -18.9789  -43.5964 H         1 UNK         0.0600 
    161 H161        4.5327  -16.8031  -43.7730 H         1 UNK         0.0600 
    162 H162        3.1700  -16.1022  -44.6411 H         1 UNK         0.0600 
    163 H163        4.0773  -17.4262  -45.3523 H         1 UNK         0.0600 
    164 H164        2.3943  -16.5600  -42.2868 H         1 UNK         0.3000 
    165 H165        0.3904  -18.2092  -39.8359 H         1 UNK         0.0600 
    166 H166        2.0032  -17.2717  -38.2032 H         1 UNK         0.0600 
    167 H167        2.6839  -18.6995  -38.9661 H         1 UNK         0.0600 
    168 H168        3.2257  -17.1010  -39.4640 H         1 UNK         0.0600 
    169 H169        1.3573  -15.5472  -39.9537 H         1 UNK         0.3000 
    170 H170       -0.6892  -14.2022  -42.4464 H         1 UNK         0.0600 
    171 H171       -2.3958  -14.3345  -40.6222 H         1 UNK         0.0600 
    172 H172       -1.1748  -13.8929  -39.4344 H         1 UNK         0.0600 
    173 H173       -1.6515  -12.7452  -40.6868 H         1 UNK         0.0600 
    174 H174        0.8486  -12.8597  -40.5108 H         1 UNK         0.3000 
    175 H175        3.0829  -12.5868  -40.4771 H         1 UNK         0.0600 
    176 H176        4.7248  -14.0812  -42.5873 H         1 UNK         0.0600 
    177 H177        5.3680  -13.1303  -41.2517 H         1 UNK         0.0600 
    178 H178        4.4591  -14.5992  -40.9290 H         1 UNK         0.0600 
    179 H179        3.9068  -11.8766  -43.2137 H         1 UNK         0.3000 
    180 H180        2.2705   -8.6722  -42.9816 H         1 UNK         0.0600 
    181 H181        4.3710   -8.3874  -41.6535 H         1 UNK         0.0600 
    182 H182        4.5724   -7.8108  -43.3007 H         1 UNK         0.0600 
    183 H183        5.2524   -9.3656  -42.8224 H         1 UNK         0.0600 
    184 H184        3.5523  -10.7310  -44.6799 H         1 UNK         0.3000 
    185 H185        1.9232   -9.4106  -47.5048 H         1 UNK         0.0600 
    186 H186        4.0995   -9.5772  -48.7011 H         1 UNK         0.0600 
    187 H187        4.0367   -8.1005  -47.7523 H         1 UNK         0.0600 
    188 H188        4.9736   -9.4722  -47.1720 H         1 UNK         0.0600 
    189 H189        3.7709  -11.5948  -47.0281 H         1 UNK         0.3000 
    190 H190       -1.9958  -21.5759  -46.1858 H         1 UNK         0.3000 
    191 H191       -3.8799  -22.8712  -47.8733 H         1 UNK         0.0600 
    192 H192       -4.1816  -21.7175  -45.0529 H         1 UNK         0.0600 
    193 H193       -5.5114  -22.1211  -46.1341 H         1 UNK         0.0600 
    194 H194       -4.3941  -20.8363  -46.5661 H         1 UNK         0.0600 
    195 H195       -2.1402  -24.0816  -45.0684 H         1 UNK         0.3000 
    196 H196       -3.8689  -26.4307  -44.7205 H         1 UNK         0.0600 
    197 H197       -2.1419  -27.1104  -43.0799 H         1 UNK         0.0600 
    198 H198       -2.6701  -25.4621  -42.7745 H         1 UNK         0.0600 
    199 H199       -1.1178  -25.7608  -43.5505 H         1 UNK         0.0600 
    200 H200       -0.7128  -25.6193  -46.2103 H         1 UNK         0.3000 
    201 H201       -0.0374  -28.2884  -46.9669 H         1 UNK         0.0600 
    202 H202        1.6469  -26.5075  -46.5913 H         1 UNK         0.0600 
    203 H203        1.0236  -25.5936  -47.9637 H         1 UNK         0.0600 
    204 H204        1.7959  -27.1539  -48.2189 H         1 UNK         0.0600 
    205 H205       -1.6854  -25.6345  -48.7404 H         1 UNK         0.3000 
    206 H206       -2.4728  -27.4683  -50.9090 H         1 UNK         0.0600 
    207 H207       -0.8764  -24.8687  -51.3339 H         1 UNK         0.0600 
    208 H208       -0.2633  -26.4932  -51.6347 H         1 UNK         0.0600 
    209 H209       -1.5699  -25.8556  -52.6162 H         1 UNK         0.0600 
    210 H210       -3.9001  -26.1589  -52.4830 H         1 UNK         0.3000 
    211 H211       -6.0347  -24.8931  -50.9608 H         1 UNK         0.0600 
    212 H212       -5.7676  -25.5227  -53.9440 H         1 UNK         0.0600 
    213 H213       -7.2513  -25.0803  -53.1048 H         1 UNK         0.0600 
    214 H214       -6.4622  -26.5997  -52.7324 H         1 UNK         0.0600 
    215 H215       -3.9388  -23.2389  -50.6309 H         1 UNK         0.3000 
    216 H216       -3.3886  -21.2206  -52.4895 H         1 UNK         0.0600 
    217 H217       -2.5202  -19.9709  -50.5394 H         1 UNK         0.0600 
    218 H218       -2.0617  -21.6630  -50.4327 H         1 UNK         0.0600 
    219 H219       -3.3725  -21.0412  -49.4325 H         1 UNK         0.0600 
    220 H220       -4.6737  -19.8041  -53.4218 H         1 UNK         0.3000 
    221 H221       -6.1925  -18.3386  -53.9508 H         1 UNK         0.0600 
    222 H222       -6.7428  -17.8488  -50.9836 H         1 UNK         0.0600 
    223 H223       -5.4542  -17.0837  -51.9142 H         1 UNK         0.0600 
    224 H224       -7.1343  -16.7806  -52.3211 H         1 UNK         0.0600 
    225 H225       -6.9845  -21.2742  -53.0356 H         1 UNK         0.3000 
    226 H226       -9.9532  -20.9107  -53.2758 H         1 UNK         0.0600 
    227 H227       -9.2882  -22.0325  -51.1815 H         1 UNK         0.0600 
    228 H228      -10.0831  -23.1762  -52.2530 H         1 UNK         0.0600 
    229 H229       -8.3340  -23.2134  -52.0700 H         1 UNK         0.0600 
    230 H230       -7.1275  -22.8612  -54.3647 H         1 UNK         0.3000 
    231 H231       -8.2204  -23.0215  -57.0690 H         1 UNK         0.0600 
    232 H232       -9.2400  -25.0410  -55.9752 H         1 UNK         0.0600 
    233 H233       -7.6344  -25.5986  -55.5118 H         1 UNK         0.0600 
    234 H234       -8.0747  -25.4846  -57.2091 H         1 UNK         0.0600 
    235 H235       -6.0993  -21.6014  -55.7980 H         1 UNK         0.3000 
    236 H236       -3.9155  -22.1638  -57.5300 H         1 UNK         0.0600 
    237 H237       -3.4394  -22.4465  -54.4986 H         1 UNK         0.0600 
    238 H238       -3.3546  -23.7787  -55.6445 H         1 UNK         0.0600 
    239 H239       -2.1960  -22.4649  -55.7390 H         1 UNK         0.0600 
    240 H240       -2.1632  -20.4234  -56.9122 H         1 UNK         0.3000 
    241 H241       -1.5537  -18.3227  -56.7076 H         1 UNK         0.0600 
    242 H242       -4.0680  -17.7627  -59.6282 H         1 UNK         0.3800 
    243 H243       -3.7295  -19.2831  -58.8458 H         1 UNK         0.3800 
    244 H244       -2.6328  -16.6304  -55.2751 H         1 UNK         0.0800 
    245 H245       -4.0372  -17.6185  -55.0773 H         1 UNK         0.0800 
    246 H246       -0.9587  -16.3850  -53.7073 H         1 UNK         0.0800 
    247 H247        0.0085  -17.7024  -54.3280 H         1 UNK         0.0800 
@<TRIPOS>BOND
     1    1    2 1    
     2    1  127 1    
     3    1  128 1    
     4    1  129 1    
     5    2    3 2    
     6    2    4 am   BACKBONE|DICT|INTERRES
     7    4    5 1    
     8    4  130 1    
     9    5    6 1    
    10    5   65 1    
    11    5  131 1    
    12    6    7 1    
    13    6  132 1    
    14    6  133 1    
    15    7    8 1    
    16    8    9 1    
    17    8  134 1    
    18    8  135 1    
    19    9   10 ar   
    20    9   14 ar   
    21   10   11 ar   
    22   10  136 1    
    23   11   12 ar   
    24   11  126 1    
    25   12   13 ar   
    26   12  137 1    
    27   13   14 ar   
    28   13   15 1    
    29   14  138 1    
    30   15   16 1    
    31   15  139 1    
    32   15  140 1    
    33   16   17 1    
    34   17   18 1    
    35   17  141 1    
    36   17  142 1    
    37   18   19 1    
    38   18   67 1    
    39   18  143 1    
    40   19   20 am   BACKBONE|DICT|INTERRES
    41   19  144 1    
    42   20   21 2    
    43   20   22 1    
    44   22   23 1    
    45   22   24 1    
    46   22  145 1    
    47   23  146 1    
    48   23  147 1    
    49   23  148 1    
    50   24   25 am   BACKBONE|DICT|INTERRES
    51   24  149 1    
    52   25   26 2    
    53   25   27 1    
    54   27   28 1    
    55   27   29 1    
    56   27  150 1    
    57   28  151 1    
    58   28  152 1    
    59   28  153 1    
    60   29   30 am   BACKBONE|DICT|INTERRES
    61   29  154 1    
    62   30   31 2    
    63   30   32 1    
    64   32   33 1    
    65   32   34 1    
    66   32  155 1    
    67   33  156 1    
    68   33  157 1    
    69   33  158 1    
    70   34   35 am   BACKBONE|DICT|INTERRES
    71   34  159 1    
    72   35   36 2    
    73   35   37 1    
    74   37   38 1    
    75   37   39 1    
    76   37  160 1    
    77   38  161 1    
    78   38  162 1    
    79   38  163 1    
    80   39   40 am   BACKBONE|DICT|INTERRES
    81   39  164 1    
    82   40   41 2    
    83   40   42 1    
    84   42   43 1    
    85   42   44 1    
    86   42  165 1    
    87   43  166 1    
    88   43  167 1    
    89   43  168 1    
    90   44   45 am   BACKBONE|DICT|INTERRES
    91   44  169 1    
    92   45   46 2    
    93   45   47 1    
    94   47   48 1    
    95   47   49 1    
    96   47  170 1    
    97   48  171 1    
    98   48  172 1    
    99   48  173 1    
   100   49   50 am   BACKBONE|DICT|INTERRES
   101   49  174 1    
   102   50   51 2    
   103   50   52 1    
   104   52   53 1    
   105   52   54 1    
   106   52  175 1    
   107   53  176 1    
   108   53  177 1    
   109   53  178 1    
   110   54   55 am   BACKBONE|DICT|INTERRES
   111   54  179 1    
   112   55   56 2    
   113   55   57 1    
   114   57   58 1    
   115   57   59 1    
   116   57  180 1    
   117   58  181 1    
   118   58  182 1    
   119   58  183 1    
   120   59   60 am   BACKBONE|DICT|INTERRES
   121   59  184 1    
   122   60   61 2    
   123   60   62 1    
   124   62   63 1    
   125   62   64 1    
   126   62  185 1    
   127   63  186 1    
   128   63  187 1    
   129   63  188 1    
   130   64   65 am   BACKBONE|DICT|INTERRES
   131   64  189 1    
   132   65   66 2    
   133   67   68 2    
   134   67   69 am   BACKBONE|DICT|INTERRES
   135   69   70 1    
   136   69  190 1    
   137   70   71 1    
   138   70   72 1    
   139   70  191 1    
   140   71  192 1    
   141   71  193 1    
   142   71  194 1    
   143   72   73 2    
   144   72   74 am   BACKBONE|DICT|INTERRES
   145   74   75 1    
   146   74  195 1    
   147   75   76 1    
   148   75   77 1    
   149   75  196 1    
   150   76  197 1    
   151   76  198 1    
   152   76  199 1    
   153   77   78 2    
   154   77   79 am   BACKBONE|DICT|INTERRES
   155   79   80 1    
   156   79  200 1    
   157   80   81 1    
   158   80   82 1    
   159   80  201 1    
   160   81  202 1    
   161   81  203 1    
   162   81  204 1    
   163   82   83 2    
   164   82   84 am   BACKBONE|DICT|INTERRES
   165   84   85 1    
   166   84  205 1    
   167   85   86 1    
   168   85   87 1    
   169   85  206 1    
   170   86  207 1    
   171   86  208 1    
   172   86  209 1    
   173   87   88 2    
   174   87   89 am   BACKBONE|DICT|INTERRES
   175   89   90 1    
   176   89  210 1    
   177   90   91 1    
   178   90   92 1    
   179   90  211 1    
   180   91  212 1    
   181   91  213 1    
   182   91  214 1    
   183   92   93 2    
   184   92   94 am   BACKBONE|DICT|INTERRES
   185   94   95 1    
   186   94  215 1    
   187   95   96 1    
   188   95   97 1    
   189   95  216 1    
   190   96  217 1    
   191   96  218 1    
   192   96  219 1    
   193   97   98 2    
   194   97   99 am   BACKBONE|DICT|INTERRES
   195   99  100 1    
   196   99  220 1    
   197  100  101 1    
   198  100  102 1    
   199  100  221 1    
   200  101  222 1    
   201  101  223 1    
   202  101  224 1    
   203  102  103 2    
   204  102  104 am   BACKBONE|DICT|INTERRES
   205  104  105 1    
   206  104  225 1    
   207  105  106 1    
   208  105  107 1    
   209  105  226 1    
   210  106  227 1    
   211  106  228 1    
   212  106  229 1    
   213  107  108 2    
   214  107  109 am   BACKBONE|DICT|INTERRES
   215  109  110 1    
   216  109  230 1    
   217  110  111 1    
   218  110  112 1    
   219  110  231 1    
   220  111  232 1    
   221  111  233 1    
   222  111  234 1    
   223  112  113 2    
   224  112  114 am   BACKBONE|DICT|INTERRES
   225  114  115 1    
   226  114  235 1    
   227  115  116 1    
   228  115  117 1    
   229  115  236 1    
   230  116  237 1    
   231  116  238 1    
   232  116  239 1    
   233  117  118 2    
   234  117  119 am   BACKBONE|DICT|INTERRES
   235  119  120 1    
   236  119  240 1    
   237  120  121 1    
   238  120  124 1    
   239  120  241 1    
   240  121  122 am   BACKBONE|DICT|INTERRES
   241  121  123 2    
   242  122  242 1    
   243  122  243 1    
   244  124  125 1    
   245  124  244 1    
   246  124  245 1    
   247  125  126 1    
   248  126  246 1    
   249  126  247 1    
@<TRIPOS>SUBSTRUCTURE
     1 UNK         1 GROUP             0       ****    0 ROOT    
