@<TRIPOS>MOLECULE
3R540
247   249    1
SMALL
USER_CHARGES


@<TRIPOS>ATOM
      1 CA          0.6893  -11.9370  -51.3023 C.3       0 UNK        -0.1800 
      2 C           0.9265  -13.4164  -51.0087 C.2       0 UNK         0.5000 
      3 O           0.1844  -14.2575  -51.5063 O.2       0 UNK        -0.5000 
      4 N           1.9437  -13.7995  -50.2291 N.am      1 UNK        -0.5000 
      5 CA          2.8972  -12.9692  -49.4895 C.3       1 UNK         0.1400 
      6 C6          4.0727  -13.8119  -48.9154 C.3       23 UNK        -0.0398 
      7 S7          3.6104  -15.4830  -48.3071 S.3       23 UNK        -0.2404 
      8 C8          4.3933  -16.5565  -49.5575 C.3       23 UNK        -0.0205 
      9 C9          3.4530  -17.6388  -50.0665 C.ar      23 UNK        -0.0193 
     10 C10         2.4652  -17.3237  -51.0025 C.ar      23 UNK        -0.1150 
     11 C11         1.6308  -18.3107  -51.5334 C.ar      23 UNK        -0.0193 
     12 C12         1.8242  -19.6422  -51.1320 C.ar      23 UNK        -0.1150 
     13 C13         2.8076  -19.9778  -50.1911 C.ar      23 UNK        -0.0193 
     14 C14         3.6081  -18.9646  -49.6548 C.ar      23 UNK        -0.1150 
     15 C15         3.0909  -21.4306  -49.8048 C.3       23 UNK        -0.0205 
     16 S16         1.6160  -22.4946  -49.6534 S.3       23 UNK        -0.2404 
     17 C17         0.8902  -21.9342  -48.0805 C.3       23 UNK        -0.0398 
     18 CA          0.1779  -23.0713  -47.3002 C.3       11 UNK         0.1400 
     19 N           0.1307  -22.7774  -45.8647 N.am      11 UNK        -0.5000 
     20 C          -0.2424  -23.6343  -44.9039 C.2       10 UNK         0.5000 
     21 O          -0.5708  -24.7975  -45.1319 O.2       10 UNK        -0.5000 
     22 CA         -0.3296  -23.0880  -43.4645 C.3       10 UNK         0.1400 
     23 CB         -0.0073  -24.1561  -42.3980 C.3       10 UNK        -0.1800 
     24 N           0.4529  -21.8667  -43.2532 N.am      10 UNK        -0.5000 
     25 C           1.7888  -21.7341  -43.2605 C.2       9 UNK         0.5000 
     26 O           2.5687  -22.6696  -43.4416 O.2       9 UNK        -0.5000 
     27 CA          2.3616  -20.3155  -43.0570 C.3       9 UNK         0.1400 
     28 CB          3.1039  -19.8557  -44.3233 C.3       9 UNK        -0.1800 
     29 N           1.3485  -19.3125  -42.7241 N.am      9 UNK        -0.5000 
     30 C           0.7108  -19.1932  -41.5526 C.2       8 UNK         0.5000 
     31 O           0.9517  -19.8900  -40.5668 O.2       8 UNK        -0.5000 
     32 CA         -0.4223  -18.1501  -41.4955 C.3       8 UNK         0.1400 
     33 CB          0.1305  -16.7637  -41.1310 C.3       8 UNK        -0.1800 
     34 N          -1.1786  -18.0590  -42.7494 N.am      8 UNK        -0.5000 
     35 C          -1.9579  -19.0299  -43.2484 C.2       7 UNK         0.5000 
     36 O          -2.1240  -20.1215  -42.7048 O.2       7 UNK        -0.5000 
     37 CA         -2.6225  -18.7523  -44.6088 C.3       7 UNK         0.1400 
     38 CB         -3.8698  -17.8706  -44.4480 C.3       7 UNK        -0.1800 
     39 N          -1.6921  -18.1275  -45.5486 N.am      7 UNK        -0.5000 
     40 C          -0.6802  -18.7848  -46.1368 C.2       6 UNK         0.5000 
     41 O          -0.4802  -19.9900  -45.9867 O.2       6 UNK        -0.5000 
     42 CA          0.2886  -17.9580  -47.0081 C.3       6 UNK         0.1400 
     43 CB         -0.2399  -17.8732  -48.4480 C.3       6 UNK        -0.1800 
     44 N           0.4969  -16.6004  -46.5022 N.am      6 UNK        -0.5000 
     45 C           0.9409  -16.2844  -45.2773 C.2       5 UNK         0.5000 
     46 O           1.3476  -17.1153  -44.4692 O.2       5 UNK        -0.5000 
     47 CA          0.8427  -14.8105  -44.8425 C.3       5 UNK         0.1400 
     48 CB          2.2325  -14.1617  -44.7812 C.3       5 UNK        -0.1800 
     49 N          -0.0471  -14.0019  -45.6801 N.am      5 UNK        -0.5000 
     50 C          -1.3694  -14.1796  -45.8051 C.2       4 UNK         0.5000 
     51 O          -1.9882  -15.0774  -45.2291 O.2       4 UNK        -0.5000 
     52 CA         -2.0938  -13.2233  -46.7743 C.3       4 UNK         0.1400 
     53 CB         -3.6278  -13.3799  -46.7366 C.3       4 UNK        -0.1800 
     54 N          -1.7039  -11.8214  -46.5929 N.am      4 UNK        -0.5000 
     55 C          -1.8527  -11.0682  -45.4937 C.2       3 UNK         0.5000 
     56 O          -2.3760  -11.4668  -44.4517 O.2       3 UNK        -0.5000 
     57 CA         -1.2894   -9.6333  -45.5788 C.3       3 UNK         0.1400 
     58 CB         -1.4923   -8.8330  -44.2792 C.3       3 UNK        -0.1800 
     59 N           0.1383   -9.6539  -45.8974 N.am      3 UNK        -0.5000 
     60 C           0.6610   -9.7637  -47.1248 C.2       2 UNK         0.5000 
     61 O          -0.0251   -9.7796  -48.1493 O.2       2 UNK        -0.5000 
     62 CA          2.1977   -9.9071  -47.2298 C.3       2 UNK         0.1400 
     63 CB          2.8864  -10.2351  -45.8867 C.3       2 UNK        -0.1800 
     64 N           2.6226  -10.8792  -48.2453 N.am      2 UNK        -0.5000 
     65 C           2.2051  -12.1468  -48.3843 C.2       1 UNK         0.5000 
     66 O           1.3362  -12.6732  -47.6873 O.2       1 UNK        -0.5000 
     67 C          -1.2386  -23.3437  -47.8524 C.2       11 UNK         0.5000 
     68 O          -1.4173  -24.2159  -48.7064 O.2       11 UNK        -0.5000 
     69 N          -2.2288  -22.6064  -47.3263 N.am      12 UNK        -0.5000 
     70 CA         -3.6508  -22.7907  -47.6115 C.3       12 UNK         0.1400 
     71 CB         -4.4438  -21.5994  -47.0534 C.3       12 UNK        -0.1800 
     72 C          -4.1802  -24.1253  -47.0600 C.2       12 UNK         0.5000 
     73 O          -4.8312  -24.8680  -47.7942 O.2       12 UNK        -0.5000 
     74 N          -3.8490  -24.4190  -45.7943 N.am      13 UNK        -0.5000 
     75 CA         -4.2491  -25.6333  -45.0769 C.3       13 UNK         0.1400 
     76 CB         -3.9008  -25.4790  -43.5892 C.3       13 UNK        -0.1800 
     77 C          -3.6206  -26.9160  -45.6528 C.2       13 UNK         0.5000 
     78 O          -4.2810  -27.9544  -45.6876 O.2       13 UNK        -0.5000 
     79 N          -2.3736  -26.8104  -46.1315 N.am      14 UNK        -0.5000 
     80 CA         -1.6419  -27.8683  -46.8325 C.3       14 UNK         0.1400 
     81 CB         -0.1538  -27.4847  -46.8821 C.3       14 UNK        -0.1800 
     82 C          -2.1648  -28.1465  -48.2576 C.2       14 UNK         0.5000 
     83 O          -1.7290  -29.1200  -48.8729 O.2       14 UNK        -0.5000 
     84 N          -3.0572  -27.2808  -48.7639 N.am      15 UNK        -0.5000 
     85 CA         -3.6418  -27.2779  -50.1085 C.3       15 UNK         0.1400 
     86 CB         -4.4565  -28.5604  -50.3753 C.3       15 UNK        -0.1800 
     87 C          -2.6194  -26.9684  -51.2224 C.2       15 UNK         0.5000 
     88 O          -2.8725  -27.2761  -52.3878 O.2       15 UNK        -0.5000 
     89 N          -1.4950  -26.3417  -50.8513 N.am      16 UNK        -0.5000 
     90 CA         -0.4639  -25.8696  -51.7710 C.3       16 UNK         0.1400 
     91 CB          0.8815  -25.8004  -51.0340 C.3       16 UNK        -0.1800 
     92 C          -0.8646  -24.5133  -52.3732 C.2       16 UNK         0.5000 
     93 O          -0.8154  -24.3506  -53.5928 O.2       16 UNK        -0.5000 
     94 N          -1.3131  -23.5900  -51.5112 N.am      17 UNK        -0.5000 
     95 CA         -1.9642  -22.3432  -51.9151 C.3       17 UNK         0.1400 
     96 CB         -1.7992  -21.2857  -50.8114 C.3       17 UNK        -0.1800 
     97 C          -3.4570  -22.5711  -52.2000 C.2       17 UNK         0.5000 
     98 O          -4.0095  -21.9365  -53.0970 O.2       17 UNK        -0.5000 
     99 N          -4.0759  -23.4600  -51.4041 N.am      18 UNK        -0.5000 
    100 CA        -5.4888  -23.8705  -51.4122 C.3       18 UNK         0.1400 
    101 CB        -5.8415  -24.5747  -52.7372 C.3       18 UNK        -0.1800 
    102 C         -6.5038  -22.7603  -51.0575 C.2       18 UNK         0.5000 
    103 O         -7.7072  -23.0227  -51.0539 O.2       18 UNK        -0.5000 
    104 N         -6.0158  -21.5598  -50.7352 N.am      19 UNK        -0.5000 
    105 CA        -6.7702  -20.3689  -50.3767 C.3       19 UNK         0.1400 
    106 CB        -7.4784  -19.7912  -51.6169 C.3       19 UNK        -0.1800 
    107 C         -5.7829  -19.3497  -49.7959 C.2       19 UNK         0.5000 
    108 O         -4.5753  -19.4552  -50.0372 O.2       19 UNK        -0.5000 
    109 N         -6.3127  -18.3702  -49.0543 N.am      20 UNK        -0.5000 
    110 CA        -5.5583  -17.2400  -48.5145 C.3       20 UNK         0.1400 
    111 CB        -6.4824  -16.3975  -47.6228 C.3       20 UNK        -0.1800 
    112 C         -4.9529  -16.3902  -49.6472 C.2       20 UNK         0.5000 
    113 O         -5.6550  -16.0702  -50.6100 O.2       20 UNK        -0.5000 
    114 N         -3.6510  -16.0932  -49.5304 N.am      21 UNK        -0.5000 
    115 CA        -2.8201  -15.3853  -50.5161 C.3       21 UNK         0.1400 
    116 CB        -3.2326  -13.8999  -50.6005 C.3       21 UNK        -0.1800 
    117 C         -2.7909  -16.0632  -51.9073 C.2       21 UNK         0.5000 
    118 O         -2.6352  -15.3765  -52.9184 O.2       21 UNK        -0.5000 
    119 N         -2.9759  -17.3932  -51.9389 N.am      22 UNK        -0.5000 
    120 CA        -3.1372  -18.2067  -53.1583 C.3       22 UNK         0.1400 
    121 C         -4.4228  -17.8730  -53.9824 C.2       22 UNK         0.5000 
    122 N         -5.4213  -17.1990  -53.4198 N.am      22 UNK        -0.7600 
    123 O         -4.5383  -18.2537  -55.1442 O.2       22 UNK        -0.5000 
    124 C124       -1.8428  -18.2662  -54.0275 C.3       23 UNK        -0.0398 
    125 S125       -0.4921  -19.1928  -53.2208 S.3       23 UNK        -0.2404 
    126 C126        0.5484  -17.8658  -52.5241 C.3       23 UNK        -0.0205 
    127 H127        0.1724  -11.4624  -50.4682 H         1 UNK         0.0600 
    128 H128        1.6211  -11.4048  -51.4888 H         1 UNK         0.0600 
    129 H129        0.0650  -11.8243  -52.1888 H         1 UNK         0.0600 
    130 H130        2.0342  -14.7830  -50.0215 H         1 UNK         0.3000 
    131 H131        3.3296  -12.2645  -50.2021 H         1 UNK         0.0600 
    132 H132        4.5770  -13.2848  -48.1030 H         1 UNK         0.0800 
    133 H133        4.8386  -13.9091  -49.6846 H         1 UNK         0.0800 
    134 H134        5.2902  -17.0004  -49.1230 H         1 UNK         0.0800 
    135 H135        4.7343  -15.9771  -50.4157 H         1 UNK         0.0800 
    136 H136        2.3480  -16.3014  -51.3307 H         1 UNK         0.1150 
    137 H137        1.2243  -20.4313  -51.5575 H         1 UNK         0.1150 
    138 H138        4.3847  -19.2138  -48.9452 H         1 UNK         0.1150 
    139 H139        3.7365  -21.8580  -50.5728 H         1 UNK         0.0800 
    140 H140        3.6568  -21.4794  -48.8732 H         1 UNK         0.0800 
    141 H141        1.6969  -21.5227  -47.4720 H         1 UNK         0.0800 
    142 H142        0.2176  -21.1004  -48.2817 H         1 UNK         0.0800 
    143 H143        0.7572  -23.9900  -47.4147 H         1 UNK         0.0600 
    144 H144        0.2799  -21.8070  -45.6093 H         1 UNK         0.3000 
    145 H145       -1.3713  -22.7971  -43.3240 H         1 UNK         0.0600 
    146 H146       -0.0783  -23.7421  -41.3922 H         1 UNK         0.0600 
    147 H147       -0.7051  -24.9915  -42.4523 H         1 UNK         0.0600 
    148 H148        0.9942  -24.5679  -42.5226 H         1 UNK         0.0600 
    149 H149       -0.0975  -21.0315  -43.0977 H         1 UNK         0.3000 
    150 H150        3.0787  -20.3668  -42.2354 H         1 UNK         0.0600 
    151 H151        3.9039  -20.5487  -44.5866 H         1 UNK         0.0600 
    152 H152        3.5598  -18.8758  -44.1798 H         1 UNK         0.0600 
    153 H153        2.4314  -19.7893  -45.1793 H         1 UNK         0.0600 
    154 H154        1.1480  -18.6264  -43.4489 H         1 UNK         0.3000 
    155 H155       -1.1153  -18.4570  -40.7093 H         1 UNK         0.0600 
    156 H156       -0.6694  -16.0279  -41.0478 H         1 UNK         0.0600 
    157 H157        0.8434  -16.4038  -41.8732 H         1 UNK         0.0600 
    158 H158        0.6467  -16.7920  -40.1706 H         1 UNK         0.0600 
    159 H159       -1.0738  -17.2077  -43.2809 H         1 UNK         0.3000 
    160 H160       -2.9420  -19.7097  -45.0251 H         1 UNK         0.0600 
    161 H161       -3.6253  -16.8936  -44.0297 H         1 UNK         0.0600 
    162 H162       -4.5945  -18.3400  -43.7816 H         1 UNK         0.0600 
    163 H163       -4.3658  -17.7098  -45.4049 H         1 UNK         0.0600 
    164 H164       -1.7701  -17.1234  -45.6649 H         1 UNK         0.3000 
    165 H165        1.2561  -18.4638  -47.0191 H         1 UNK         0.0600 
    166 H166       -1.2373  -17.4369  -48.4871 H         1 UNK         0.0600 
    167 H167        0.4134  -17.2634  -49.0706 H         1 UNK         0.0600 
    168 H168       -0.2965  -18.8601  -48.9079 H         1 UNK         0.0600 
    169 H169        0.2192  -15.8419  -47.1056 H         1 UNK         0.3000 
    170 H170        0.4288  -14.8086  -43.8324 H         1 UNK         0.0600 
    171 H171        2.9177  -14.7577  -44.1769 H         1 UNK         0.0600 
    172 H172        2.6754  -14.0582  -45.7714 H         1 UNK         0.0600 
    173 H173        2.1807  -13.1734  -44.3265 H         1 UNK         0.0600 
    174 H174        0.4074  -13.3133  -46.2782 H         1 UNK         0.3000 
    175 H175       -1.7560  -13.5015  -47.7732 H         1 UNK         0.0600 
    176 H176       -4.1152  -12.6954  -47.4305 H         1 UNK         0.0600 
    177 H177       -3.9171  -14.3913  -47.0198 H         1 UNK         0.0600 
    178 H178       -4.0319  -13.1918  -45.7415 H         1 UNK         0.0600 
    179 H179       -1.2126  -11.3978  -47.3725 H         1 UNK         0.3000 
    180 H180       -1.8324   -9.1170  -46.3733 H         1 UNK         0.0600 
    181 H181       -1.1202   -7.8136  -44.3828 H         1 UNK         0.0600 
    182 H182       -2.5502   -8.7657  -44.0222 H         1 UNK         0.0600 
    183 H183       -0.9766   -9.2939  -43.4358 H         1 UNK         0.0600 
    184 H184        0.7667   -9.6824  -45.1077 H         1 UNK         0.3000 
    185 H185        2.5663   -8.9358  -47.5626 H         1 UNK         0.0600 
    186 H186        3.9637  -10.3401  -46.0158 H         1 UNK         0.0600 
    187 H187        2.7338   -9.4431  -45.1527 H         1 UNK         0.0600 
    188 H188        2.5146  -11.1665  -45.4611 H         1 UNK         0.0600 
    189 H189        3.3124  -10.5310  -48.8962 H         1 UNK         0.3000 
    190 H190       -1.9818  -21.8932  -46.6540 H         1 UNK         0.3000 
    191 H191       -3.7888  -22.8061  -48.6923 H         1 UNK         0.0600 
    192 H192       -5.5006  -21.6808  -47.3112 H         1 UNK         0.0600 
    193 H193       -4.0811  -20.6574  -47.4660 H         1 UNK         0.0600 
    194 H194       -4.3745  -21.5370  -45.9670 H         1 UNK         0.0600 
    195 H195       -3.2833  -23.7615  -45.2813 H         1 UNK         0.3000 
    196 H196       -5.3334  -25.7303  -45.1642 H         1 UNK         0.0600 
    197 H197       -4.2203  -26.3536  -43.0209 H         1 UNK         0.0600 
    198 H198       -4.3960  -24.6107  -43.1541 H         1 UNK         0.0600 
    199 H199       -2.8276  -25.3654  -43.4390 H         1 UNK         0.0600 
    200 H200       -1.8650  -25.9441  -45.9772 H         1 UNK         0.3000 
    201 H201       -1.7408  -28.7935  -46.2613 H         1 UNK         0.0600 
    202 H202        0.2534  -27.3555  -45.8791 H         1 UNK         0.0600 
    203 H203        0.0021  -26.5540  -47.4294 H         1 UNK         0.0600 
    204 H204        0.4380  -28.2582  -47.3732 H         1 UNK         0.0600 
    205 H205       -3.3559  -26.5183  -48.1687 H         1 UNK         0.3000 
    206 H206       -4.3457  -26.4477  -50.1148 H         1 UNK         0.0600 
    207 H207       -5.1626  -28.7537  -49.5677 H         1 UNK         0.0600 
    208 H208       -5.0351  -28.4704  -51.2954 H         1 UNK         0.0600 
    209 H209       -3.8159  -29.4362  -50.4797 H         1 UNK         0.0600 
    210 H210       -1.3916  -26.0734  -49.8809 H         1 UNK         0.3000 
    211 H211       -0.3574  -26.5816  -52.5925 H         1 UNK         0.0600 
    212 H212        0.8053  -25.2327  -50.1074 H         1 UNK         0.0600 
    213 H213        1.6476  -25.3299  -51.6516 H         1 UNK         0.0600 
    214 H214        1.2359  -26.7988  -50.7776 H         1 UNK         0.0600 
    215 H215       -1.2890  -23.8027  -50.5180 H         1 UNK         0.3000 
    216 H216       -1.4946  -21.9675  -52.8260 H         1 UNK         0.0600 
    217 H217       -2.2341  -20.3343  -51.1114 H         1 UNK         0.0600 
    218 H218       -0.7514  -21.0981  -50.5924 H         1 UNK         0.0600 
    219 H219       -2.2902  -21.5719  -49.8864 H         1 UNK         0.0600 
    220 H220       -3.5062  -23.9093  -50.7031 H         1 UNK         0.3000 
    221 H221       -5.5903  -24.6058  -50.6144 H         1 UNK         0.0600 
    222 H222       -5.8192  -23.8848  -53.5810 H         1 UNK         0.0600 
    223 H223       -5.1459  -25.3871  -52.9489 H         1 UNK         0.0600 
    224 H224       -6.8415  -25.0081  -52.6977 H         1 UNK         0.0600 
    225 H225       -5.0157  -21.4073  -50.7585 H         1 UNK         0.3000 
    226 H226       -7.5037  -20.6261  -49.6101 H         1 UNK         0.0600 
    227 H227       -7.9868  -18.8550  -51.3833 H         1 UNK         0.0600 
    228 H228       -6.7697  -19.5885  -52.4207 H         1 UNK         0.0600 
    229 H229       -8.2317  -20.4776  -52.0030 H         1 UNK         0.0600 
    230 H230       -7.3140  -18.3365  -48.9312 H         1 UNK         0.3000 
    231 H231       -4.7521  -17.6413  -47.8968 H         1 UNK         0.0600 
    232 H232       -5.9466  -15.5570  -47.1823 H         1 UNK         0.0600 
    233 H233       -6.8844  -16.9898  -46.8006 H         1 UNK         0.0600 
    234 H234       -7.3230  -15.9901  -48.1863 H         1 UNK         0.0600 
    235 H235       -3.1626  -16.4284  -48.7141 H         1 UNK         0.3000 
    236 H236       -1.7984  -15.4261  -50.1371 H         1 UNK         0.0600 
    237 H237       -4.2158  -13.7797  -51.0563 H         1 UNK         0.0600 
    238 H238       -3.2638  -13.4356  -49.6174 H         1 UNK         0.0600 
    239 H239       -2.5225  -13.3307  -51.2016 H         1 UNK         0.0600 
    240 H240       -3.1499  -17.8818  -51.0706 H         1 UNK         0.3000 
    241 H241       -3.3317  -19.2187  -52.8050 H         1 UNK         0.0600 
    242 H242       -6.2440  -16.9978  -53.9649 H         1 UNK         0.3800 
    243 H243       -5.3603  -16.8599  -52.4659 H         1 UNK         0.3800 
    244 H244       -1.5003  -17.2696  -54.3065 H         1 UNK         0.0800 
    245 H245       -2.0373  -18.7841  -54.9676 H         1 UNK         0.0800 
    246 H246        1.0192  -17.3286  -53.3485 H         1 UNK         0.0800 
    247 H247       -0.0946  -17.1483  -52.0149 H         1 UNK         0.0800 
@<TRIPOS>BOND
     1    1    2 1    
     2    1  127 1    
     3    1  128 1    
     4    1  129 1    
     5    2    3 2    
     6    2    4 am   BACKBONE|DICT|INTERRES
     7    4    5 1    
     8    4  130 1    
     9    5    6 1    
    10    5   65 1    
    11    5  131 1    
    12    6    7 1    
    13    6  132 1    
    14    6  133 1    
    15    7    8 1    
    16    8    9 1    
    17    8  134 1    
    18    8  135 1    
    19    9   10 ar   
    20    9   14 ar   
    21   10   11 ar   
    22   10  136 1    
    23   11   12 ar   
    24   11  126 1    
    25   12   13 ar   
    26   12  137 1    
    27   13   14 ar   
    28   13   15 1    
    29   14  138 1    
    30   15   16 1    
    31   15  139 1    
    32   15  140 1    
    33   16   17 1    
    34   17   18 1    
    35   17  141 1    
    36   17  142 1    
    37   18   19 1    
    38   18   67 1    
    39   18  143 1    
    40   19   20 am   BACKBONE|DICT|INTERRES
    41   19  144 1    
    42   20   21 2    
    43   20   22 1    
    44   22   23 1    
    45   22   24 1    
    46   22  145 1    
    47   23  146 1    
    48   23  147 1    
    49   23  148 1    
    50   24   25 am   BACKBONE|DICT|INTERRES
    51   24  149 1    
    52   25   26 2    
    53   25   27 1    
    54   27   28 1    
    55   27   29 1    
    56   27  150 1    
    57   28  151 1    
    58   28  152 1    
    59   28  153 1    
    60   29   30 am   BACKBONE|DICT|INTERRES
    61   29  154 1    
    62   30   31 2    
    63   30   32 1    
    64   32   33 1    
    65   32   34 1    
    66   32  155 1    
    67   33  156 1    
    68   33  157 1    
    69   33  158 1    
    70   34   35 am   BACKBONE|DICT|INTERRES
    71   34  159 1    
    72   35   36 2    
    73   35   37 1    
    74   37   38 1    
    75   37   39 1    
    76   37  160 1    
    77   38  161 1    
    78   38  162 1    
    79   38  163 1    
    80   39   40 am   BACKBONE|DICT|INTERRES
    81   39  164 1    
    82   40   41 2    
    83   40   42 1    
    84   42   43 1    
    85   42   44 1    
    86   42  165 1    
    87   43  166 1    
    88   43  167 1    
    89   43  168 1    
    90   44   45 am   BACKBONE|DICT|INTERRES
    91   44  169 1    
    92   45   46 2    
    93   45   47 1    
    94   47   48 1    
    95   47   49 1    
    96   47  170 1    
    97   48  171 1    
    98   48  172 1    
    99   48  173 1    
   100   49   50 am   BACKBONE|DICT|INTERRES
   101   49  174 1    
   102   50   51 2    
   103   50   52 1    
   104   52   53 1    
   105   52   54 1    
   106   52  175 1    
   107   53  176 1    
   108   53  177 1    
   109   53  178 1    
   110   54   55 am   BACKBONE|DICT|INTERRES
   111   54  179 1    
   112   55   56 2    
   113   55   57 1    
   114   57   58 1    
   115   57   59 1    
   116   57  180 1    
   117   58  181 1    
   118   58  182 1    
   119   58  183 1    
   120   59   60 am   BACKBONE|DICT|INTERRES
   121   59  184 1    
   122   60   61 2    
   123   60   62 1    
   124   62   63 1    
   125   62   64 1    
   126   62  185 1    
   127   63  186 1    
   128   63  187 1    
   129   63  188 1    
   130   64   65 am   BACKBONE|DICT|INTERRES
   131   64  189 1    
   132   65   66 2    
   133   67   68 2    
   134   67   69 am   BACKBONE|DICT|INTERRES
   135   69   70 1    
   136   69  190 1    
   137   70   71 1    
   138   70   72 1    
   139   70  191 1    
   140   71  192 1    
   141   71  193 1    
   142   71  194 1    
   143   72   73 2    
   144   72   74 am   BACKBONE|DICT|INTERRES
   145   74   75 1    
   146   74  195 1    
   147   75   76 1    
   148   75   77 1    
   149   75  196 1    
   150   76  197 1    
   151   76  198 1    
   152   76  199 1    
   153   77   78 2    
   154   77   79 am   BACKBONE|DICT|INTERRES
   155   79   80 1    
   156   79  200 1    
   157   80   81 1    
   158   80   82 1    
   159   80  201 1    
   160   81  202 1    
   161   81  203 1    
   162   81  204 1    
   163   82   83 2    
   164   82   84 am   BACKBONE|DICT|INTERRES
   165   84   85 1    
   166   84  205 1    
   167   85   86 1    
   168   85   87 1    
   169   85  206 1    
   170   86  207 1    
   171   86  208 1    
   172   86  209 1    
   173   87   88 2    
   174   87   89 am   BACKBONE|DICT|INTERRES
   175   89   90 1    
   176   89  210 1    
   177   90   91 1    
   178   90   92 1    
   179   90  211 1    
   180   91  212 1    
   181   91  213 1    
   182   91  214 1    
   183   92   93 2    
   184   92   94 am   BACKBONE|DICT|INTERRES
   185   94   95 1    
   186   94  215 1    
   187   95   96 1    
   188   95   97 1    
   189   95  216 1    
   190   96  217 1    
   191   96  218 1    
   192   96  219 1    
   193   97   98 2    
   194   97   99 am   BACKBONE|DICT|INTERRES
   195   99  100 1    
   196   99  220 1    
   197  100  101 1    
   198  100  102 1    
   199  100  221 1    
   200  101  222 1    
   201  101  223 1    
   202  101  224 1    
   203  102  103 2    
   204  102  104 am   BACKBONE|DICT|INTERRES
   205  104  105 1    
   206  104  225 1    
   207  105  106 1    
   208  105  107 1    
   209  105  226 1    
   210  106  227 1    
   211  106  228 1    
   212  106  229 1    
   213  107  108 2    
   214  107  109 am   BACKBONE|DICT|INTERRES
   215  109  110 1    
   216  109  230 1    
   217  110  111 1    
   218  110  112 1    
   219  110  231 1    
   220  111  232 1    
   221  111  233 1    
   222  111  234 1    
   223  112  113 2    
   224  112  114 am   BACKBONE|DICT|INTERRES
   225  114  115 1    
   226  114  235 1    
   227  115  116 1    
   228  115  117 1    
   229  115  236 1    
   230  116  237 1    
   231  116  238 1    
   232  116  239 1    
   233  117  118 2    
   234  117  119 am   BACKBONE|DICT|INTERRES
   235  119  120 1    
   236  119  240 1    
   237  120  121 1    
   238  120  124 1    
   239  120  241 1    
   240  121  122 am   BACKBONE|DICT|INTERRES
   241  121  123 2    
   242  122  242 1    
   243  122  243 1    
   244  124  125 1    
   245  124  244 1    
   246  124  245 1    
   247  125  126 1    
   248  126  246 1    
   249  126  247 1    
@<TRIPOS>SUBSTRUCTURE
     1 UNK         1 GROUP             0       ****    0 ROOT    
