@<TRIPOS>MOLECULE
3R540
247   249    1
SMALL
USER_CHARGES


@<TRIPOS>ATOM
      1 CA         -4.8844  -15.9721  -44.6427 C.3       0 UNK        -0.1800 
      2 C          -3.6313  -15.3528  -45.2417 C.2       0 UNK         0.5000 
      3 O          -3.6801  -14.2196  -45.7214 O.2       0 UNK        -0.5000 
      4 N          -2.5144  -16.0901  -45.2175 N.am      1 UNK        -0.5000 
      5 CA         -1.1996  -15.6334  -45.6753 C.3       1 UNK         0.1400 
      6 C6         -0.1889  -16.8049  -45.7506 C.3       23 UNK        -0.0398 
      7 S7          0.9530  -16.6610  -47.1611 S.3       23 UNK        -0.2404 
      8 C8          0.3599  -18.0085  -48.2308 C.3       23 UNK        -0.0205 
      9 C9         -0.8856  -17.6178  -49.0129 C.ar      23 UNK        -0.0193 
     10 C10        -0.7639  -17.1674  -50.3298 C.ar      23 UNK        -0.1150 
     11 C11        -1.9003  -16.8718  -51.0854 C.ar      23 UNK        -0.0193 
     12 C12        -3.1640  -16.9974  -50.5030 C.ar      23 UNK        -0.1150 
     13 C13        -3.3085  -17.4396  -49.1843 C.ar      23 UNK        -0.0193 
     14 C14        -2.1584  -17.7495  -48.4457 C.ar      23 UNK        -0.1150 
     15 C15        -4.7243  -17.5450  -48.6119 C.3       23 UNK        -0.0205 
     16 S16        -4.9230  -18.5265  -47.0857 S.3       23 UNK        -0.2404 
     17 C17        -4.6049  -20.2304  -47.6542 C.3       23 UNK        -0.0398 
     18 CA         -3.6593  -20.9834  -46.6824 C.3       11 UNK         0.1400 
     19 N          -4.1574  -21.0537  -45.2946 N.am      11 UNK        -0.5000 
     20 C          -5.2894  -21.6160  -44.8385 C.2       10 UNK         0.5000 
     21 O          -6.1067  -22.1813  -45.5656 O.2       10 UNK        -0.5000 
     22 CA         -5.5311  -21.6144  -43.3163 C.3       10 UNK         0.1400 
     23 CB         -5.2668  -23.0174  -42.7453 C.3       10 UNK        -0.1800 
     24 N          -4.6895  -20.6572  -42.5996 N.am      10 UNK        -0.5000 
     25 C          -4.9744  -19.3582  -42.4358 C.2       9 UNK         0.5000 
     26 O          -6.0183  -18.8327  -42.8215 O.2       9 UNK        -0.5000 
     27 CA         -3.9024  -18.4992  -41.7310 C.3       9 UNK         0.1400 
     28 CB         -4.2289  -18.3490  -40.2378 C.3       9 UNK        -0.1800 
     29 N          -2.5420  -19.0301  -41.8725 N.am      9 UNK        -0.5000 
     30 C          -1.8865  -19.1353  -43.0340 C.2       8 UNK         0.5000 
     31 O          -2.3512  -18.7612  -44.1123 O.2       8 UNK        -0.5000 
     32 CA         -0.4991  -19.7967  -42.9928 C.3       8 UNK         0.1400 
     33 CB         -0.2954  -20.7188  -44.2079 C.3       8 UNK        -0.1800 
     34 N           0.5678  -18.8021  -42.9767 N.am      8 UNK        -0.5000 
     35 C           0.8781  -17.9887  -41.9581 C.2       7 UNK         0.5000 
     36 O           0.2854  -18.0050  -40.8785 O.2       7 UNK        -0.5000 
     37 CA          2.0345  -16.9835  -42.1799 C.3       7 UNK         0.1400 
     38 CB          2.9555  -16.8819  -40.9466 C.3       7 UNK        -0.1800 
     39 N           2.8259  -17.2099  -43.4007 N.am      7 UNK        -0.5000 
     40 C           3.5876  -18.2773  -43.6947 C.2       6 UNK         0.5000 
     41 O           3.7305  -19.2428  -42.9448 O.2       6 UNK        -0.5000 
     42 CA          4.2726  -18.3051  -45.0748 C.3       6 UNK         0.1400 
     43 CB          3.5324  -19.2703  -46.0143 C.3       6 UNK        -0.1800 
     44 N           4.3626  -16.9917  -45.7168 N.am      6 UNK        -0.5000 
     45 C           5.2684  -16.0591  -45.3944 C.2       5 UNK         0.5000 
     46 O           6.1005  -16.2124  -44.4978 O.2       5 UNK        -0.5000 
     47 CA          5.2699  -14.7503  -46.2094 C.3       5 UNK         0.1400 
     48 CB          4.0727  -14.5964  -47.1693 C.3       5 UNK        -0.1800 
     49 N           5.2805  -13.6212  -45.2862 N.am      5 UNK        -0.5000 
     50 C           6.3533  -12.8874  -44.9608 C.2       4 UNK         0.5000 
     51 O           7.4635  -13.0336  -45.4746 O.2       4 UNK        -0.5000 
     52 CA          6.1614  -11.7891  -43.8930 C.3       4 UNK         0.1400 
     53 CB          6.1823  -10.3974  -44.5452 C.3       4 UNK        -0.1800 
     54 N           4.9141  -11.9307  -43.1405 N.am      4 UNK        -0.5000 
     55 C           4.7050  -12.8096  -42.1506 C.2       3 UNK         0.5000 
     56 O           5.5786  -13.5424  -41.6876 O.2       3 UNK        -0.5000 
     57 CA          3.2648  -12.8999  -41.6067 C.3       3 UNK         0.1400 
     58 CB          3.1057  -12.0287  -40.3518 C.3       3 UNK        -0.1800 
     59 N           2.2446  -12.5186  -42.5900 N.am      3 UNK        -0.5000 
     60 C           1.9860  -13.1930  -43.7175 C.2       2 UNK         0.5000 
     61 O           2.5915  -14.2122  -44.0603 O.2       2 UNK        -0.5000 
     62 CA          0.9156  -12.5927  -44.6457 C.3       2 UNK         0.1400 
     63 CB          1.5728  -11.6550  -45.6703 C.3       2 UNK        -0.1800 
     64 N           0.1801  -13.6343  -45.3601 N.am      2 UNK        -0.5000 
     65 C          -0.6456  -14.5092  -44.7744 C.2       1 UNK         0.5000 
     66 O          -0.9313  -14.4826  -43.5736 O.2       1 UNK        -0.5000 
     67 C          -3.2442  -22.3577  -47.2576 C.2       11 UNK         0.5000 
     68 O          -2.1827  -22.4678  -47.8737 O.2       11 UNK        -0.5000 
     69 N          -4.0496  -23.3983  -47.0125 N.am      12 UNK        -0.5000 
     70 CA         -3.8095  -24.7925  -47.3900 C.3       12 UNK         0.1400 
     71 CB         -5.0373  -25.6317  -47.0092 C.3       12 UNK        -0.1800 
     72 C          -2.5331  -25.3898  -46.7695 C.2       12 UNK         0.5000 
     73 O          -1.9018  -26.2399  -47.3954 O.2       12 UNK        -0.5000 
     74 N          -2.1369  -24.8928  -45.5888 N.am      13 UNK        -0.5000 
     75 CA         -0.8900  -25.2510  -44.9055 C.3       13 UNK         0.1400 
     76 CB         -0.9172  -24.6814  -43.4789 C.3       13 UNK        -0.1800 
     77 C           0.3800  -24.7948  -45.6570 C.2       13 UNK         0.5000 
     78 O           1.4350  -25.4035  -45.4790 O.2       13 UNK        -0.5000 
     79 N           0.2509  -23.7610  -46.5011 N.am      14 UNK        -0.5000 
     80 CA          1.2923  -23.2821  -47.4139 C.3       14 UNK         0.1400 
     81 CB          1.2538  -21.7446  -47.4292 C.3       14 UNK        -0.1800 
     82 C           1.1122  -23.8385  -48.8421 C.2       14 UNK         0.5000 
     83 O           1.8796  -23.4667  -49.7300 O.2       14 UNK        -0.5000 
     84 N           0.0838  -24.6780  -49.0502 N.am      15 UNK        -0.5000 
     85 CA         -0.4072  -25.2090  -50.3282 C.3       15 UNK         0.1400 
     86 CB          0.6540  -26.0912  -51.0165 C.3       15 UNK        -0.1800 
     87 C          -0.9796  -24.1268  -51.2699 C.2       15 UNK         0.5000 
     88 O          -1.1671  -24.3886  -52.4585 O.2       15 UNK        -0.5000 
     89 N          -1.2846  -22.9380  -50.7309 N.am      16 UNK        -0.5000 
     90 CA         -1.7919  -21.7971  -51.4903 C.3       16 UNK         0.1400 
     91 CB         -1.6343  -20.5231  -50.6583 C.3       16 UNK        -0.1800 
     92 C          -3.2493  -21.9834  -51.9368 C.2       16 UNK         0.5000 
     93 O          -3.6217  -21.4972  -53.0030 O.2       16 UNK        -0.5000 
     94 N          -4.0357  -22.7304  -51.1487 N.am      17 UNK        -0.5000 
     95 CA         -5.4112  -23.1107  -51.4794 C.3       17 UNK         0.1400 
     96 CB         -6.0569  -23.7968  -50.2672 C.3       17 UNK        -0.1800 
     97 C          -5.4898  -24.0131  -52.7269 C.2       17 UNK         0.5000 
     98 O          -6.3955  -23.8454  -53.5435 O.2       17 UNK        -0.5000 
     99 N          -4.5045  -24.9104  -52.8845 N.am      18 UNK        -0.5000 
    100 CA        -4.3408  -25.7702  -54.0607 C.3       18 UNK         0.1400 
    101 CB        -3.3499  -26.8977  -53.7335 C.3       18 UNK        -0.1800 
    102 C         -3.8906  -24.9890  -55.3118 C.2       18 UNK         0.5000 
    103 O         -4.1838  -25.4124  -56.4298 O.2       18 UNK        -0.5000 
    104 N         -3.2285  -23.8433  -55.1007 N.am      19 UNK        -0.5000 
    105 CA        -2.8493  -22.8749  -56.1308 C.3       19 UNK         0.1400 
    106 CB        -1.5636  -22.1543  -55.6882 C.3       19 UNK        -0.1800 
    107 C         -3.9745  -21.8637  -56.4443 C.2       19 UNK         0.5000 
    108 O         -3.7261  -20.9080  -57.1786 O.2       19 UNK        -0.5000 
    109 N         -5.1763  -22.0722  -55.8833 N.am      20 UNK        -0.5000 
    110 CA        -6.3972  -21.2684  -56.0288 C.3       20 UNK         0.1400 
    111 CB        -6.8257  -21.1516  -57.5071 C.3       20 UNK        -0.1800 
    112 C         -6.3519  -19.9019  -55.3113 C.2       20 UNK         0.5000 
    113 O         -7.2021  -19.0525  -55.5811 O.2       20 UNK        -0.5000 
    114 N         -5.3952  -19.7366  -54.3869 N.am      21 UNK        -0.5000 
    115 CA        -5.1899  -18.6095  -53.4744 C.3       21 UNK         0.1400 
    116 CB        -6.1741  -18.7492  -52.2942 C.3       21 UNK        -0.1800 
    117 C         -5.2371  -17.2012  -54.1236 C.2       21 UNK         0.5000 
    118 O         -6.0849  -16.3956  -53.7389 O.2       21 UNK        -0.5000 
    119 N         -4.3703  -16.8456  -55.0811 N.am      22 UNK        -0.5000 
    120 CA        -3.3225  -17.6160  -55.7630 C.3       22 UNK         0.1400 
    121 C         -3.4332  -17.3079  -57.2782 C.2       22 UNK         0.5000 
    122 N         -3.5184  -18.3182  -58.1296 N.am      22 UNK        -0.7600 
    123 O         -3.4164  -16.1495  -57.6907 O.2       22 UNK        -0.5000 
    124 C124       -1.9035  -17.2558  -55.2487 C.3       23 UNK        -0.0398 
    125 S125       -1.5603  -17.9342  -53.5949 S.3       23 UNK        -0.2404 
    126 C126       -1.7663  -16.4635  -52.5430 C.3       23 UNK        -0.0205 
    127 H127       -5.1371  -15.4829  -43.7023 H         1 UNK         0.0600 
    128 H128       -4.7481  -17.0358  -44.4521 H         1 UNK         0.0600 
    129 H129       -5.7253  -15.8603  -45.3271 H         1 UNK         0.0600 
    130 H130       -2.5397  -17.0197  -44.8061 H         1 UNK         0.3000 
    131 H131       -1.3509  -15.2263  -46.6778 H         1 UNK         0.0600 
    132 H132        0.4045  -16.8792  -44.8412 H         1 UNK         0.0800 
    133 H133       -0.7050  -17.7600  -45.8245 H         1 UNK         0.0800 
    134 H134        1.1608  -18.2782  -48.9209 H         1 UNK         0.0800 
    135 H135        0.1673  -18.9040  -47.6393 H         1 UNK         0.0800 
    136 H136        0.2144  -17.0812  -50.7813 H         1 UNK         0.1150 
    137 H137       -4.0421  -16.7594  -51.0859 H         1 UNK         0.1150 
    138 H138       -2.2482  -18.0974  -47.4289 H         1 UNK         0.1150 
    139 H139       -5.0791  -16.5341  -48.4077 H         1 UNK         0.0800 
    140 H140       -5.3947  -17.9603  -49.3640 H         1 UNK         0.0800 
    141 H141       -4.1778  -20.1933  -48.6569 H         1 UNK         0.0800 
    142 H142       -5.5609  -20.7463  -47.7533 H         1 UNK         0.0800 
    143 H143       -2.7355  -20.4055  -46.6205 H         1 UNK         0.0600 
    144 H144       -3.5880  -20.5542  -44.6251 H         1 UNK         0.3000 
    145 H145       -6.5822  -21.3694  -43.1491 H         1 UNK         0.0600 
    146 H146       -5.4876  -23.0559  -41.6784 H         1 UNK         0.0600 
    147 H147       -5.8961  -23.7643  -43.2314 H         1 UNK         0.0600 
    148 H148       -4.2288  -23.3224  -42.8844 H         1 UNK         0.0600 
    149 H149       -3.8238  -21.0080  -42.2180 H         1 UNK         0.3000 
    150 H150       -3.9231  -17.5065  -42.1846 H         1 UNK         0.0600 
    151 H151       -4.2026  -19.3092  -39.7212 H         1 UNK         0.0600 
    152 H152       -5.2247  -17.9267  -40.0961 H         1 UNK         0.0600 
    153 H153       -3.5215  -17.6819  -39.7448 H         1 UNK         0.0600 
    154 H154       -2.0733  -19.3077  -41.0211 H         1 UNK         0.3000 
    155 H155       -0.4261  -20.4054  -42.0891 H         1 UNK         0.0600 
    156 H156       -0.2434  -20.1546  -45.1397 H         1 UNK         0.0600 
    157 H157       -1.1177  -21.4271  -44.3079 H         1 UNK         0.0600 
    158 H158        0.6237  -21.2973  -44.1123 H         1 UNK         0.0600 
    159 H159        1.1283  -18.7351  -43.8111 H         1 UNK         0.3000 
    160 H160        1.5563  -16.0123  -42.3115 H         1 UNK         0.0600 
    161 H161        3.3632  -17.8533  -40.6654 H         1 UNK         0.0600 
    162 H162        2.4124  -16.4948  -40.0838 H         1 UNK         0.0600 
    163 H163        3.7943  -16.2110  -41.1317 H         1 UNK         0.0600 
    164 H164        2.8122  -16.4418  -44.0617 H         1 UNK         0.3000 
    165 H165        5.2841  -18.6906  -44.9295 H         1 UNK         0.0600 
    166 H166        4.0050  -19.3116  -46.9958 H         1 UNK         0.0600 
    167 H167        3.5386  -20.2836  -45.6108 H         1 UNK         0.0600 
    168 H168        2.4910  -18.9820  -46.1540 H         1 UNK         0.0600 
    169 H169        3.6999  -16.7972  -46.4542 H         1 UNK         0.3000 
    170 H170        6.1792  -14.7564  -46.8135 H         1 UNK         0.0600 
    171 H171        4.0562  -15.3888  -47.9186 H         1 UNK         0.0600 
    172 H172        3.1201  -14.6124  -46.6404 H         1 UNK         0.0600 
    173 H173        4.1295  -13.6517  -47.7102 H         1 UNK         0.0600 
    174 H174        4.4288  -13.4970  -44.7532 H         1 UNK         0.3000 
    175 H175        7.0014  -11.8549  -43.1983 H         1 UNK         0.0600 
    176 H176        5.3623  -10.2726  -45.2536 H         1 UNK         0.0600 
    177 H177        6.1032   -9.6092  -43.7962 H         1 UNK         0.0600 
    178 H178        7.1135  -10.2337  -45.0891 H         1 UNK         0.0600 
    179 H179        4.1394  -11.3578  -43.4403 H         1 UNK         0.3000 
    180 H180        3.0846  -13.9381  -41.3246 H         1 UNK         0.0600 
    181 H181        3.2512  -10.9709  -40.5745 H         1 UNK         0.0600 
    182 H182        3.8338  -12.3068  -39.5885 H         1 UNK         0.0600 
    183 H183        2.1153  -12.1474  -39.9119 H         1 UNK         0.0600 
    184 H184        1.7105  -11.6871  -42.3810 H         1 UNK         0.3000 
    185 H185        0.2052  -12.0193  -44.0465 H         1 UNK         0.0600 
    186 H186        2.1037  -10.8413  -45.1747 H         1 UNK         0.0600 
    187 H187        2.2933  -12.1820  -46.2973 H         1 UNK         0.0600 
    188 H188        0.8278  -11.2021  -46.3249 H         1 UNK         0.0600 
    189 H189        0.4070  -13.7541  -46.3365 H         1 UNK         0.3000 
    190 H190       -4.9107  -23.2019  -46.5063 H         1 UNK         0.3000 
    191 H191       -3.6880  -24.8274  -48.4738 H         1 UNK         0.0600 
    192 H192       -5.9373  -25.2616  -47.5004 H         1 UNK         0.0600 
    193 H193       -4.9088  -26.6728  -47.3085 H         1 UNK         0.0600 
    194 H194       -5.2151  -25.6173  -45.9331 H         1 UNK         0.0600 
    195 H195       -2.7182  -24.1996  -45.1432 H         1 UNK         0.3000 
    196 H196       -0.8490  -26.3400  -44.8341 H         1 UNK         0.0600 
    197 H197       -0.0125  -24.9524  -42.9331 H         1 UNK         0.0600 
    198 H198       -1.7640  -25.0725  -42.9146 H         1 UNK         0.0600 
    199 H199       -0.9866  -23.5946  -43.4768 H         1 UNK         0.0600 
    200 H200       -0.6588  -23.3315  -46.6146 H         1 UNK         0.3000 
    201 H201        2.2781  -23.5945  -47.0639 H         1 UNK         0.0600 
    202 H202        2.0249  -21.3341  -48.0824 H         1 UNK         0.0600 
    203 H203        1.4327  -21.3425  -46.4342 H         1 UNK         0.0600 
    204 H204        0.2925  -21.3678  -47.7793 H         1 UNK         0.0600 
    205 H205       -0.4615  -24.9595  -48.2448 H         1 UNK         0.3000 
    206 H206       -1.2497  -25.8544  -50.0773 H         1 UNK         0.0600 
    207 H207        1.0423  -26.8464  -50.3332 H         1 UNK         0.0600 
    208 H208        0.2287  -26.6177  -51.8718 H         1 UNK         0.0600 
    209 H209        1.4960  -25.5043  -51.3839 H         1 UNK         0.0600 
    210 H210       -1.1653  -22.8039  -49.7339 H         1 UNK         0.3000 
    211 H211       -1.1856  -21.6849  -52.3916 H         1 UNK         0.0600 
    212 H212       -2.1399  -20.5926  -49.6977 H         1 UNK         0.0600 
    213 H213       -2.0563  -19.6693  -51.1860 H         1 UNK         0.0600 
    214 H214       -0.5836  -20.3044  -50.4682 H         1 UNK         0.0600 
    215 H215       -3.6466  -23.0916  -50.2913 H         1 UNK         0.3000 
    216 H216       -5.9699  -22.1973  -51.6937 H         1 UNK         0.0600 
    217 H217       -7.1067  -24.0198  -50.4619 H         1 UNK         0.0600 
    218 H218       -6.0199  -23.1597  -49.3832 H         1 UNK         0.0600 
    219 H219       -5.5637  -24.7389  -50.0272 H         1 UNK         0.0600 
    220 H220       -3.7766  -24.9597  -52.1876 H         1 UNK         0.3000 
    221 H221       -5.3078  -26.2247  -54.2871 H         1 UNK         0.0600 
    222 H222       -2.3540  -26.5124  -53.5150 H         1 UNK         0.0600 
    223 H223       -3.6821  -27.4792  -52.8734 H         1 UNK         0.0600 
    224 H224       -3.2549  -27.5870  -54.5735 H         1 UNK         0.0600 
    225 H225       -3.0282  -23.5750  -54.1471 H         1 UNK         0.3000 
    226 H226       -2.6305  -23.4092  -57.0573 H         1 UNK         0.0600 
    227 H227       -0.7828  -22.8659  -55.4188 H         1 UNK         0.0600 
    228 H228       -1.1697  -21.5305  -56.4914 H         1 UNK         0.0600 
    229 H229       -1.7356  -21.5045  -54.8306 H         1 UNK         0.0600 
    230 H230       -5.2687  -22.8664  -55.2633 H         1 UNK         0.3000 
    231 H231       -7.1744  -21.8366  -55.5159 H         1 UNK         0.0600 
    232 H232       -6.1601  -20.5006  -58.0743 H         1 UNK         0.0600 
    233 H233       -7.8305  -20.7362  -57.5901 H         1 UNK         0.0600 
    234 H234       -6.8392  -22.1270  -57.9934 H         1 UNK         0.0600 
    235 H235       -4.7582  -20.5119  -54.2260 H         1 UNK         0.3000 
    236 H236       -4.1906  -18.7267  -53.0599 H         1 UNK         0.0600 
    237 H237       -5.9961  -19.6725  -51.7428 H         1 UNK         0.0600 
    238 H238       -6.0679  -17.9263  -51.5886 H         1 UNK         0.0600 
    239 H239       -7.2106  -18.7537  -52.6327 H         1 UNK         0.0600 
    240 H240       -4.4881  -15.9273  -55.4851 H         1 UNK         0.3000 
    241 H241       -3.4690  -18.6851  -55.6287 H         1 UNK         0.0600 
    242 H242       -3.5794  -18.1274  -59.1170 H         1 UNK         0.3800 
    243 H243       -3.5533  -19.2860  -57.8045 H         1 UNK         0.3800 
    244 H244       -1.1445  -17.6698  -55.9152 H         1 UNK         0.0800 
    245 H245       -1.7471  -16.1756  -55.2509 H         1 UNK         0.0800 
    246 H246       -0.9103  -15.7995  -52.6712 H         1 UNK         0.0800 
    247 H247       -2.6467  -15.9016  -52.8580 H         1 UNK         0.0800 
@<TRIPOS>BOND
     1    1    2 1    
     2    1  127 1    
     3    1  128 1    
     4    1  129 1    
     5    2    3 2    
     6    2    4 am   BACKBONE|DICT|INTERRES
     7    4    5 1    
     8    4  130 1    
     9    5    6 1    
    10    5   65 1    
    11    5  131 1    
    12    6    7 1    
    13    6  132 1    
    14    6  133 1    
    15    7    8 1    
    16    8    9 1    
    17    8  134 1    
    18    8  135 1    
    19    9   10 ar   
    20    9   14 ar   
    21   10   11 ar   
    22   10  136 1    
    23   11   12 ar   
    24   11  126 1    
    25   12   13 ar   
    26   12  137 1    
    27   13   14 ar   
    28   13   15 1    
    29   14  138 1    
    30   15   16 1    
    31   15  139 1    
    32   15  140 1    
    33   16   17 1    
    34   17   18 1    
    35   17  141 1    
    36   17  142 1    
    37   18   19 1    
    38   18   67 1    
    39   18  143 1    
    40   19   20 am   BACKBONE|DICT|INTERRES
    41   19  144 1    
    42   20   21 2    
    43   20   22 1    
    44   22   23 1    
    45   22   24 1    
    46   22  145 1    
    47   23  146 1    
    48   23  147 1    
    49   23  148 1    
    50   24   25 am   BACKBONE|DICT|INTERRES
    51   24  149 1    
    52   25   26 2    
    53   25   27 1    
    54   27   28 1    
    55   27   29 1    
    56   27  150 1    
    57   28  151 1    
    58   28  152 1    
    59   28  153 1    
    60   29   30 am   BACKBONE|DICT|INTERRES
    61   29  154 1    
    62   30   31 2    
    63   30   32 1    
    64   32   33 1    
    65   32   34 1    
    66   32  155 1    
    67   33  156 1    
    68   33  157 1    
    69   33  158 1    
    70   34   35 am   BACKBONE|DICT|INTERRES
    71   34  159 1    
    72   35   36 2    
    73   35   37 1    
    74   37   38 1    
    75   37   39 1    
    76   37  160 1    
    77   38  161 1    
    78   38  162 1    
    79   38  163 1    
    80   39   40 am   BACKBONE|DICT|INTERRES
    81   39  164 1    
    82   40   41 2    
    83   40   42 1    
    84   42   43 1    
    85   42   44 1    
    86   42  165 1    
    87   43  166 1    
    88   43  167 1    
    89   43  168 1    
    90   44   45 am   BACKBONE|DICT|INTERRES
    91   44  169 1    
    92   45   46 2    
    93   45   47 1    
    94   47   48 1    
    95   47   49 1    
    96   47  170 1    
    97   48  171 1    
    98   48  172 1    
    99   48  173 1    
   100   49   50 am   BACKBONE|DICT|INTERRES
   101   49  174 1    
   102   50   51 2    
   103   50   52 1    
   104   52   53 1    
   105   52   54 1    
   106   52  175 1    
   107   53  176 1    
   108   53  177 1    
   109   53  178 1    
   110   54   55 am   BACKBONE|DICT|INTERRES
   111   54  179 1    
   112   55   56 2    
   113   55   57 1    
   114   57   58 1    
   115   57   59 1    
   116   57  180 1    
   117   58  181 1    
   118   58  182 1    
   119   58  183 1    
   120   59   60 am   BACKBONE|DICT|INTERRES
   121   59  184 1    
   122   60   61 2    
   123   60   62 1    
   124   62   63 1    
   125   62   64 1    
   126   62  185 1    
   127   63  186 1    
   128   63  187 1    
   129   63  188 1    
   130   64   65 am   BACKBONE|DICT|INTERRES
   131   64  189 1    
   132   65   66 2    
   133   67   68 2    
   134   67   69 am   BACKBONE|DICT|INTERRES
   135   69   70 1    
   136   69  190 1    
   137   70   71 1    
   138   70   72 1    
   139   70  191 1    
   140   71  192 1    
   141   71  193 1    
   142   71  194 1    
   143   72   73 2    
   144   72   74 am   BACKBONE|DICT|INTERRES
   145   74   75 1    
   146   74  195 1    
   147   75   76 1    
   148   75   77 1    
   149   75  196 1    
   150   76  197 1    
   151   76  198 1    
   152   76  199 1    
   153   77   78 2    
   154   77   79 am   BACKBONE|DICT|INTERRES
   155   79   80 1    
   156   79  200 1    
   157   80   81 1    
   158   80   82 1    
   159   80  201 1    
   160   81  202 1    
   161   81  203 1    
   162   81  204 1    
   163   82   83 2    
   164   82   84 am   BACKBONE|DICT|INTERRES
   165   84   85 1    
   166   84  205 1    
   167   85   86 1    
   168   85   87 1    
   169   85  206 1    
   170   86  207 1    
   171   86  208 1    
   172   86  209 1    
   173   87   88 2    
   174   87   89 am   BACKBONE|DICT|INTERRES
   175   89   90 1    
   176   89  210 1    
   177   90   91 1    
   178   90   92 1    
   179   90  211 1    
   180   91  212 1    
   181   91  213 1    
   182   91  214 1    
   183   92   93 2    
   184   92   94 am   BACKBONE|DICT|INTERRES
   185   94   95 1    
   186   94  215 1    
   187   95   96 1    
   188   95   97 1    
   189   95  216 1    
   190   96  217 1    
   191   96  218 1    
   192   96  219 1    
   193   97   98 2    
   194   97   99 am   BACKBONE|DICT|INTERRES
   195   99  100 1    
   196   99  220 1    
   197  100  101 1    
   198  100  102 1    
   199  100  221 1    
   200  101  222 1    
   201  101  223 1    
   202  101  224 1    
   203  102  103 2    
   204  102  104 am   BACKBONE|DICT|INTERRES
   205  104  105 1    
   206  104  225 1    
   207  105  106 1    
   208  105  107 1    
   209  105  226 1    
   210  106  227 1    
   211  106  228 1    
   212  106  229 1    
   213  107  108 2    
   214  107  109 am   BACKBONE|DICT|INTERRES
   215  109  110 1    
   216  109  230 1    
   217  110  111 1    
   218  110  112 1    
   219  110  231 1    
   220  111  232 1    
   221  111  233 1    
   222  111  234 1    
   223  112  113 2    
   224  112  114 am   BACKBONE|DICT|INTERRES
   225  114  115 1    
   226  114  235 1    
   227  115  116 1    
   228  115  117 1    
   229  115  236 1    
   230  116  237 1    
   231  116  238 1    
   232  116  239 1    
   233  117  118 2    
   234  117  119 am   BACKBONE|DICT|INTERRES
   235  119  120 1    
   236  119  240 1    
   237  120  121 1    
   238  120  124 1    
   239  120  241 1    
   240  121  122 am   BACKBONE|DICT|INTERRES
   241  121  123 2    
   242  122  242 1    
   243  122  243 1    
   244  124  125 1    
   245  124  244 1    
   246  124  245 1    
   247  125  126 1    
   248  126  246 1    
   249  126  247 1    
@<TRIPOS>SUBSTRUCTURE
     1 UNK         1 GROUP             0       ****    0 ROOT    
