@<TRIPOS>MOLECULE
3R540
247   249    1
SMALL
USER_CHARGES


@<TRIPOS>ATOM
      1 CA          3.4024  -12.6481  -51.2417 C.3       0 UNK        -0.1800 
      2 C           3.7099  -13.8005  -50.2974 C.2       0 UNK         0.5000 
      3 O           2.7867  -14.4512  -49.8081 O.2       0 UNK        -0.5000 
      4 N           5.0000  -14.0505  -50.0370 N.am      1 UNK        -0.5000 
      5 CA          5.5646  -15.1119  -49.1880 C.3       1 UNK         0.1400 
      6 C6          5.2119  -16.5539  -49.6417 C.3       23 UNK        -0.0398 
      7 S7          5.7505  -16.9286  -51.3448 S.3       23 UNK        -0.2404 
      8 C8          4.1478  -17.0783  -52.2143 C.3       23 UNK        -0.0205 
      9 C9          3.2187  -18.1983  -51.7357 C.ar      23 UNK        -0.0193 
     10 C10         1.8738  -18.1544  -52.1190 C.ar      23 UNK        -0.1150 
     11 C11         0.9819  -19.1585  -51.7304 C.ar      23 UNK        -0.0193 
     12 C12         1.4423  -20.2159  -50.9416 C.ar      23 UNK        -0.1150 
     13 C13         2.7745  -20.2643  -50.5288 C.ar      23 UNK        -0.0193 
     14 C14         3.6607  -19.2678  -50.9445 C.ar      23 UNK        -0.1150 
     15 C15         3.2606  -21.3935  -49.6354 C.3       23 UNK        -0.0205 
     16 S16         3.4434  -20.8645  -47.9004 S.3       23 UNK        -0.2404 
     17 C17         1.7194  -20.5674  -47.3745 C.3       23 UNK        -0.0398 
     18 CA          0.9998  -21.8729  -46.9366 C.3       11 UNK         0.1400 
     19 N           0.3722  -21.7637  -45.6169 N.am      11 UNK        -0.5000 
     20 C          -0.1340  -22.7981  -44.9293 C.2       10 UNK         0.5000 
     21 O          -0.0635  -23.9685  -45.3044 O.2       10 UNK        -0.5000 
     22 CA         -0.9055  -22.4605  -43.6412 C.3       10 UNK         0.1400 
     23 CB          0.0478  -22.2553  -42.4541 C.3       10 UNK        -0.1800 
     24 N          -1.7506  -21.2788  -43.8184 N.am      10 UNK        -0.5000 
     25 C          -2.8446  -21.2547  -44.5933 C.2       9 UNK         0.5000 
     26 O          -3.2963  -22.2500  -45.1591 O.2       9 UNK        -0.5000 
     27 CA         -3.5220  -19.8886  -44.8071 C.3       9 UNK         0.1400 
     28 CB         -4.5920  -19.6369  -43.7355 C.3       9 UNK        -0.1800 
     29 N          -2.5667  -18.7807  -44.8150 N.am      9 UNK        -0.5000 
     30 C          -1.6774  -18.5600  -45.7958 C.2       8 UNK         0.5000 
     31 O          -1.5509  -19.2864  -46.7794 O.2       8 UNK        -0.5000 
     32 CA         -0.7156  -17.3716  -45.6087 C.3       8 UNK         0.1400 
     33 CB         -1.4154  -16.0618  -45.9933 C.3       8 UNK        -0.1800 
     34 N          -0.2141  -17.2623  -44.2380 N.am      8 UNK        -0.5000 
     35 C           0.4286  -18.2365  -43.5756 C.2       7 UNK         0.5000 
     36 O           0.7791  -19.2915  -44.1035 O.2       7 UNK        -0.5000 
     37 CA          0.6715  -18.0428  -42.0640 C.3       7 UNK         0.1400 
     38 CB          2.1449  -17.7108  -41.7859 C.3       7 UNK        -0.1800 
     39 N          -0.1690  -17.0172  -41.4434 N.am      7 UNK        -0.5000 
     40 C          -1.5102  -17.0017  -41.4051 C.2       6 UNK         0.5000 
     41 O          -2.2152  -17.9117  -41.8424 O.2       6 UNK        -0.5000 
     42 CA         -2.1714  -15.7289  -40.8350 C.3       6 UNK         0.1400 
     43 CB         -2.6438  -15.9693  -39.3935 C.3       6 UNK        -0.1800 
     44 N          -1.2941  -14.5511  -40.8628 N.am      6 UNK        -0.5000 
     45 C          -0.8231  -13.9701  -41.9757 C.2       5 UNK         0.5000 
     46 O          -1.1276  -14.3371  -43.1123 O.2       5 UNK        -0.5000 
     47 CA          0.2017  -12.8452  -41.7607 C.3       5 UNK         0.1400 
     48 CB          1.5363  -13.4274  -41.2617 C.3       5 UNK        -0.1800 
     49 N           0.4620  -12.1292  -43.0069 N.am      5 UNK        -0.5000 
     50 C           0.3352  -10.8079  -43.1824 C.2       4 UNK         0.5000 
     51 O          -0.0732  -10.0438  -42.3061 O.2       4 UNK        -0.5000 
     52 CA          0.7595  -10.2135  -44.5429 C.3       4 UNK         0.1400 
     53 CB          2.0591   -9.4063  -44.3921 C.3       4 UNK        -0.1800 
     54 N           0.9567  -11.2103  -45.5954 N.am      4 UNK        -0.5000 
     55 C          -0.0275  -11.8310  -46.2569 C.2       3 UNK         0.5000 
     56 O          -1.2227  -11.5992  -46.0726 O.2       3 UNK        -0.5000 
     57 CA          0.3891  -12.8767  -47.3123 C.3       3 UNK         0.1400 
     58 CB          0.4348  -12.2131  -48.6976 C.3       3 UNK        -0.1800 
     59 N           1.6675  -13.5687  -47.0806 N.am      3 UNK        -0.5000 
     60 C           2.0769  -14.1794  -45.9543 C.2       2 UNK         0.5000 
     61 O           1.4573  -14.1378  -44.8932 O.2       2 UNK        -0.5000 
     62 CA          3.4016  -14.9644  -46.0003 C.3       2 UNK         0.1400 
     63 CB          3.2310  -16.3930  -45.4536 C.3       2 UNK        -0.1800 
     64 N           3.9491  -15.0419  -47.3514 N.am      2 UNK        -0.5000 
     65 C           5.2344  -14.9146  -47.6934 C.2       1 UNK         0.5000 
     66 O           6.1380  -14.6619  -46.8954 O.2       1 UNK        -0.5000 
     67 C          -0.0059  -22.3598  -48.0012 C.2       11 UNK         0.5000 
     68 O           0.3328  -23.2369  -48.7928 O.2       11 UNK        -0.5000 
     69 N          -1.2370  -21.8302  -47.9688 N.am      12 UNK        -0.5000 
     70 CA         -2.3501  -22.2404  -48.8262 C.3       12 UNK         0.1400 
     71 CB         -3.5679  -21.3447  -48.5575 C.3       12 UNK        -0.1800 
     72 C          -2.7298  -23.7193  -48.6479 C.2       12 UNK         0.5000 
     73 O          -2.9377  -24.4150  -49.6417 O.2       12 UNK        -0.5000 
     74 N          -2.7786  -24.1801  -47.3904 N.am      13 UNK        -0.5000 
     75 CA         -3.0215  -25.5767  -47.0307 C.3       13 UNK         0.1400 
     76 CB         -3.2450  -25.6856  -45.5149 C.3       13 UNK        -0.1800 
     77 C          -1.8899  -26.5156  -47.4898 C.2       13 UNK         0.5000 
     78 O          -2.1751  -27.6192  -47.9554 O.2       13 UNK        -0.5000 
     79 N          -0.6357  -26.0561  -47.3726 N.am      14 UNK        -0.5000 
     80 CA          0.5555  -26.7696  -47.8353 C.3       14 UNK         0.1400 
     81 CB          1.8133  -26.1011  -47.2587 C.3       14 UNK        -0.1800 
     82 C           0.6348  -26.8601  -49.3713 C.2       14 UNK         0.5000 
     83 O           0.9665  -27.9226  -49.8987 O.2       14 UNK        -0.5000 
     84 N           0.3198  -25.7527  -50.0579 N.am      15 UNK        -0.5000 
     85 CA          0.2632  -25.6565  -51.5177 C.3       15 UNK         0.1400 
     86 CB          0.1495  -24.1777  -51.9246 C.3       15 UNK        -0.1800 
     87 C          -0.8912  -26.4762  -52.1250 C.2       15 UNK         0.5000 
     88 O          -0.7003  -27.1001  -53.1699 O.2       15 UNK        -0.5000 
     89 N          -2.0411  -26.4648  -51.4346 N.am      16 UNK        -0.5000 
     90 CA         -3.3301  -27.0804  -51.7583 C.3       16 UNK         0.1400 
     91 CB         -3.1975  -28.5923  -52.0262 C.3       16 UNK        -0.1800 
     92 C          -4.0726  -26.3608  -52.9015 C.2       16 UNK         0.5000 
     93 O          -3.4529  -25.8002  -53.8071 O.2       16 UNK        -0.5000 
     94 N          -5.4115  -26.3859  -52.8202 N.am      17 UNK        -0.5000 
     95 CA         -6.3877  -25.8096  -53.7605 C.3       17 UNK         0.1400 
     96 CB         -6.2792  -26.4814  -55.1451 C.3       17 UNK        -0.1800 
     97 C          -6.3734  -24.2665  -53.8664 C.2       17 UNK         0.5000 
     98 O          -7.1005  -23.7085  -54.6908 O.2       17 UNK        -0.5000 
     99 N          -5.5845  -23.5913  -53.0215 N.am      18 UNK        -0.5000 
    100 CA        -5.4546  -22.1383  -52.9493 C.3       18 UNK         0.1400 
    101 CB        -4.0698  -21.7983  -52.3729 C.3       18 UNK        -0.1800 
    102 C         -6.6109  -21.5291  -52.1337 C.2       18 UNK         0.5000 
    103 O         -6.4059  -21.0561  -51.0147 O.2       18 UNK        -0.5000 
    104 N         -7.8190  -21.5653  -52.7118 N.am      19 UNK        -0.5000 
    105 CA        -9.0847  -21.1278  -52.1083 C.3       19 UNK         0.1400 
    106 CB       -10.2301  -21.4443  -53.0819 C.3       19 UNK        -0.1800 
    107 C         -9.1302  -19.6435  -51.6865 C.2       19 UNK         0.5000 
    108 O         -9.9277  -19.2848  -50.8196 O.2       19 UNK        -0.5000 
    109 N         -8.2613  -18.8150  -52.2816 N.am      20 UNK        -0.5000 
    110 CA        -8.0456  -17.4118  -51.9210 C.3       20 UNK         0.1400 
    111 CB        -7.2946  -16.7249  -53.0733 C.3       20 UNK        -0.1800 
    112 C         -7.2801  -17.2204  -50.5921 C.2       20 UNK         0.5000 
    113 O         -7.1911  -16.0889  -50.1136 O.2       20 UNK        -0.5000 
    114 N         -6.7126  -18.3060  -50.0407 N.am      21 UNK        -0.5000 
    115 CA        -5.9125  -18.3728  -48.8113 C.3       21 UNK         0.1400 
    116 CB        -6.7521  -17.9889  -47.5751 C.3       21 UNK        -0.1800 
    117 C         -4.5791  -17.5988  -48.8950 C.2       21 UNK         0.5000 
    118 O         -4.0211  -17.2336  -47.8612 O.2       21 UNK        -0.5000 
    119 N         -4.0964  -17.3740  -50.1257 N.am      22 UNK        -0.5000 
    120 CA        -2.8257  -16.7100  -50.4718 C.3       22 UNK         0.1400 
    121 C         -2.7192  -15.2190  -50.0249 C.2       22 UNK         0.5000 
    122 N         -3.8227  -14.5352  -49.7453 N.am      22 UNK        -0.7600 
    123 O         -1.6293  -14.6592  -49.9646 O.2       22 UNK        -0.5000 
    124 C124       -1.5789  -17.5548  -50.0839 C.3       23 UNK        -0.0398 
    125 S125       -1.6433  -19.2325  -50.8027 S.3       23 UNK        -0.2404 
    126 C126       -0.4694  -19.1192  -52.1883 C.3       23 UNK        -0.0205 
    127 H127        2.7807  -12.9972  -52.0662 H         1 UNK         0.0600 
    128 H128        4.3101  -12.2136  -51.6610 H         1 UNK         0.0600 
    129 H129        2.8608  -11.8638  -50.7137 H         1 UNK         0.0600 
    130 H130        5.6940  -13.4531  -50.4644 H         1 UNK         0.3000 
    131 H131        6.6471  -15.0055  -49.2769 H         1 UNK         0.0600 
    132 H132        4.1416  -16.7410  -49.5478 H         1 UNK         0.0800 
    133 H133        5.6957  -17.2815  -48.9875 H         1 UNK         0.0800 
    134 H134        3.6276  -16.1227  -52.1410 H         1 UNK         0.0800 
    135 H135        4.3509  -17.2351  -53.2743 H         1 UNK         0.0800 
    136 H136        1.5226  -17.3374  -52.7339 H         1 UNK         0.1150 
    137 H137        0.7565  -20.9954  -50.6397 H         1 UNK         0.1150 
    138 H138        4.6927  -19.3328  -50.6335 H         1 UNK         0.1150 
    139 H139        2.5926  -22.2529  -49.6943 H         1 UNK         0.0800 
    140 H140        4.2287  -21.7434  -49.9966 H         1 UNK         0.0800 
    141 H141        1.1752  -20.0220  -48.1476 H         1 UNK         0.0800 
    142 H142        1.7788  -19.8697  -46.5385 H         1 UNK         0.0800 
    143 H143        1.7460  -22.6641  -46.8365 H         1 UNK         0.0600 
    144 H144        0.3149  -20.8346  -45.2105 H         1 UNK         0.3000 
    145 H145       -1.5526  -23.3089  -43.4079 H         1 UNK         0.0600 
    146 H146       -0.5021  -22.0277  -41.5408 H         1 UNK         0.0600 
    147 H147        0.7555  -21.4460  -42.6307 H         1 UNK         0.0600 
    148 H148        0.6293  -23.1587  -42.2666 H         1 UNK         0.0600 
    149 H149       -1.4272  -20.4138  -43.4111 H         1 UNK         0.3000 
    150 H150       -4.0186  -19.9083  -45.7791 H         1 UNK         0.0600 
    151 H151       -5.3463  -20.4247  -43.7468 H         1 UNK         0.0600 
    152 H152       -5.1068  -18.6914  -43.9067 H         1 UNK         0.0600 
    153 H153       -4.1618  -19.6093  -42.7338 H         1 UNK         0.0600 
    154 H154       -2.5586  -18.1824  -43.9979 H         1 UNK         0.3000 
    155 H155        0.1422  -17.5164  -46.2678 H         1 UNK         0.0600 
    156 H156       -1.6414  -16.0361  -47.0596 H         1 UNK         0.0600 
    157 H157       -0.7910  -15.2013  -45.7668 H         1 UNK         0.0600 
    158 H158       -2.3546  -15.9306  -45.4543 H         1 UNK         0.0600 
    159 H159       -0.4460  -16.4073  -43.7465 H         1 UNK         0.3000 
    160 H160        0.4390  -18.9945  -41.5821 H         1 UNK         0.0600 
    161 H161        2.4107  -16.7196  -42.1536 H         1 UNK         0.0600 
    162 H162        2.8093  -18.4309  -42.2659 H         1 UNK         0.0600 
    163 H163        2.3580  -17.7376  -40.7172 H         1 UNK         0.0600 
    164 H164        0.3151  -16.2211  -41.0575 H         1 UNK         0.3000 
    165 H165       -3.0458  -15.5125  -41.4524 H         1 UNK         0.0600 
    166 H166       -3.1834  -15.1052  -39.0054 H         1 UNK         0.0600 
    167 H167       -3.3210  -16.8231  -39.3417 H         1 UNK         0.0600 
    168 H168       -1.8071  -16.1729  -38.7241 H         1 UNK         0.0600 
    169 H169       -1.0019  -14.1931  -39.9645 H         1 UNK         0.3000 
    170 H170       -0.1990  -12.1725  -41.0000 H         1 UNK         0.0600 
    171 H171        1.9576  -14.1341  -41.9782 H         1 UNK         0.0600 
    172 H172        2.2719  -12.6387  -41.1025 H         1 UNK         0.0600 
    173 H173        1.4162  -13.9500  -40.3122 H         1 UNK         0.0600 
    174 H174        0.7319  -12.7186  -43.7911 H         1 UNK         0.3000 
    175 H175       -0.0303   -9.5284  -44.8579 H         1 UNK         0.0600 
    176 H176        2.8910  -10.0391  -44.0804 H         1 UNK         0.0600 
    177 H177        2.3357   -8.9238  -45.3298 H         1 UNK         0.0600 
    178 H178        1.9479   -8.6191  -43.6451 H         1 UNK         0.0600 
    179 H179        1.9093  -11.4710  -45.8023 H         1 UNK         0.3000 
    180 H180       -0.3921  -13.6362  -47.3402 H         1 UNK         0.0600 
    181 H181        0.5750  -12.9528  -49.4856 H         1 UNK         0.0600 
    182 H182        1.2431  -11.4846  -48.7683 H         1 UNK         0.0600 
    183 H183       -0.4989  -11.6926  -48.9154 H         1 UNK         0.0600 
    184 H184        2.2450  -13.6690  -47.9053 H         1 UNK         0.3000 
    185 H185        4.0941  -14.4252  -45.3510 H         1 UNK         0.0600 
    186 H186        2.5486  -16.9801  -46.0688 H         1 UNK         0.0600 
    187 H187        4.1851  -16.9190  -45.4185 H         1 UNK         0.0600 
    188 H188        2.8326  -16.3809  -44.4401 H         1 UNK         0.0600 
    189 H189        3.2829  -15.1835  -48.1059 H         1 UNK         0.3000 
    190 H190       -1.4123  -21.0437  -47.3475 H         1 UNK         0.3000 
    191 H191       -2.0334  -22.0968  -49.8607 H         1 UNK         0.0600 
    192 H192       -3.3116  -20.2910  -48.6508 H         1 UNK         0.0600 
    193 H193       -3.9752  -21.4996  -47.5603 H         1 UNK         0.0600 
    194 H194       -4.3706  -21.5512  -49.2643 H         1 UNK         0.0600 
    195 H195       -2.6512  -23.5262  -46.6250 H         1 UNK         0.3000 
    196 H196       -3.9386  -25.8945  -47.5312 H         1 UNK         0.0600 
    197 H197       -4.0895  -25.0739  -45.1966 H         1 UNK         0.0600 
    198 H198       -2.3688  -25.3622  -44.9528 H         1 UNK         0.0600 
    199 H199       -3.4601  -26.7147  -45.2249 H         1 UNK         0.0600 
    200 H200       -0.4853  -25.1572  -46.9270 H         1 UNK         0.3000 
    201 H201        0.5084  -27.7883  -47.4447 H         1 UNK         0.0600 
    202 H202        1.7864  -26.0847  -46.1690 H         1 UNK         0.0600 
    203 H203        1.9211  -25.0734  -47.6050 H         1 UNK         0.0600 
    204 H204        2.7126  -26.6425  -47.5547 H         1 UNK         0.0600 
    205 H205        0.1318  -24.8962  -49.5407 H         1 UNK         0.3000 
    206 H206        1.2000  -26.0489  -51.9185 H         1 UNK         0.0600 
    207 H207       -0.7529  -23.7172  -51.5203 H         1 UNK         0.0600 
    208 H208        1.0049  -23.6033  -51.5683 H         1 UNK         0.0600 
    209 H209        0.1145  -24.0717  -53.0094 H         1 UNK         0.0600 
    210 H210       -2.0813  -25.8452  -50.6303 H         1 UNK         0.3000 
    211 H211       -3.9287  -26.9592  -50.8539 H         1 UNK         0.0600 
    212 H212       -2.6792  -28.7988  -52.9627 H         1 UNK         0.0600 
    213 H213       -4.1795  -29.0618  -52.0926 H         1 UNK         0.0600 
    214 H214       -2.6535  -29.0886  -51.2223 H         1 UNK         0.0600 
    215 H215       -5.8240  -26.8586  -52.0274 H         1 UNK         0.3000 
    216 H216       -7.3685  -26.0626  -53.3557 H         1 UNK         0.0600 
    217 H217       -7.0995  -26.1749  -55.7952 H         1 UNK         0.0600 
    218 H218       -6.3233  -27.5673  -55.0614 H         1 UNK         0.0600 
    219 H219       -5.3497  -26.2208  -55.6518 H         1 UNK         0.0600 
    220 H220       -5.0351  -24.1224  -52.3626 H         1 UNK         0.3000 
    221 H221       -5.5043  -21.7182  -53.9561 H         1 UNK         0.0600 
    222 H222       -3.9078  -22.2846  -51.4125 H         1 UNK         0.0600 
    223 H223       -3.2744  -22.1234  -53.0438 H         1 UNK         0.0600 
    224 H224       -3.9538  -20.7236  -52.2276 H         1 UNK         0.0600 
    225 H225       -7.8856  -22.0183  -53.6162 H         1 UNK         0.3000 
    226 H226       -9.2331  -21.7201  -51.2032 H         1 UNK         0.0600 
    227 H227      -10.2717  -22.5097  -53.3097 H         1 UNK         0.0600 
    228 H228      -11.1954  -21.1667  -52.6563 H         1 UNK         0.0600 
    229 H229      -10.1176  -20.9036  -54.0225 H         1 UNK         0.0600 
    230 H230       -7.6560  -19.1976  -52.9927 H         1 UNK         0.3000 
    231 H231       -9.0185  -16.9290  -51.8087 H         1 UNK         0.0600 
    232 H232       -7.1453  -15.6640  -52.8679 H         1 UNK         0.0600 
    233 H233       -7.8539  -16.7962  -54.0065 H         1 UNK         0.0600 
    234 H234       -6.3117  -17.1690  -53.2354 H         1 UNK         0.0600 
    235 H235       -6.8137  -19.1963  -50.5199 H         1 UNK         0.3000 
    236 H236       -5.6416  -19.4221  -48.6984 H         1 UNK         0.0600 
    237 H237       -7.0014  -16.9276  -47.5673 H         1 UNK         0.0600 
    238 H238       -7.6834  -18.5541  -47.5403 H         1 UNK         0.0600 
    239 H239       -6.2097  -18.2024  -46.6532 H         1 UNK         0.0600 
    240 H240       -4.6361  -17.7150  -50.9062 H         1 UNK         0.3000 
    241 H241       -2.8300  -16.6505  -51.5606 H         1 UNK         0.0600 
    242 H242       -3.7501  -13.5696  -49.4683 H         1 UNK         0.3800 
    243 H243       -4.7266  -14.9819  -49.7859 H         1 UNK         0.3800 
    244 H244       -0.6580  -17.0667  -50.4070 H         1 UNK         0.0800 
    245 H245       -1.5067  -17.6499  -49.0001 H         1 UNK         0.0800 
    246 H246       -0.6427  -19.9621  -52.8585 H         1 UNK         0.0800 
    247 H247       -0.6798  -18.2177  -52.7657 H         1 UNK         0.0800 
@<TRIPOS>BOND
     1    1    2 1    
     2    1  127 1    
     3    1  128 1    
     4    1  129 1    
     5    2    3 2    
     6    2    4 am   BACKBONE|DICT|INTERRES
     7    4    5 1    
     8    4  130 1    
     9    5    6 1    
    10    5   65 1    
    11    5  131 1    
    12    6    7 1    
    13    6  132 1    
    14    6  133 1    
    15    7    8 1    
    16    8    9 1    
    17    8  134 1    
    18    8  135 1    
    19    9   10 ar   
    20    9   14 ar   
    21   10   11 ar   
    22   10  136 1    
    23   11   12 ar   
    24   11  126 1    
    25   12   13 ar   
    26   12  137 1    
    27   13   14 ar   
    28   13   15 1    
    29   14  138 1    
    30   15   16 1    
    31   15  139 1    
    32   15  140 1    
    33   16   17 1    
    34   17   18 1    
    35   17  141 1    
    36   17  142 1    
    37   18   19 1    
    38   18   67 1    
    39   18  143 1    
    40   19   20 am   BACKBONE|DICT|INTERRES
    41   19  144 1    
    42   20   21 2    
    43   20   22 1    
    44   22   23 1    
    45   22   24 1    
    46   22  145 1    
    47   23  146 1    
    48   23  147 1    
    49   23  148 1    
    50   24   25 am   BACKBONE|DICT|INTERRES
    51   24  149 1    
    52   25   26 2    
    53   25   27 1    
    54   27   28 1    
    55   27   29 1    
    56   27  150 1    
    57   28  151 1    
    58   28  152 1    
    59   28  153 1    
    60   29   30 am   BACKBONE|DICT|INTERRES
    61   29  154 1    
    62   30   31 2    
    63   30   32 1    
    64   32   33 1    
    65   32   34 1    
    66   32  155 1    
    67   33  156 1    
    68   33  157 1    
    69   33  158 1    
    70   34   35 am   BACKBONE|DICT|INTERRES
    71   34  159 1    
    72   35   36 2    
    73   35   37 1    
    74   37   38 1    
    75   37   39 1    
    76   37  160 1    
    77   38  161 1    
    78   38  162 1    
    79   38  163 1    
    80   39   40 am   BACKBONE|DICT|INTERRES
    81   39  164 1    
    82   40   41 2    
    83   40   42 1    
    84   42   43 1    
    85   42   44 1    
    86   42  165 1    
    87   43  166 1    
    88   43  167 1    
    89   43  168 1    
    90   44   45 am   BACKBONE|DICT|INTERRES
    91   44  169 1    
    92   45   46 2    
    93   45   47 1    
    94   47   48 1    
    95   47   49 1    
    96   47  170 1    
    97   48  171 1    
    98   48  172 1    
    99   48  173 1    
   100   49   50 am   BACKBONE|DICT|INTERRES
   101   49  174 1    
   102   50   51 2    
   103   50   52 1    
   104   52   53 1    
   105   52   54 1    
   106   52  175 1    
   107   53  176 1    
   108   53  177 1    
   109   53  178 1    
   110   54   55 am   BACKBONE|DICT|INTERRES
   111   54  179 1    
   112   55   56 2    
   113   55   57 1    
   114   57   58 1    
   115   57   59 1    
   116   57  180 1    
   117   58  181 1    
   118   58  182 1    
   119   58  183 1    
   120   59   60 am   BACKBONE|DICT|INTERRES
   121   59  184 1    
   122   60   61 2    
   123   60   62 1    
   124   62   63 1    
   125   62   64 1    
   126   62  185 1    
   127   63  186 1    
   128   63  187 1    
   129   63  188 1    
   130   64   65 am   BACKBONE|DICT|INTERRES
   131   64  189 1    
   132   65   66 2    
   133   67   68 2    
   134   67   69 am   BACKBONE|DICT|INTERRES
   135   69   70 1    
   136   69  190 1    
   137   70   71 1    
   138   70   72 1    
   139   70  191 1    
   140   71  192 1    
   141   71  193 1    
   142   71  194 1    
   143   72   73 2    
   144   72   74 am   BACKBONE|DICT|INTERRES
   145   74   75 1    
   146   74  195 1    
   147   75   76 1    
   148   75   77 1    
   149   75  196 1    
   150   76  197 1    
   151   76  198 1    
   152   76  199 1    
   153   77   78 2    
   154   77   79 am   BACKBONE|DICT|INTERRES
   155   79   80 1    
   156   79  200 1    
   157   80   81 1    
   158   80   82 1    
   159   80  201 1    
   160   81  202 1    
   161   81  203 1    
   162   81  204 1    
   163   82   83 2    
   164   82   84 am   BACKBONE|DICT|INTERRES
   165   84   85 1    
   166   84  205 1    
   167   85   86 1    
   168   85   87 1    
   169   85  206 1    
   170   86  207 1    
   171   86  208 1    
   172   86  209 1    
   173   87   88 2    
   174   87   89 am   BACKBONE|DICT|INTERRES
   175   89   90 1    
   176   89  210 1    
   177   90   91 1    
   178   90   92 1    
   179   90  211 1    
   180   91  212 1    
   181   91  213 1    
   182   91  214 1    
   183   92   93 2    
   184   92   94 am   BACKBONE|DICT|INTERRES
   185   94   95 1    
   186   94  215 1    
   187   95   96 1    
   188   95   97 1    
   189   95  216 1    
   190   96  217 1    
   191   96  218 1    
   192   96  219 1    
   193   97   98 2    
   194   97   99 am   BACKBONE|DICT|INTERRES
   195   99  100 1    
   196   99  220 1    
   197  100  101 1    
   198  100  102 1    
   199  100  221 1    
   200  101  222 1    
   201  101  223 1    
   202  101  224 1    
   203  102  103 2    
   204  102  104 am   BACKBONE|DICT|INTERRES
   205  104  105 1    
   206  104  225 1    
   207  105  106 1    
   208  105  107 1    
   209  105  226 1    
   210  106  227 1    
   211  106  228 1    
   212  106  229 1    
   213  107  108 2    
   214  107  109 am   BACKBONE|DICT|INTERRES
   215  109  110 1    
   216  109  230 1    
   217  110  111 1    
   218  110  112 1    
   219  110  231 1    
   220  111  232 1    
   221  111  233 1    
   222  111  234 1    
   223  112  113 2    
   224  112  114 am   BACKBONE|DICT|INTERRES
   225  114  115 1    
   226  114  235 1    
   227  115  116 1    
   228  115  117 1    
   229  115  236 1    
   230  116  237 1    
   231  116  238 1    
   232  116  239 1    
   233  117  118 2    
   234  117  119 am   BACKBONE|DICT|INTERRES
   235  119  120 1    
   236  119  240 1    
   237  120  121 1    
   238  120  124 1    
   239  120  241 1    
   240  121  122 am   BACKBONE|DICT|INTERRES
   241  121  123 2    
   242  122  242 1    
   243  122  243 1    
   244  124  125 1    
   245  124  244 1    
   246  124  245 1    
   247  125  126 1    
   248  126  246 1    
   249  126  247 1    
@<TRIPOS>SUBSTRUCTURE
     1 UNK         1 GROUP             0       ****    0 ROOT    
