@<TRIPOS>MOLECULE
3R540
247   249    1
SMALL
USER_CHARGES


@<TRIPOS>ATOM
      1 CA          5.9848  -14.0721  -48.0326 C.3       0 UNK        -0.1800 
      2 C           4.5491  -13.6175  -47.8146 C.2       0 UNK         0.5000 
      3 O           3.9878  -13.8501  -46.7444 O.2       0 UNK        -0.5000 
      4 N           3.9525  -12.9635  -48.8187 N.am      1 UNK        -0.5000 
      5 CA          2.5768  -12.4540  -48.7980 C.3       1 UNK         0.1400 
      6 C6          1.9582  -12.3672  -50.2161 C.3       23 UNK        -0.0398 
      7 S7          1.8916  -13.9888  -51.0439 S.3       23 UNK        -0.2404 
      8 C8          0.2670  -14.5872  -50.4870 C.3       23 UNK        -0.0205 
      9 C9          0.0082  -15.9900  -51.0051 C.ar      23 UNK        -0.0193 
     10 C10        -0.7270  -16.1826  -52.1773 C.ar      23 UNK        -0.1150 
     11 C11        -0.9382  -17.4699  -52.6756 C.ar      23 UNK        -0.0193 
     12 C12        -0.4159  -18.5673  -51.9840 C.ar      23 UNK        -0.1150 
     13 C13         0.3121  -18.3924  -50.8031 C.ar      23 UNK        -0.0193 
     14 C14         0.5248  -17.0953  -50.3232 C.ar      23 UNK        -0.1150 
     15 C15         0.8924  -19.6126  -50.0902 C.3       23 UNK        -0.0205 
     16 S16         0.8127  -19.5351  -48.2679 S.3       23 UNK        -0.2404 
     17 C17        -0.9860  -19.5043  -47.9841 C.3       23 UNK        -0.0398 
     18 CA         -1.5815  -20.9030  -47.7190 C.3       11 UNK         0.1400 
     19 N          -0.9933  -21.5398  -46.5421 N.am      11 UNK        -0.5000 
     20 C          -0.8706  -22.8589  -46.3555 C.2       10 UNK         0.5000 
     21 O          -1.2921  -23.7005  -47.1533 O.2       10 UNK        -0.5000 
     22 CA         -0.1735  -23.3057  -45.0522 C.3       10 UNK         0.1400 
     23 CB          0.5818  -24.6392  -45.2075 C.3       10 UNK        -0.1800 
     24 N           0.6878  -22.2722  -44.4657 N.am      10 UNK        -0.5000 
     25 C           1.8007  -21.7206  -44.9733 C.2       9 UNK         0.5000 
     26 O           2.3214  -22.0884  -46.0255 O.2       9 UNK        -0.5000 
     27 CA          2.4193  -20.5458  -44.1756 C.3       9 UNK         0.1400 
     28 CB          3.3306  -19.6621  -45.0451 C.3       9 UNK        -0.1800 
     29 N           1.4171  -19.6930  -43.5209 N.am      9 UNK        -0.5000 
     30 C           0.7594  -20.0064  -42.3959 C.2       8 UNK         0.5000 
     31 O           0.9325  -21.0652  -41.7921 O.2       8 UNK        -0.5000 
     32 CA         -0.2917  -19.0190  -41.8634 C.3       8 UNK         0.1400 
     33 CB          0.2776  -18.2220  -40.6793 C.3       8 UNK        -0.1800 
     34 N          -0.8357  -18.0847  -42.8492 N.am      8 UNK        -0.5000 
     35 C          -1.6103  -18.4058  -43.8954 C.2       7 UNK         0.5000 
     36 O          -1.8019  -19.5585  -44.2903 O.2       7 UNK        -0.5000 
     37 CA         -2.2987  -17.2334  -44.6120 C.3       7 UNK         0.1400 
     38 CB         -3.4037  -16.6357  -43.7242 C.3       7 UNK        -0.1800 
     39 N          -1.3349  -16.1851  -44.9235 N.am      7 UNK        -0.5000 
     40 C          -0.9580  -15.8089  -46.1519 C.2       6 UNK         0.5000 
     41 O          -1.4506  -16.2562  -47.1876 O.2       6 UNK        -0.5000 
     42 CA          0.1550  -14.7415  -46.2435 C.3       6 UNK         0.1400 
     43 CB         -0.4647  -13.3631  -46.5231 C.3       6 UNK        -0.1800 
     44 N           0.9863  -14.6400  -45.0415 N.am      6 UNK        -0.5000 
     45 C           1.7421  -15.6230  -44.5312 C.2       5 UNK         0.5000 
     46 O           1.8744  -16.7288  -45.0539 O.2       5 UNK        -0.5000 
     47 CA          2.3881  -15.3618  -43.1577 C.3       5 UNK         0.1400 
     48 CB          3.8578  -14.9457  -43.3138 C.3       5 UNK        -0.1800 
     49 N           1.6787  -14.3739  -42.3346 N.am      5 UNK        -0.5000 
     50 C           0.4139  -14.4904  -41.8985 C.2       4 UNK         0.5000 
     51 O          -0.3297  -15.4181  -42.2172 O.2       4 UNK        -0.5000 
     52 CA         -0.1225  -13.3926  -40.9618 C.3       4 UNK         0.1400 
     53 CB          0.0104  -13.8353  -39.4971 C.3       4 UNK        -0.1800 
     54 N           0.5544  -12.1079  -41.1389 N.am      4 UNK        -0.5000 
     55 C           0.3687  -11.2946  -42.1865 C.2       3 UNK         0.5000 
     56 O          -0.4506  -11.5198  -43.0806 O.2       3 UNK        -0.5000 
     57 CA          1.2434  -10.0209  -42.2591 C.3       3 UNK         0.1400 
     58 CB          2.4497  -10.0306  -41.2921 C.3       3 UNK        -0.1800 
     59 N           1.6995   -9.7358  -43.6244 N.am      3 UNK        -0.5000 
     60 C           2.3730  -10.5671  -44.4315 C.2       2 UNK         0.5000 
     61 O           2.7218  -11.7085  -44.1187 O.2       2 UNK        -0.5000 
     62 CA          2.7273  -10.0222  -45.8198 C.3       2 UNK         0.1400 
     63 CB          4.0681   -9.2696  -45.7950 C.3       2 UNK        -0.1800 
     64 N           2.8115  -11.1424  -46.7467 N.am      2 UNK        -0.5000 
     65 C           2.5019  -11.1082  -48.0447 C.2       1 UNK         0.5000 
     66 O           2.1801  -10.0776  -48.6392 O.2       1 UNK        -0.5000 
     67 C          -3.1109  -20.8219  -47.5801 C.2       11 UNK         0.5000 
     68 O          -3.8176  -21.0647  -48.5580 O.2       11 UNK        -0.5000 
     69 N          -3.5996  -20.5249  -46.3661 N.am      12 UNK        -0.5000 
     70 CA         -5.0269  -20.5447  -46.0268 C.3       12 UNK         0.1400 
     71 CB         -5.2785  -19.6594  -44.8003 C.3       12 UNK        -0.1800 
     72 C          -5.5487  -21.9734  -45.7878 C.2       12 UNK         0.5000 
     73 O          -6.7349  -22.2299  -45.9911 O.2       12 UNK        -0.5000 
     74 N          -4.6411  -22.8898  -45.4161 N.am      13 UNK        -0.5000 
     75 CA         -4.8756  -24.3382  -45.3783 C.3       13 UNK         0.1400 
     76 CB         -3.7585  -25.0045  -44.5597 C.3       13 UNK        -0.1800 
     77 C          -4.9525  -24.9624  -46.7890 C.2       13 UNK         0.5000 
     78 O          -5.3592  -26.1161  -46.9217 O.2       13 UNK        -0.5000 
     79 N          -4.5510  -24.1829  -47.8039 N.am      14 UNK        -0.5000 
     80 CA         -4.5804  -24.4459  -49.2414 C.3       14 UNK         0.1400 
     81 CB         -5.9981  -24.8148  -49.7170 C.3       14 UNK        -0.1800 
     82 C          -3.5161  -25.4399  -49.7387 C.2       14 UNK         0.5000 
     83 O          -3.4795  -25.7176  -50.9374 O.2       14 UNK        -0.5000 
     84 N          -2.6468  -25.9279  -48.8458 N.am      15 UNK        -0.5000 
     85 CA         -1.5771  -26.8708  -49.1647 C.3       15 UNK         0.1400 
     86 CB         -1.0612  -27.5208  -47.8731 C.3       15 UNK        -0.1800 
     87 C          -0.4365  -26.1943  -49.9405 C.2       15 UNK         0.5000 
     88 O          -0.0339  -26.6954  -50.9906 O.2       15 UNK        -0.5000 
     89 N           0.0292  -25.0411  -49.4393 N.am      16 UNK        -0.5000 
     90 CA          1.0773  -24.2402  -50.0805 C.3       16 UNK         0.1400 
     91 CB          1.6911  -23.2827  -49.0518 C.3       16 UNK        -0.1800 
     92 C           0.5590  -23.4580  -51.3004 C.2       16 UNK         0.5000 
     93 O           1.3419  -23.1246  -52.1894 O.2       16 UNK        -0.5000 
     94 N          -0.7534  -23.1924  -51.3231 N.am      17 UNK        -0.5000 
     95 CA         -1.4543  -22.5239  -52.4182 C.3       17 UNK         0.1400 
     96 CB         -2.6797  -21.8004  -51.8418 C.3       17 UNK        -0.1800 
     97 C          -1.8680  -23.4814  -53.5539 C.2       17 UNK         0.5000 
     98 O          -2.3959  -23.0100  -54.5595 O.2       17 UNK        -0.5000 
     99 N          -1.6519  -24.7945  -53.3777 N.am      18 UNK        -0.5000 
    100 CA        -1.9793  -25.8752  -54.3150 C.3       18 UNK         0.1400 
    101 CB        -1.0721  -25.8059  -55.5611 C.3       18 UNK        -0.1800 
    102 C         -3.4838  -25.9228  -54.6589 C.2       18 UNK         0.5000 
    103 O         -3.8594  -25.9192  -55.8321 O.2       18 UNK        -0.5000 
    104 N         -4.3101  -25.9375  -53.6042 N.am      19 UNK        -0.5000 
    105 CA        -5.7767  -25.9933  -53.5871 C.3       19 UNK         0.1400 
    106 CB        -6.3168  -27.1856  -54.4041 C.3       19 UNK        -0.1800 
    107 C         -6.4842  -24.6707  -53.9522 C.2       19 UNK         0.5000 
    108 O         -7.7136  -24.6249  -53.8935 O.2       19 UNK        -0.5000 
    109 N         -5.7322  -23.6113  -54.2887 N.am      20 UNK        -0.5000 
    110 CA        -6.2839  -22.2943  -54.6291 C.3       20 UNK         0.1400 
    111 CB        -5.2360  -21.4874  -55.4086 C.3       20 UNK        -0.1800 
    112 C         -6.7734  -21.4976  -53.4025 C.2       20 UNK         0.5000 
    113 O         -7.6417  -20.6380  -53.5543 O.2       20 UNK        -0.5000 
    114 N         -6.2074  -21.7958  -52.2210 N.am      21 UNK        -0.5000 
    115 CA        -6.5186  -21.2096  -50.9069 C.3       21 UNK         0.1400 
    116 CB        -7.9441  -21.6027  -50.4669 C.3       21 UNK        -0.1800 
    117 C         -6.2718  -19.6849  -50.8142 C.2       21 UNK         0.5000 
    118 O         -6.9202  -19.0021  -50.0199 O.2       21 UNK        -0.5000 
    119 N         -5.3413  -19.1780  -51.6310 N.am      22 UNK        -0.5000 
    120 CA        -4.9772  -17.7565  -51.7590 C.3       22 UNK         0.1400 
    121 C         -4.1186  -17.1638  -50.6028 C.2       22 UNK         0.5000 
    122 N         -3.7404  -17.9260  -49.5859 N.am      22 UNK        -0.7600 
    123 O         -3.8254  -15.9718  -50.6080 O.2       22 UNK        -0.5000 
    124 C124       -4.4035  -17.4343  -53.1687 C.3       23 UNK        -0.0398 
    125 S125       -3.1965  -18.6524  -53.8037 S.3       23 UNK        -0.2404 
    126 C126       -1.6757  -17.6725  -53.9911 C.3       23 UNK        -0.0205 
    127 H127        6.0540  -15.1549  -47.9286 H         1 UNK         0.0600 
    128 H128        6.3502  -13.8009  -49.0233 H         1 UNK         0.0600 
    129 H129        6.6391  -13.6145  -47.2906 H         1 UNK         0.0600 
    130 H130        4.4676  -12.7884  -49.6696 H         1 UNK         0.3000 
    131 H131        1.9652  -13.1575  -48.2316 H         1 UNK         0.0600 
    132 H132        2.5371  -11.6887  -50.8450 H         1 UNK         0.0800 
    133 H133        0.9484  -11.9546  -50.1750 H         1 UNK         0.0800 
    134 H134       -0.5142  -13.9065  -50.8292 H         1 UNK         0.0800 
    135 H135        0.2243  -14.5867  -49.3979 H         1 UNK         0.0800 
    136 H136       -1.1179  -15.3274  -52.7104 H         1 UNK         0.1150 
    137 H137       -0.5696  -19.5597  -52.3792 H         1 UNK         0.1150 
    138 H138        1.1016  -16.9407  -49.4223 H         1 UNK         0.1150 
    139 H139        0.3819  -20.5195  -50.4157 H         1 UNK         0.0800 
    140 H140        1.9357  -19.7227  -50.3878 H         1 UNK         0.0800 
    141 H141       -1.4634  -19.0365  -48.8435 H         1 UNK         0.0800 
    142 H142       -1.1723  -18.8478  -47.1344 H         1 UNK         0.0800 
    143 H143       -1.3713  -21.5229  -48.5935 H         1 UNK         0.0600 
    144 H144       -0.6393  -20.9207  -45.8256 H         1 UNK         0.3000 
    145 H145       -0.9708  -23.4651  -44.3257 H         1 UNK         0.0600 
    146 H146        1.1188  -24.8982  -44.2951 H         1 UNK         0.0600 
    147 H147       -0.1125  -25.4532  -45.4114 H         1 UNK         0.0600 
    148 H148        1.3030  -24.6067  -46.0242 H         1 UNK         0.0600 
    149 H149        0.3922  -21.9209  -43.5619 H         1 UNK         0.3000 
    150 H150        3.0459  -20.9939  -43.4019 H         1 UNK         0.0600 
    151 H151        4.1514  -20.2394  -45.4721 H         1 UNK         0.0600 
    152 H152        3.7736  -18.8552  -44.4611 H         1 UNK         0.0600 
    153 H153        2.7796  -19.2128  -45.8720 H         1 UNK         0.0600 
    154 H154        1.2070  -18.8154  -43.9786 H         1 UNK         0.3000 
    155 H155       -1.1272  -19.6167  -41.4933 H         1 UNK         0.0600 
    156 H156        1.1141  -17.5926  -40.9829 H         1 UNK         0.0600 
    157 H157        0.6370  -18.8883  -39.8939 H         1 UNK         0.0600 
    158 H158       -0.4815  -17.5782  -40.2345 H         1 UNK         0.0600 
    159 H159       -0.7225  -17.1003  -42.6151 H         1 UNK         0.3000 
    160 H160       -2.7601  -17.6242  -45.5210 H         1 UNK         0.0600 
    161 H161       -4.0116  -15.9255  -44.2847 H         1 UNK         0.0600 
    162 H162       -2.9915  -16.1102  -42.8619 H         1 UNK         0.0600 
    163 H163       -4.0713  -17.4063  -43.3390 H         1 UNK         0.0600 
    164 H164       -0.8690  -15.7598  -44.1298 H         1 UNK         0.3000 
    165 H165        0.8087  -15.0153  -47.0734 H         1 UNK         0.0600 
    166 H166        0.2948  -12.5856  -46.5840 H         1 UNK         0.0600 
    167 H167       -1.0117  -13.3632  -47.4667 H         1 UNK         0.0600 
    168 H168       -1.1647  -13.0746  -45.7375 H         1 UNK         0.0600 
    169 H169        0.9489  -13.7669  -44.5337 H         1 UNK         0.3000 
    170 H170        2.3678  -16.3083  -42.6146 H         1 UNK         0.0600 
    171 H171        4.4162  -15.6959  -43.8755 H         1 UNK         0.0600 
    172 H172        3.9554  -14.0022  -43.8505 H         1 UNK         0.0600 
    173 H173        4.3446  -14.8354  -42.3449 H         1 UNK         0.0600 
    174 H174        2.2008  -13.5484  -42.0788 H         1 UNK         0.3000 
    175 H175       -1.1841  -13.2615  -41.1825 H         1 UNK         0.0600 
    176 H176       -0.4305  -13.1019  -38.8217 H         1 UNK         0.0600 
    177 H177       -0.5044  -14.7822  -39.3273 H         1 UNK         0.0600 
    178 H178        1.0536  -13.9733  -39.2100 H         1 UNK         0.0600 
    179 H179        1.2388  -11.8537  -40.4413 H         1 UNK         0.3000 
    180 H180        0.5943   -9.1926  -41.9721 H         1 UNK         0.0600 
    181 H181        3.1143  -10.8756  -41.4766 H         1 UNK         0.0600 
    182 H182        2.1278  -10.0758  -40.2512 H         1 UNK         0.0600 
    183 H183        3.0400   -9.1203  -41.3987 H         1 UNK         0.0600 
    184 H184        1.4354   -8.8297  -43.9848 H         1 UNK         0.3000 
    185 H185        1.9327   -9.3429  -46.1361 H         1 UNK         0.0600 
    186 H186        4.8868   -9.9212  -45.4867 H         1 UNK         0.0600 
    187 H187        4.3129   -8.8667  -46.7779 H         1 UNK         0.0600 
    188 H188        4.0341   -8.4307  -45.0988 H         1 UNK         0.0600 
    189 H189        3.0761  -12.0292  -46.3241 H         1 UNK         0.3000 
    190 H190       -2.9529  -20.3141  -45.6101 H         1 UNK         0.3000 
    191 H191       -5.5947  -20.1280  -46.8621 H         1 UNK         0.0600 
    192 H192       -5.0824  -18.6155  -45.0395 H         1 UNK         0.0600 
    193 H193       -4.6501  -19.9448  -43.9558 H         1 UNK         0.0600 
    194 H194       -6.3179  -19.7221  -44.4751 H         1 UNK         0.0600 
    195 H195       -3.6974  -22.5789  -45.2451 H         1 UNK         0.3000 
    196 H196       -5.8289  -24.5234  -44.8789 H         1 UNK         0.0600 
    197 H197       -3.9650  -26.0658  -44.4152 H         1 UNK         0.0600 
    198 H198       -3.6669  -24.5556  -43.5705 H         1 UNK         0.0600 
    199 H199       -2.7927  -24.9292  -45.0584 H         1 UNK         0.0600 
    200 H200       -4.2156  -23.2624  -47.5596 H         1 UNK         0.3000 
    201 H201       -4.3298  -23.4901  -49.6936 H         1 UNK         0.0600 
    202 H202       -6.7497  -24.1773  -49.2521 H         1 UNK         0.0600 
    203 H203       -6.2479  -25.8502  -49.4832 H         1 UNK         0.0600 
    204 H204       -6.0908  -24.6870  -50.7942 H         1 UNK         0.0600 
    205 H205       -2.6986  -25.5943  -47.8939 H         1 UNK         0.3000 
    206 H206       -1.9912  -27.6600  -49.7962 H         1 UNK         0.0600 
    207 H207       -1.8612  -28.0430  -47.3479 H         1 UNK         0.0600 
    208 H208       -0.2813  -28.2521  -48.0890 H         1 UNK         0.0600 
    209 H209       -0.6394  -26.7829  -47.1924 H         1 UNK         0.0600 
    210 H210       -0.3802  -24.6709  -48.5857 H         1 UNK         0.3000 
    211 H211        1.8659  -24.9107  -50.4287 H         1 UNK         0.0600 
    212 H212        0.9537  -22.5832  -48.6605 H         1 UNK         0.0600 
    213 H213        2.4949  -22.6927  -49.4936 H         1 UNK         0.0600 
    214 H214        2.1163  -23.8284  -48.2100 H         1 UNK         0.0600 
    215 H215       -1.3146  -23.5203  -50.5519 H         1 UNK         0.3000 
    216 H216       -0.7947  -21.7770  -52.8625 H         1 UNK         0.0600 
    217 H217       -3.2169  -21.2654  -52.6222 H         1 UNK         0.0600 
    218 H218       -2.3949  -21.0701  -51.0840 H         1 UNK         0.0600 
    219 H219       -3.3796  -22.5012  -51.3951 H         1 UNK         0.0600 
    220 H220       -1.2391  -25.0917  -52.5045 H         1 UNK         0.3000 
    221 H221       -1.7541  -26.8087  -53.7968 H         1 UNK         0.0600 
    222 H222       -1.2586  -24.9082  -56.1514 H         1 UNK         0.0600 
    223 H223       -0.0188  -25.8097  -55.2810 H         1 UNK         0.0600 
    224 H224       -1.2378  -26.6651  -56.2120 H         1 UNK         0.0600 
    225 H225       -3.8863  -25.8982  -52.6770 H         1 UNK         0.3000 
    226 H226       -6.0376  -26.1895  -52.5473 H         1 UNK         0.0600 
    227 H227       -5.8135  -28.1131  -54.1310 H         1 UNK         0.0600 
    228 H228       -6.1930  -27.0367  -55.4768 H         1 UNK         0.0600 
    229 H229       -7.3821  -27.3309  -54.2214 H         1 UNK         0.0600 
    230 H230       -4.7295  -23.7234  -54.3619 H         1 UNK         0.3000 
    231 H231       -7.1436  -22.4422  -55.2862 H         1 UNK         0.0600 
    232 H232       -4.9047  -22.0230  -56.2984 H         1 UNK         0.0600 
    233 H233       -4.3582  -21.2744  -54.8003 H         1 UNK         0.0600 
    234 H234       -5.6436  -20.5303  -55.7364 H         1 UNK         0.0600 
    235 H235       -5.5092  -22.5230  -52.2246 H         1 UNK         0.3000 
    236 H236       -5.8255  -21.6655  -50.2009 H         1 UNK         0.0600 
    237 H237       -8.1120  -21.3538  -49.4184 H         1 UNK         0.0600 
    238 H238       -8.7038  -21.0846  -51.0528 H         1 UNK         0.0600 
    239 H239       -8.1137  -22.6734  -50.5773 H         1 UNK         0.0600 
    240 H240       -4.8478  -19.8026  -52.2505 H         1 UNK         0.3000 
    241 H241       -5.9131  -17.1989  -51.6880 H         1 UNK         0.0600 
    242 H242       -3.2012  -17.4981  -48.8490 H         1 UNK         0.3800 
    243 H243       -4.0103  -18.8966  -49.5393 H         1 UNK         0.3800 
    244 H244       -5.2285  -17.4207  -53.8820 H         1 UNK         0.0800 
    245 H245       -3.9800  -16.4293  -53.2089 H         1 UNK         0.0800 
    246 H246       -1.9109  -16.7188  -54.4660 H         1 UNK         0.0800 
    247 H247       -1.0119  -18.1966  -54.6798 H         1 UNK         0.0800 
@<TRIPOS>BOND
     1    1    2 1    
     2    1  127 1    
     3    1  128 1    
     4    1  129 1    
     5    2    3 2    
     6    2    4 am   BACKBONE|DICT|INTERRES
     7    4    5 1    
     8    4  130 1    
     9    5    6 1    
    10    5   65 1    
    11    5  131 1    
    12    6    7 1    
    13    6  132 1    
    14    6  133 1    
    15    7    8 1    
    16    8    9 1    
    17    8  134 1    
    18    8  135 1    
    19    9   10 ar   
    20    9   14 ar   
    21   10   11 ar   
    22   10  136 1    
    23   11   12 ar   
    24   11  126 1    
    25   12   13 ar   
    26   12  137 1    
    27   13   14 ar   
    28   13   15 1    
    29   14  138 1    
    30   15   16 1    
    31   15  139 1    
    32   15  140 1    
    33   16   17 1    
    34   17   18 1    
    35   17  141 1    
    36   17  142 1    
    37   18   19 1    
    38   18   67 1    
    39   18  143 1    
    40   19   20 am   BACKBONE|DICT|INTERRES
    41   19  144 1    
    42   20   21 2    
    43   20   22 1    
    44   22   23 1    
    45   22   24 1    
    46   22  145 1    
    47   23  146 1    
    48   23  147 1    
    49   23  148 1    
    50   24   25 am   BACKBONE|DICT|INTERRES
    51   24  149 1    
    52   25   26 2    
    53   25   27 1    
    54   27   28 1    
    55   27   29 1    
    56   27  150 1    
    57   28  151 1    
    58   28  152 1    
    59   28  153 1    
    60   29   30 am   BACKBONE|DICT|INTERRES
    61   29  154 1    
    62   30   31 2    
    63   30   32 1    
    64   32   33 1    
    65   32   34 1    
    66   32  155 1    
    67   33  156 1    
    68   33  157 1    
    69   33  158 1    
    70   34   35 am   BACKBONE|DICT|INTERRES
    71   34  159 1    
    72   35   36 2    
    73   35   37 1    
    74   37   38 1    
    75   37   39 1    
    76   37  160 1    
    77   38  161 1    
    78   38  162 1    
    79   38  163 1    
    80   39   40 am   BACKBONE|DICT|INTERRES
    81   39  164 1    
    82   40   41 2    
    83   40   42 1    
    84   42   43 1    
    85   42   44 1    
    86   42  165 1    
    87   43  166 1    
    88   43  167 1    
    89   43  168 1    
    90   44   45 am   BACKBONE|DICT|INTERRES
    91   44  169 1    
    92   45   46 2    
    93   45   47 1    
    94   47   48 1    
    95   47   49 1    
    96   47  170 1    
    97   48  171 1    
    98   48  172 1    
    99   48  173 1    
   100   49   50 am   BACKBONE|DICT|INTERRES
   101   49  174 1    
   102   50   51 2    
   103   50   52 1    
   104   52   53 1    
   105   52   54 1    
   106   52  175 1    
   107   53  176 1    
   108   53  177 1    
   109   53  178 1    
   110   54   55 am   BACKBONE|DICT|INTERRES
   111   54  179 1    
   112   55   56 2    
   113   55   57 1    
   114   57   58 1    
   115   57   59 1    
   116   57  180 1    
   117   58  181 1    
   118   58  182 1    
   119   58  183 1    
   120   59   60 am   BACKBONE|DICT|INTERRES
   121   59  184 1    
   122   60   61 2    
   123   60   62 1    
   124   62   63 1    
   125   62   64 1    
   126   62  185 1    
   127   63  186 1    
   128   63  187 1    
   129   63  188 1    
   130   64   65 am   BACKBONE|DICT|INTERRES
   131   64  189 1    
   132   65   66 2    
   133   67   68 2    
   134   67   69 am   BACKBONE|DICT|INTERRES
   135   69   70 1    
   136   69  190 1    
   137   70   71 1    
   138   70   72 1    
   139   70  191 1    
   140   71  192 1    
   141   71  193 1    
   142   71  194 1    
   143   72   73 2    
   144   72   74 am   BACKBONE|DICT|INTERRES
   145   74   75 1    
   146   74  195 1    
   147   75   76 1    
   148   75   77 1    
   149   75  196 1    
   150   76  197 1    
   151   76  198 1    
   152   76  199 1    
   153   77   78 2    
   154   77   79 am   BACKBONE|DICT|INTERRES
   155   79   80 1    
   156   79  200 1    
   157   80   81 1    
   158   80   82 1    
   159   80  201 1    
   160   81  202 1    
   161   81  203 1    
   162   81  204 1    
   163   82   83 2    
   164   82   84 am   BACKBONE|DICT|INTERRES
   165   84   85 1    
   166   84  205 1    
   167   85   86 1    
   168   85   87 1    
   169   85  206 1    
   170   86  207 1    
   171   86  208 1    
   172   86  209 1    
   173   87   88 2    
   174   87   89 am   BACKBONE|DICT|INTERRES
   175   89   90 1    
   176   89  210 1    
   177   90   91 1    
   178   90   92 1    
   179   90  211 1    
   180   91  212 1    
   181   91  213 1    
   182   91  214 1    
   183   92   93 2    
   184   92   94 am   BACKBONE|DICT|INTERRES
   185   94   95 1    
   186   94  215 1    
   187   95   96 1    
   188   95   97 1    
   189   95  216 1    
   190   96  217 1    
   191   96  218 1    
   192   96  219 1    
   193   97   98 2    
   194   97   99 am   BACKBONE|DICT|INTERRES
   195   99  100 1    
   196   99  220 1    
   197  100  101 1    
   198  100  102 1    
   199  100  221 1    
   200  101  222 1    
   201  101  223 1    
   202  101  224 1    
   203  102  103 2    
   204  102  104 am   BACKBONE|DICT|INTERRES
   205  104  105 1    
   206  104  225 1    
   207  105  106 1    
   208  105  107 1    
   209  105  226 1    
   210  106  227 1    
   211  106  228 1    
   212  106  229 1    
   213  107  108 2    
   214  107  109 am   BACKBONE|DICT|INTERRES
   215  109  110 1    
   216  109  230 1    
   217  110  111 1    
   218  110  112 1    
   219  110  231 1    
   220  111  232 1    
   221  111  233 1    
   222  111  234 1    
   223  112  113 2    
   224  112  114 am   BACKBONE|DICT|INTERRES
   225  114  115 1    
   226  114  235 1    
   227  115  116 1    
   228  115  117 1    
   229  115  236 1    
   230  116  237 1    
   231  116  238 1    
   232  116  239 1    
   233  117  118 2    
   234  117  119 am   BACKBONE|DICT|INTERRES
   235  119  120 1    
   236  119  240 1    
   237  120  121 1    
   238  120  124 1    
   239  120  241 1    
   240  121  122 am   BACKBONE|DICT|INTERRES
   241  121  123 2    
   242  122  242 1    
   243  122  243 1    
   244  124  125 1    
   245  124  244 1    
   246  124  245 1    
   247  125  126 1    
   248  126  246 1    
   249  126  247 1    
@<TRIPOS>SUBSTRUCTURE
     1 UNK         1 GROUP             0       ****    0 ROOT    
