@<TRIPOS>MOLECULE
3R540
247   249    1
SMALL
USER_CHARGES


@<TRIPOS>ATOM
      1 CA          5.3489   -9.5316  -48.2500 C.3       0 UNK        -0.1800 
      2 C           5.4794  -10.8258  -47.4601 C.2       0 UNK         0.5000 
      3 O           6.4160  -10.9750  -46.6745 O.2       0 UNK        -0.5000 
      4 N           4.5371  -11.7571  -47.6494 N.am      1 UNK        -0.5000 
      5 CA          4.4868  -13.0849  -47.0214 C.3       1 UNK         0.1400 
      6 C6          3.6312  -14.0714  -47.8582 C.3       23 UNK        -0.0398 
      7 S7          4.2911  -14.3668  -49.5336 S.3       23 UNK        -0.2404 
      8 C8          3.4964  -15.9537  -49.9541 C.3       23 UNK        -0.0205 
      9 C9          2.0899  -15.7682  -50.5097 C.ar      23 UNK        -0.0193 
     10 C10         1.8544  -15.8947  -51.8825 C.ar      23 UNK        -0.1150 
     11 C11         0.5633  -15.7490  -52.3992 C.ar      23 UNK        -0.0193 
     12 C12        -0.4963  -15.4619  -51.5343 C.ar      23 UNK        -0.1150 
     13 C13        -0.2759  -15.3331  -50.1607 C.ar      23 UNK        -0.0193 
     14 C14         1.0181  -15.4920  -49.6553 C.ar      23 UNK        -0.1150 
     15 C15        -1.4342  -15.0097  -49.2268 C.3       23 UNK        -0.0205 
     16 S16        -2.5319  -16.4388  -48.9585 S.3       23 UNK        -0.2404 
     17 C17        -1.4598  -17.5507  -47.9915 C.3       23 UNK        -0.0398 
     18 CA         -1.6483  -19.0397  -48.3506 C.3       11 UNK         0.1400 
     19 N          -0.4552  -19.8178  -48.0143 N.am      11 UNK        -0.5000 
     20 C          -0.2209  -21.0759  -48.4103 C.2       10 UNK         0.5000 
     21 O          -0.9755  -21.7156  -49.1386 O.2       10 UNK        -0.5000 
     22 CA          1.0507  -21.7444  -47.8577 C.3       10 UNK         0.1400 
     23 CB          2.2482  -21.4647  -48.7772 C.3       10 UNK        -0.1800 
     24 N           1.3719  -21.3022  -46.5003 N.am      10 UNK        -0.5000 
     25 C           0.6037  -21.4957  -45.4215 C.2       9 UNK         0.5000 
     26 O          -0.4573  -22.1194  -45.4474 O.2       9 UNK        -0.5000 
     27 CA          1.0600  -20.8299  -44.1122 C.3       9 UNK         0.1400 
     28 CB          2.2018  -21.6145  -43.4410 C.3       9 UNK        -0.1800 
     29 N           1.3890  -19.4075  -44.2622 N.am      9 UNK        -0.5000 
     30 C           2.4115  -18.8222  -44.9048 C.2       8 UNK         0.5000 
     31 O           3.2736  -19.4320  -45.5381 O.2       8 UNK        -0.5000 
     32 CA          2.4552  -17.2831  -44.8446 C.3       8 UNK         0.1400 
     33 CB          1.5738  -16.7046  -45.9619 C.3       8 UNK        -0.1800 
     34 N           2.0079  -16.7654  -43.5496 N.am      8 UNK        -0.5000 
     35 C           2.6383  -16.9789  -42.3841 C.2       7 UNK         0.5000 
     36 O           3.7418  -17.5173  -42.2893 O.2       7 UNK        -0.5000 
     37 CA          1.8837  -16.5766  -41.1046 C.3       7 UNK         0.1400 
     38 CB          2.1399  -15.1071  -40.7401 C.3       7 UNK        -0.1800 
     39 N           0.4451  -16.8157  -41.2348 N.am      7 UNK        -0.5000 
     40 C          -0.1294  -18.0241  -41.1348 C.2       6 UNK         0.5000 
     41 O           0.4855  -19.0516  -40.8506 O.2       6 UNK        -0.5000 
     42 CA         -1.6410  -18.1091  -41.4197 C.3       6 UNK         0.1400 
     43 CB         -2.4444  -17.9533  -40.1202 C.3       6 UNK        -0.1800 
     44 N          -2.0924  -17.1063  -42.3842 N.am      6 UNK        -0.5000 
     45 C          -1.8278  -17.1397  -43.6970 C.2       5 UNK         0.5000 
     46 O          -1.2242  -18.0591  -44.2518 O.2       5 UNK        -0.5000 
     47 CA         -2.2824  -15.9198  -44.5204 C.3       5 UNK         0.1400 
     48 CB         -3.6899  -16.1499  -45.0907 C.3       5 UNK        -0.1800 
     49 N          -2.2519  -14.6616  -43.7684 N.am      5 UNK        -0.5000 
     50 C          -1.1312  -14.0983  -43.2980 C.2       4 UNK         0.5000 
     51 O          -0.0160  -14.6106  -43.4110 O.2       4 UNK        -0.5000 
     52 CA         -1.2949  -12.7901  -42.5091 C.3       4 UNK         0.1400 
     53 CB         -1.2891  -13.0708  -40.9988 C.3       4 UNK        -0.1800 
     54 N          -0.2280  -11.8426  -42.8214 N.am      4 UNK        -0.5000 
     55 C          -0.1849  -11.0766  -43.9162 C.2       3 UNK         0.5000 
     56 O          -1.0527  -11.0923  -44.7905 O.2       3 UNK        -0.5000 
     57 CA          1.0054  -10.1061  -44.0553 C.3       3 UNK         0.1400 
     58 CB          0.9077   -8.9485  -43.0424 C.3       3 UNK        -0.1800 
     59 N           2.3280  -10.7408  -44.0180 N.am      3 UNK        -0.5000 
     60 C           2.9381  -11.3888  -43.0145 C.2       2 UNK         0.5000 
     61 O           2.4396  -11.5475  -41.8984 O.2       2 UNK        -0.5000 
     62 CA          4.3594  -11.9263  -43.3102 C.3       2 UNK         0.1400 
     63 CB          4.7068  -13.1801  -42.4814 C.3       2 UNK        -0.1800 
     64 N           4.6347  -12.1617  -44.7361 N.am      2 UNK        -0.5000 
     65 C           3.9960  -13.0107  -45.5540 C.2       1 UNK         0.5000 
     66 O           3.0398  -13.6937  -45.1927 O.2       1 UNK        -0.5000 
     67 C          -2.9086  -19.6281  -47.6825 C.2       11 UNK         0.5000 
     68 O          -3.9287  -19.7996  -48.3496 O.2       11 UNK        -0.5000 
     69 N          -2.8015  -19.9746  -46.3899 N.am      12 UNK        -0.5000 
     70 CA         -3.8565  -20.6508  -45.6336 C.3       12 UNK         0.1400 
     71 CB         -3.4902  -20.6935  -44.1427 C.3       12 UNK        -0.1800 
     72 C          -4.1507  -22.0610  -46.1750 C.2       12 UNK         0.5000 
     73 O          -5.3185  -22.4293  -46.2962 O.2       12 UNK        -0.5000 
     74 N          -3.0956  -22.8018  -46.5439 N.am      13 UNK        -0.5000 
     75 CA         -3.1980  -24.1050  -47.2010 C.3       13 UNK         0.1400 
     76 CB         -1.8106  -24.7533  -47.3014 C.3       13 UNK        -0.1800 
     77 C          -3.8674  -24.0198  -48.5846 C.2       13 UNK         0.5000 
     78 O          -4.6938  -24.8728  -48.9040 O.2       13 UNK        -0.5000 
     79 N          -3.5332  -22.9864  -49.3695 N.am      14 UNK        -0.5000 
     80 CA         -4.1532  -22.6968  -50.6628 C.3       14 UNK         0.1400 
     81 CB         -3.3704  -21.5957  -51.3915 C.3       14 UNK        -0.1800 
     82 C          -5.6401  -22.3259  -50.5334 C.2       14 UNK         0.5000 
     83 O          -6.4563  -22.8296  -51.3045 O.2       14 UNK        -0.5000 
     84 N          -5.9754  -21.4987  -49.5328 N.am      15 UNK        -0.5000 
     85 CA         -7.3488  -21.1181  -49.1903 C.3       15 UNK         0.1400 
     86 CB         -7.3236  -20.0146  -48.1220 C.3       15 UNK        -0.1800 
     87 C          -8.2063  -22.3126  -48.7262 C.2       15 UNK         0.5000 
     88 O          -9.3868  -22.3846  -49.0689 O.2       15 UNK        -0.5000 
     89 N          -7.5872  -23.2457  -47.9909 N.am      16 UNK        -0.5000 
     90 CA         -8.1817  -24.5127  -47.5591 C.3       16 UNK         0.1400 
     91 CB         -7.3686  -25.0541  -46.3719 C.3       16 UNK        -0.1800 
     92 C          -8.2628  -25.5740  -48.6779 C.2       16 UNK         0.5000 
     93 O          -8.8974  -26.6090  -48.4709 O.2       16 UNK        -0.5000 
     94 N          -7.6044  -25.3188  -49.8193 N.am      17 UNK        -0.5000 
     95 CA         -7.4253  -26.2053  -50.9756 C.3       17 UNK         0.1400 
     96 CB         -8.7758  -26.5269  -51.6486 C.3       17 UNK        -0.1800 
     97 C          -6.5896  -27.4662  -50.6596 C.2       17 UNK         0.5000 
     98 O          -6.7192  -28.4823  -51.3448 O.2       17 UNK        -0.5000 
     99 N          -5.7281  -27.3707  -49.6392 N.am      18 UNK        -0.5000 
    100 CA        -4.7387  -28.3805  -49.2670 C.3       18 UNK         0.1400 
    101 CB        -4.4341  -28.2449  -47.7669 C.3       18 UNK        -0.1800 
    102 C         -3.4482  -28.2379  -50.0964 C.2       18 UNK         0.5000 
    103 O         -2.7374  -29.2252  -50.2876 O.2       18 UNK        -0.5000 
    104 N         -3.1828  -27.0196  -50.5815 N.am      19 UNK        -0.5000 
    105 CA        -2.1128  -26.6761  -51.5120 C.3       19 UNK         0.1400 
    106 CB        -1.1422  -25.7049  -50.8179 C.3       19 UNK        -0.1800 
    107 C         -2.7234  -26.0316  -52.7671 C.2       19 UNK         0.5000 
    108 O         -3.9050  -25.6739  -52.7708 O.2       19 UNK        -0.5000 
    109 N         -1.9017  -25.8870  -53.8121 N.am      20 UNK        -0.5000 
    110 CA        -2.2514  -25.1778  -55.0421 C.3       20 UNK         0.1400 
    111 CB        -1.2518  -25.5692  -56.1417 C.3       20 UNK        -0.1800 
    112 C         -2.2497  -23.6515  -54.8320 C.2       20 UNK         0.5000 
    113 O         -1.4845  -23.1432  -54.0087 O.2       20 UNK        -0.5000 
    114 N         -3.0869  -22.9507  -55.6047 N.am      21 UNK        -0.5000 
    115 CA        -3.1551  -21.4898  -55.6463 C.3       21 UNK         0.1400 
    116 CB        -4.4866  -21.0815  -56.2975 C.3       21 UNK        -0.1800 
    117 C         -1.9638  -20.8740  -56.4073 C.2       21 UNK         0.5000 
    118 O         -1.2885  -21.5670  -57.1731 O.2       21 UNK        -0.5000 
    119 N         -1.7507  -19.5691  -56.2008 N.am      22 UNK        -0.5000 
    120 CA        -0.6755  -18.7776  -56.8275 C.3       22 UNK         0.1400 
    121 C         -0.8388  -18.5334  -58.3586 C.2       22 UNK         0.5000 
    122 N         -1.9972  -18.7829  -58.9573 N.am      22 UNK        -0.7600 
    123 O          0.1078  -18.1105  -59.0167 O.2       22 UNK        -0.5000 
    124 C124       -0.4523  -17.4289  -56.0948 C.3       23 UNK        -0.0398 
    125 S125       -0.0922  -17.6212  -54.3172 S.3       23 UNK        -0.2404 
    126 C126        0.3110  -15.9001  -53.8901 C.3       23 UNK        -0.0205 
    127 H127        5.2604   -8.6843  -47.5702 H         1 UNK         0.0600 
    128 H128        6.2319   -9.3813  -48.8711 H         1 UNK         0.0600 
    129 H129        4.4736   -9.5397  -48.9000 H         1 UNK         0.0600 
    130 H130        3.7919  -11.5671  -48.3043 H         1 UNK         0.3000 
    131 H131        5.5028  -13.4838  -46.9836 H         1 UNK         0.0600 
    132 H132        3.5767  -15.0358  -47.3513 H         1 UNK         0.0800 
    133 H133        2.6080  -13.7031  -47.9437 H         1 UNK         0.0800 
    134 H134        4.1213  -16.4627  -50.6896 H         1 UNK         0.0800 
    135 H135        3.4705  -16.6107  -49.0838 H         1 UNK         0.0800 
    136 H136        2.6747  -16.1161  -52.5510 H         1 UNK         0.1150 
    137 H137       -1.4965  -15.3473  -51.9285 H         1 UNK         0.1150 
    138 H138        1.1888  -15.3997  -48.5937 H         1 UNK         0.1150 
    139 H139       -1.0689  -14.6491  -48.2637 H         1 UNK         0.0800 
    140 H140       -2.0193  -14.1938  -49.6535 H         1 UNK         0.0800 
    141 H141       -1.6266  -17.3800  -46.9309 H         1 UNK         0.0800 
    142 H142       -0.4251  -17.2683  -48.1756 H         1 UNK         0.0800 
    143 H143       -1.7791  -19.1181  -49.4325 H         1 UNK         0.0600 
    144 H144        0.2185  -19.3835  -47.4029 H         1 UNK         0.3000 
    145 H145        0.8797  -22.8221  -47.8307 H         1 UNK         0.0600 
    146 H146        3.1389  -21.9918  -48.4348 H         1 UNK         0.0600 
    147 H147        2.0447  -21.7983  -49.7957 H         1 UNK         0.0600 
    148 H148        2.4841  -20.4005  -48.8199 H         1 UNK         0.0600 
    149 H149        2.2211  -20.7570  -46.3747 H         1 UNK         0.3000 
    150 H150        0.2053  -20.8580  -43.4341 H         1 UNK         0.0600 
    151 H151        1.8993  -22.6430  -43.2407 H         1 UNK         0.0600 
    152 H152        2.4767  -21.1642  -42.4869 H         1 UNK         0.0600 
    153 H153        3.0960  -21.6543  -44.0634 H         1 UNK         0.0600 
    154 H154        0.6896  -18.7835  -43.8762 H         1 UNK         0.3000 
    155 H155        3.4849  -16.9574  -45.0053 H         1 UNK         0.0600 
    156 H156        1.5478  -15.6168  -45.9355 H         1 UNK         0.0600 
    157 H157        0.5467  -17.0531  -45.8810 H         1 UNK         0.0600 
    158 H158        1.9463  -17.0037  -46.9419 H         1 UNK         0.0600 
    159 H159        1.1586  -16.2093  -43.5449 H         1 UNK         0.3000 
    160 H160        2.2643  -17.1912  -40.2858 H         1 UNK         0.0600 
    161 H161        1.8424  -14.4284  -41.5397 H         1 UNK         0.0600 
    162 H162        3.1993  -14.9391  -40.5458 H         1 UNK         0.0600 
    163 H163        1.5993  -14.8236  -39.8372 H         1 UNK         0.0600 
    164 H164       -0.1168  -16.0298  -41.5267 H         1 UNK         0.3000 
    165 H165       -1.8446  -19.1004  -41.8304 H         1 UNK         0.0600 
    166 H166       -2.2939  -16.9723  -39.6677 H         1 UNK         0.0600 
    167 H167       -3.5121  -18.0811  -40.2995 H         1 UNK         0.0600 
    168 H168       -2.1475  -18.7030  -39.3855 H         1 UNK         0.0600 
    169 H169       -2.6072  -16.3197  -42.0174 H         1 UNK         0.3000 
    170 H170       -1.5862  -15.8073  -45.3524 H         1 UNK         0.0600 
    171 H171       -3.7418  -17.0861  -45.6484 H         1 UNK         0.0600 
    172 H172       -4.4414  -16.1986  -44.3019 H         1 UNK         0.0600 
    173 H173       -3.9719  -15.3508  -45.7765 H         1 UNK         0.0600 
    174 H174       -3.1367  -14.1946  -43.6299 H         1 UNK         0.3000 
    175 H175       -2.2539  -12.3367  -42.7689 H         1 UNK         0.0600 
    176 H176       -1.4636  -12.1575  -40.4298 H         1 UNK         0.0600 
    177 H177       -2.0738  -13.7775  -40.7259 H         1 UNK         0.0600 
    178 H178       -0.3385  -13.4900  -40.6697 H         1 UNK         0.0600 
    179 H179        0.5805  -11.8264  -42.2059 H         1 UNK         0.3000 
    180 H180        0.9268   -9.6651  -45.0503 H         1 UNK         0.0600 
    181 H181        0.9826   -9.2960  -42.0117 H         1 UNK         0.0600 
    182 H182       -0.0453   -8.4271  -43.1400 H         1 UNK         0.0600 
    183 H183        1.6971   -8.2150  -43.2061 H         1 UNK         0.0600 
    184 H184        2.8331  -10.7086  -44.8917 H         1 UNK         0.3000 
    185 H185        5.0413  -11.1333  -43.0006 H         1 UNK         0.0600 
    186 H186        5.7335  -13.4983  -42.6617 H         1 UNK         0.0600 
    187 H187        4.6134  -12.9858  -41.4124 H         1 UNK         0.0600 
    188 H188        4.0517  -14.0170  -42.7231 H         1 UNK         0.0600 
    189 H189        5.3982  -11.6257  -45.1403 H         1 UNK         0.3000 
    190 H190       -1.9345  -19.8056  -45.8997 H         1 UNK         0.3000 
    191 H191       -4.7711  -20.0633  -45.7368 H         1 UNK         0.0600 
    192 H192       -3.4387  -19.6893  -43.7244 H         1 UNK         0.0600 
    193 H193       -4.2412  -21.2405  -43.5713 H         1 UNK         0.0600 
    194 H194       -2.5295  -21.1795  -43.9726 H         1 UNK         0.0600 
    195 H195       -2.1609  -22.4521  -46.3547 H         1 UNK         0.3000 
    196 H196       -3.8215  -24.7430  -46.5715 H         1 UNK         0.0600 
    197 H197       -1.8820  -25.7592  -47.7165 H         1 UNK         0.0600 
    198 H198       -1.3419  -24.8380  -46.3209 H         1 UNK         0.0600 
    199 H199       -1.1425  -24.1801  -47.9435 H         1 UNK         0.0600 
    200 H200       -2.7828  -22.3667  -49.0781 H         1 UNK         0.3000 
    201 H201       -4.0942  -23.6012  -51.2675 H         1 UNK         0.0600 
    202 H202       -2.3432  -21.9062  -51.5835 H         1 UNK         0.0600 
    203 H203       -3.3391  -20.6701  -50.8174 H         1 UNK         0.0600 
    204 H204       -3.8270  -21.3696  -52.3550 H         1 UNK         0.0600 
    205 H205       -5.2342  -21.0828  -48.9750 H         1 UNK         0.3000 
    206 H206       -7.8127  -20.7085  -50.0899 H         1 UNK         0.0600 
    207 H207       -6.7704  -19.1419  -48.4695 H         1 UNK         0.0600 
    208 H208       -8.3340  -19.6844  -47.8778 H         1 UNK         0.0600 
    209 H209       -6.8583  -20.3585  -47.1982 H         1 UNK         0.0600 
    210 H210       -6.6349  -23.0683  -47.6866 H         1 UNK         0.3000 
    211 H211       -9.2002  -24.3204  -47.2161 H         1 UNK         0.0600 
    212 H212       -6.3389  -25.2721  -46.6570 H         1 UNK         0.0600 
    213 H213       -7.8036  -25.9760  -45.9841 H         1 UNK         0.0600 
    214 H214       -7.3437  -24.3372  -45.5510 H         1 UNK         0.0600 
    215 H215       -7.1115  -24.4369  -49.8832 H         1 UNK         0.3000 
    216 H216       -6.8329  -25.6354  -51.6931 H         1 UNK         0.0600 
    217 H217       -9.3378  -25.6167  -51.8578 H         1 UNK         0.0600 
    218 H218       -9.3974  -27.1715  -51.0269 H         1 UNK         0.0600 
    219 H219       -8.6255  -27.0393  -52.5995 H         1 UNK         0.0600 
    220 H220       -5.6369  -26.4679  -49.1803 H         1 UNK         0.3000 
    221 H221       -5.1499  -29.3760  -49.4466 H         1 UNK         0.0600 
    222 H222       -4.0136  -27.2680  -47.5267 H         1 UNK         0.0600 
    223 H223       -5.3363  -28.3761  -47.1691 H         1 UNK         0.0600 
    224 H224       -3.7165  -29.0002  -47.4443 H         1 UNK         0.0600 
    225 H225       -3.8572  -26.2840  -50.4103 H         1 UNK         0.3000 
    226 H226       -1.5676  -27.5704  -51.8204 H         1 UNK         0.0600 
    227 H227       -0.7305  -26.1428  -49.9088 H         1 UNK         0.0600 
    228 H228       -0.3004  -25.4582  -51.4657 H         1 UNK         0.0600 
    229 H229       -1.6296  -24.7674  -50.5501 H         1 UNK         0.0600 
    230 H230       -0.9368  -26.1691  -53.7203 H         1 UNK         0.3000 
    231 H231       -3.2507  -25.4900  -55.3540 H         1 UNK         0.0600 
    232 H232       -1.4939  -25.0760  -57.0841 H         1 UNK         0.0600 
    233 H233       -1.2663  -26.6438  -56.3249 H         1 UNK         0.0600 
    234 H234       -0.2319  -25.2861  -55.8777 H         1 UNK         0.0600 
    235 H235       -3.6481  -23.4408  -56.2858 H         1 UNK         0.3000 
    236 H236       -3.1365  -21.1103  -54.6231 H         1 UNK         0.0600 
    237 H237       -4.6064  -19.9975  -56.3074 H         1 UNK         0.0600 
    238 H238       -4.5534  -21.4288  -57.3294 H         1 UNK         0.0600 
    239 H239       -5.3349  -21.4927  -55.7497 H         1 UNK         0.0600 
    240 H240       -2.3460  -19.0668  -55.5586 H         1 UNK         0.3000 
    241 H241        0.2436  -19.3575  -56.7215 H         1 UNK         0.0600 
    242 H242       -2.7818  -19.1336  -58.4326 H         1 UNK         0.3800 
    243 H243       -2.0877  -18.6239  -59.9488 H         1 UNK         0.3800 
    244 H244        0.3809  -16.8869  -56.5465 H         1 UNK         0.0800 
    245 H245       -1.3298  -16.7889  -56.2028 H         1 UNK         0.0800 
    246 H246        1.1892  -15.5807  -54.4536 H         1 UNK         0.0800 
    247 H247       -0.5076  -15.2468  -54.1964 H         1 UNK         0.0800 
@<TRIPOS>BOND
     1    1    2 1    
     2    1  127 1    
     3    1  128 1    
     4    1  129 1    
     5    2    3 2    
     6    2    4 am   BACKBONE|DICT|INTERRES
     7    4    5 1    
     8    4  130 1    
     9    5    6 1    
    10    5   65 1    
    11    5  131 1    
    12    6    7 1    
    13    6  132 1    
    14    6  133 1    
    15    7    8 1    
    16    8    9 1    
    17    8  134 1    
    18    8  135 1    
    19    9   10 ar   
    20    9   14 ar   
    21   10   11 ar   
    22   10  136 1    
    23   11   12 ar   
    24   11  126 1    
    25   12   13 ar   
    26   12  137 1    
    27   13   14 ar   
    28   13   15 1    
    29   14  138 1    
    30   15   16 1    
    31   15  139 1    
    32   15  140 1    
    33   16   17 1    
    34   17   18 1    
    35   17  141 1    
    36   17  142 1    
    37   18   19 1    
    38   18   67 1    
    39   18  143 1    
    40   19   20 am   BACKBONE|DICT|INTERRES
    41   19  144 1    
    42   20   21 2    
    43   20   22 1    
    44   22   23 1    
    45   22   24 1    
    46   22  145 1    
    47   23  146 1    
    48   23  147 1    
    49   23  148 1    
    50   24   25 am   BACKBONE|DICT|INTERRES
    51   24  149 1    
    52   25   26 2    
    53   25   27 1    
    54   27   28 1    
    55   27   29 1    
    56   27  150 1    
    57   28  151 1    
    58   28  152 1    
    59   28  153 1    
    60   29   30 am   BACKBONE|DICT|INTERRES
    61   29  154 1    
    62   30   31 2    
    63   30   32 1    
    64   32   33 1    
    65   32   34 1    
    66   32  155 1    
    67   33  156 1    
    68   33  157 1    
    69   33  158 1    
    70   34   35 am   BACKBONE|DICT|INTERRES
    71   34  159 1    
    72   35   36 2    
    73   35   37 1    
    74   37   38 1    
    75   37   39 1    
    76   37  160 1    
    77   38  161 1    
    78   38  162 1    
    79   38  163 1    
    80   39   40 am   BACKBONE|DICT|INTERRES
    81   39  164 1    
    82   40   41 2    
    83   40   42 1    
    84   42   43 1    
    85   42   44 1    
    86   42  165 1    
    87   43  166 1    
    88   43  167 1    
    89   43  168 1    
    90   44   45 am   BACKBONE|DICT|INTERRES
    91   44  169 1    
    92   45   46 2    
    93   45   47 1    
    94   47   48 1    
    95   47   49 1    
    96   47  170 1    
    97   48  171 1    
    98   48  172 1    
    99   48  173 1    
   100   49   50 am   BACKBONE|DICT|INTERRES
   101   49  174 1    
   102   50   51 2    
   103   50   52 1    
   104   52   53 1    
   105   52   54 1    
   106   52  175 1    
   107   53  176 1    
   108   53  177 1    
   109   53  178 1    
   110   54   55 am   BACKBONE|DICT|INTERRES
   111   54  179 1    
   112   55   56 2    
   113   55   57 1    
   114   57   58 1    
   115   57   59 1    
   116   57  180 1    
   117   58  181 1    
   118   58  182 1    
   119   58  183 1    
   120   59   60 am   BACKBONE|DICT|INTERRES
   121   59  184 1    
   122   60   61 2    
   123   60   62 1    
   124   62   63 1    
   125   62   64 1    
   126   62  185 1    
   127   63  186 1    
   128   63  187 1    
   129   63  188 1    
   130   64   65 am   BACKBONE|DICT|INTERRES
   131   64  189 1    
   132   65   66 2    
   133   67   68 2    
   134   67   69 am   BACKBONE|DICT|INTERRES
   135   69   70 1    
   136   69  190 1    
   137   70   71 1    
   138   70   72 1    
   139   70  191 1    
   140   71  192 1    
   141   71  193 1    
   142   71  194 1    
   143   72   73 2    
   144   72   74 am   BACKBONE|DICT|INTERRES
   145   74   75 1    
   146   74  195 1    
   147   75   76 1    
   148   75   77 1    
   149   75  196 1    
   150   76  197 1    
   151   76  198 1    
   152   76  199 1    
   153   77   78 2    
   154   77   79 am   BACKBONE|DICT|INTERRES
   155   79   80 1    
   156   79  200 1    
   157   80   81 1    
   158   80   82 1    
   159   80  201 1    
   160   81  202 1    
   161   81  203 1    
   162   81  204 1    
   163   82   83 2    
   164   82   84 am   BACKBONE|DICT|INTERRES
   165   84   85 1    
   166   84  205 1    
   167   85   86 1    
   168   85   87 1    
   169   85  206 1    
   170   86  207 1    
   171   86  208 1    
   172   86  209 1    
   173   87   88 2    
   174   87   89 am   BACKBONE|DICT|INTERRES
   175   89   90 1    
   176   89  210 1    
   177   90   91 1    
   178   90   92 1    
   179   90  211 1    
   180   91  212 1    
   181   91  213 1    
   182   91  214 1    
   183   92   93 2    
   184   92   94 am   BACKBONE|DICT|INTERRES
   185   94   95 1    
   186   94  215 1    
   187   95   96 1    
   188   95   97 1    
   189   95  216 1    
   190   96  217 1    
   191   96  218 1    
   192   96  219 1    
   193   97   98 2    
   194   97   99 am   BACKBONE|DICT|INTERRES
   195   99  100 1    
   196   99  220 1    
   197  100  101 1    
   198  100  102 1    
   199  100  221 1    
   200  101  222 1    
   201  101  223 1    
   202  101  224 1    
   203  102  103 2    
   204  102  104 am   BACKBONE|DICT|INTERRES
   205  104  105 1    
   206  104  225 1    
   207  105  106 1    
   208  105  107 1    
   209  105  226 1    
   210  106  227 1    
   211  106  228 1    
   212  106  229 1    
   213  107  108 2    
   214  107  109 am   BACKBONE|DICT|INTERRES
   215  109  110 1    
   216  109  230 1    
   217  110  111 1    
   218  110  112 1    
   219  110  231 1    
   220  111  232 1    
   221  111  233 1    
   222  111  234 1    
   223  112  113 2    
   224  112  114 am   BACKBONE|DICT|INTERRES
   225  114  115 1    
   226  114  235 1    
   227  115  116 1    
   228  115  117 1    
   229  115  236 1    
   230  116  237 1    
   231  116  238 1    
   232  116  239 1    
   233  117  118 2    
   234  117  119 am   BACKBONE|DICT|INTERRES
   235  119  120 1    
   236  119  240 1    
   237  120  121 1    
   238  120  124 1    
   239  120  241 1    
   240  121  122 am   BACKBONE|DICT|INTERRES
   241  121  123 2    
   242  122  242 1    
   243  122  243 1    
   244  124  125 1    
   245  124  244 1    
   246  124  245 1    
   247  125  126 1    
   248  126  246 1    
   249  126  247 1    
@<TRIPOS>SUBSTRUCTURE
     1 UNK         1 GROUP             0       ****    0 ROOT    
