@<TRIPOS>MOLECULE
3R540
247   249    1
SMALL
USER_CHARGES


@<TRIPOS>ATOM
      1 CA         -4.4868  -15.3384  -48.1320 C.3       0 UNK        -0.1800 
      2 C          -3.2686  -14.8478  -47.3647 C.2       0 UNK         0.5000 
      3 O          -2.6838  -15.6020  -46.5876 O.2       0 UNK        -0.5000 
      4 N          -2.8967  -13.5786  -47.5754 N.am      1 UNK        -0.5000 
      5 CA         -1.7934  -12.8360  -46.9463 C.3       1 UNK         0.1400 
      6 C6         -0.3863  -13.4553  -47.1641 C.3       23 UNK        -0.0398 
      7 S7          0.1873  -13.3366  -48.8901 S.3       23 UNK        -0.2404 
      8 C8          0.5299  -15.0708  -49.3360 C.3       23 UNK        -0.0205 
      9 C9         -0.5632  -15.6496  -50.2205 C.ar      23 UNK        -0.0193 
     10 C10        -0.6649  -15.2348  -51.5510 C.ar      23 UNK        -0.1150 
     11 C11        -1.6479  -15.7637  -52.3913 C.ar      23 UNK        -0.0193 
     12 C12        -2.5414  -16.7116  -51.8862 C.ar      23 UNK        -0.1150 
     13 C13        -2.4368  -17.1524  -50.5638 C.ar      23 UNK        -0.0193 
     14 C14        -1.4490  -16.6139  -49.7320 C.ar      23 UNK        -0.1150 
     15 C15        -3.3851  -18.2235  -50.0502 C.3       23 UNK        -0.0205 
     16 S16        -2.9350  -19.8621  -50.7030 S.3       23 UNK        -0.2404 
     17 C17        -1.4482  -20.2421  -49.7097 C.3       23 UNK        -0.0398 
     18 CA         -1.5550  -21.4861  -48.7895 C.3       11 UNK         0.1400 
     19 N          -0.4196  -21.5431  -47.8783 N.am      11 UNK        -0.5000 
     20 C           0.4911  -22.5203  -47.8276 C.2       10 UNK         0.5000 
     21 O           0.5609  -23.4303  -48.6536 O.2       10 UNK        -0.5000 
     22 CA          1.4851  -22.5000  -46.6437 C.3       10 UNK         0.1400 
     23 CB          2.8707  -22.0402  -47.1231 C.3       10 UNK        -0.1800 
     24 N           1.0792  -21.6637  -45.5079 N.am      10 UNK        -0.5000 
     25 C          -0.0641  -21.7698  -44.8156 C.2       9 UNK         0.5000 
     26 O          -0.9151  -22.6351  -45.0235 O.2       9 UNK        -0.5000 
     27 CA         -0.3562  -20.6723  -43.7782 C.3       9 UNK         0.1400 
     28 CB          0.2136  -21.0647  -42.4085 C.3       9 UNK        -0.1800 
     29 N           0.1404  -19.3443  -44.1503 N.am      9 UNK        -0.5000 
     30 C          -0.1505  -18.6700  -45.2740 C.2       8 UNK         0.5000 
     31 O          -0.8329  -19.1193  -46.1941 O.2       8 UNK        -0.5000 
     32 CA          0.4776  -17.2771  -45.4103 C.3       8 UNK         0.1400 
     33 CB         -0.1441  -16.2893  -44.4091 C.3       8 UNK        -0.1800 
     34 N           1.9245  -17.3651  -45.2232 N.am      8 UNK        -0.5000 
     35 C           2.7680  -17.8110  -46.1667 C.2       7 UNK         0.5000 
     36 O           2.4355  -18.0106  -47.3347 O.2       7 UNK        -0.5000 
     37 CA          4.2150  -18.1258  -45.7391 C.3       7 UNK         0.1400 
     38 CB          5.1915  -17.0349  -46.2009 C.3       7 UNK        -0.1800 
     39 N           4.3556  -18.3242  -44.2959 N.am      7 UNK        -0.5000 
     40 C           3.9870  -19.4419  -43.6540 C.2       6 UNK         0.5000 
     41 O           3.4955  -20.4203  -44.2161 O.2       6 UNK        -0.5000 
     42 CA          4.1420  -19.4455  -42.1209 C.3       6 UNK         0.1400 
     43 CB          5.5628  -19.8700  -41.7221 C.3       6 UNK        -0.1800 
     44 N           3.8315  -18.1522  -41.5069 N.am      6 UNK        -0.5000 
     45 C           2.6430  -17.5394  -41.5859 C.2       5 UNK         0.5000 
     46 O           1.6760  -18.0222  -42.1734 O.2       5 UNK        -0.5000 
     47 CA          2.5043  -16.1466  -40.9438 C.3       5 UNK         0.1400 
     48 CB          3.6141  -15.8139  -39.9220 C.3       5 UNK        -0.1800 
     49 N           2.4024  -15.0845  -41.9499 N.am      5 UNK        -0.5000 
     50 C           3.2973  -14.7704  -42.9020 C.2       4 UNK         0.5000 
     51 O           4.3066  -15.4384  -43.1315 O.2       4 UNK        -0.5000 
     52 CA          3.0406  -13.4943  -43.7373 C.3       4 UNK         0.1400 
     53 CB          2.9443  -13.8008  -45.2408 C.3       4 UNK        -0.1800 
     54 N           1.8469  -12.7505  -43.3282 N.am      4 UNK        -0.5000 
     55 C           1.7614  -11.9605  -42.2487 C.2       3 UNK         0.5000 
     56 O           2.7052  -11.7406  -41.4893 O.2       3 UNK        -0.5000 
     57 CA          0.3897  -11.3208  -41.9554 C.3       3 UNK         0.1400 
     58 CB          0.3961   -9.8350  -42.3461 C.3       3 UNK        -0.1800 
     59 N          -0.7355  -11.9761  -42.6281 N.am      3 UNK        -0.5000 
     60 C          -1.1931  -13.2104  -42.3872 C.2       2 UNK         0.5000 
     61 O          -0.6628  -13.9864  -41.5915 O.2       2 UNK        -0.5000 
     62 CA         -2.4264  -13.6642  -43.1953 C.3       2 UNK         0.1400 
     63 CB         -3.6966  -12.9129  -42.7543 C.3       2 UNK        -0.1800 
     64 N          -2.2473  -13.6032  -44.6530 N.am      2 UNK        -0.5000 
     65 C          -2.0354  -12.5461  -45.4491 C.2       1 UNK         0.5000 
     66 O          -2.0037  -11.3810  -45.0503 O.2       1 UNK        -0.5000 
     67 C          -2.8461  -21.5365  -47.9471 C.2       11 UNK         0.5000 
     68 O          -3.6602  -22.4428  -48.1290 O.2       11 UNK        -0.5000 
     69 N          -3.0111  -20.5699  -47.0344 N.am      12 UNK        -0.5000 
     70 CA         -4.2448  -20.2854  -46.2996 C.3       12 UNK         0.1400 
     71 CB         -4.0538  -18.9968  -45.4856 C.3       12 UNK        -0.1800 
     72 C          -4.7514  -21.4219  -45.3943 C.2       12 UNK         0.5000 
     73 O          -5.9628  -21.5313  -45.2051 O.2       12 UNK        -0.5000 
     74 N          -3.8368  -22.2406  -44.8607 N.am      13 UNK        -0.5000 
     75 CA         -4.1570  -23.3735  -43.9943 C.3       13 UNK         0.1400 
     76 CB         -3.3529  -23.2692  -42.6876 C.3       13 UNK        -0.1800 
     77 C          -3.8734  -24.7005  -44.7101 C.2       13 UNK         0.5000 
     78 O          -4.7334  -25.5807  -44.7098 O.2       13 UNK        -0.5000 
     79 N          -2.6836  -24.8214  -45.3156 N.am      14 UNK        -0.5000 
     80 CA         -2.1878  -26.0571  -45.9248 C.3       14 UNK         0.1400 
     81 CB         -0.6884  -25.9135  -46.2165 C.3       14 UNK        -0.1800 
     82 C          -2.9531  -26.4780  -47.1924 C.2       14 UNK         0.5000 
     83 O          -3.1889  -27.6723  -47.3798 O.2       14 UNK        -0.5000 
     84 N          -3.3419  -25.5011  -48.0231 N.am      15 UNK        -0.5000 
     85 CA         -4.1615  -25.7152  -49.2209 C.3       15 UNK         0.1400 
     86 CB         -3.5506  -24.9307  -50.3953 C.3       15 UNK        -0.1800 
     87 C          -5.6279  -25.2987  -48.9938 C.2       15 UNK         0.5000 
     88 O          -6.4492  -25.4961  -49.8890 O.2       15 UNK        -0.5000 
     89 N          -5.9229  -24.7258  -47.8154 N.am      16 UNK        -0.5000 
     90 CA         -7.1873  -24.0987  -47.4145 C.3       16 UNK         0.1400 
     91 CB         -8.3285  -25.1353  -47.3448 C.3       16 UNK        -0.1800 
     92 C          -7.5298  -22.8619  -48.2756 C.2       16 UNK         0.5000 
     93 O          -8.7022  -22.6223  -48.5713 O.2       16 UNK        -0.5000 
     94 N          -6.4830  -22.1070  -48.6445 N.am      17 UNK        -0.5000 
     95 CA         -6.4481  -20.9466  -49.5383 C.3       17 UNK         0.1400 
     96 CB         -7.4323  -19.8446  -49.0959 C.3       17 UNK        -0.1800 
     97 C          -6.6189  -21.3208  -51.0241 C.2       17 UNK         0.5000 
     98 O          -7.0692  -22.4196  -51.3530 O.2       17 UNK        -0.5000 
     99 N          -6.2314  -20.3806  -51.8988 N.am      18 UNK        -0.5000 
    100 CA        -6.2335  -20.4824  -53.3632 C.3       18 UNK         0.1400 
    101 CB        -7.6776  -20.5279  -53.9065 C.3       18 UNK        -0.1800 
    102 C         -5.3463  -21.6331  -53.8879 C.2       18 UNK         0.5000 
    103 O         -5.7743  -22.4101  -54.7446 O.2       18 UNK        -0.5000 
    104 N         -4.1192  -21.7194  -53.3538 N.am      19 UNK        -0.5000 
    105 CA        -3.0811  -22.6574  -53.7860 C.3       19 UNK         0.1400 
    106 CB        -1.8825  -22.5521  -52.8297 C.3       19 UNK        -0.1800 
    107 C         -2.6219  -22.3924  -55.2327 C.2       19 UNK         0.5000 
    108 O         -2.7074  -21.2555  -55.7072 O.2       19 UNK        -0.5000 
    109 N         -2.1104  -23.4414  -55.8916 N.am      20 UNK        -0.5000 
    110 CA        -1.5725  -23.4118  -57.2538 C.3       20 UNK         0.1400 
    111 CB        -1.1002  -24.8218  -57.6423 C.3       20 UNK        -0.1800 
    112 C         -0.4319  -22.3868  -57.3904 C.2       20 UNK         0.5000 
    113 O          0.6109  -22.5468  -56.7510 O.2       20 UNK        -0.5000 
    114 N         -0.6924  -21.3185  -58.1582 N.am      21 UNK        -0.5000 
    115 CA         0.1614  -20.1389  -58.3537 C.3       21 UNK         0.1400 
    116 CB         1.4019  -20.5112  -59.1927 C.3       21 UNK        -0.1800 
    117 C          0.5292  -19.4119  -57.0380 C.2       21 UNK         0.5000 
    118 O          1.5881  -18.7860  -56.9635 O.2       21 UNK        -0.5000 
    119 N         -0.3388  -19.5286  -56.0211 N.am      22 UNK        -0.5000 
    120 CA        -0.1306  -19.0655  -54.6376 C.3       22 UNK         0.1400 
    121 C          0.9943  -19.8299  -53.8700 C.2       22 UNK         0.5000 
    122 N          1.4376  -20.9979  -54.3238 N.am      22 UNK        -0.7600 
    123 O          1.4535  -19.3814  -52.8238 O.2       22 UNK        -0.5000 
    124 C124       -0.0156  -17.5177  -54.5244 C.3       23 UNK        -0.0398 
    125 S125       -1.5680  -16.6959  -55.0367 S.3       23 UNK        -0.2404 
    126 C126       -1.7220  -15.3193  -53.8469 C.3       23 UNK        -0.0205 
    127 H127       -5.3621  -14.7392  -47.8817 H         1 UNK         0.0600 
    128 H128       -4.7059  -16.3773  -47.8852 H         1 UNK         0.0600 
    129 H129       -4.3146  -15.2704  -49.2061 H         1 UNK         0.0600 
    130 H130       -3.4427  -13.0306  -48.2253 H         1 UNK         0.3000 
    131 H131       -1.7940  -11.8606  -47.4360 H         1 UNK         0.0600 
    132 H132       -0.3567  -14.4899  -46.8265 H         1 UNK         0.0800 
    133 H133        0.3557  -12.9258  -46.5646 H         1 UNK         0.0800 
    134 H134        0.6826  -15.6836  -48.4473 H         1 UNK         0.0800 
    135 H135        1.4743  -15.1053  -49.8810 H         1 UNK         0.0800 
    136 H136        0.0306  -14.4997  -51.9313 H         1 UNK         0.1150 
    137 H137       -3.2988  -17.1311  -52.5335 H         1 UNK         0.1150 
    138 H138       -1.3658  -16.9481  -48.7069 H         1 UNK         0.1150 
    139 H139       -3.3941  -18.2495  -48.9593 H         1 UNK         0.0800 
    140 H140       -4.4025  -17.9805  -50.3586 H         1 UNK         0.0800 
    141 H141       -1.1839  -19.3683  -49.1135 H         1 UNK         0.0800 
    142 H142       -0.6160  -20.3781  -50.4019 H         1 UNK         0.0800 
    143 H143       -1.5716  -22.3696  -49.4306 H         1 UNK         0.0600 
    144 H144       -0.3935  -20.8279  -47.1595 H         1 UNK         0.3000 
    145 H145        1.5691  -23.5256  -46.2795 H         1 UNK         0.0600 
    146 H146        3.6157  -22.1441  -46.3343 H         1 UNK         0.0600 
    147 H147        2.8583  -20.9962  -47.4388 H         1 UNK         0.0600 
    148 H148        3.2134  -22.6367  -47.9696 H         1 UNK         0.0600 
    149 H149        1.7451  -20.9564  -45.2165 H         1 UNK         0.3000 
    150 H150       -1.4409  -20.5945  -43.6842 H         1 UNK         0.0600 
    151 H151       -0.1733  -22.0315  -42.0842 H         1 UNK         0.0600 
    152 H152       -0.0551  -20.3343  -41.6450 H         1 UNK         0.0600 
    153 H153        1.3010  -21.1375  -42.4342 H         1 UNK         0.0600 
    154 H154        0.7177  -18.8804  -43.4513 H         1 UNK         0.3000 
    155 H155        0.2612  -16.9117  -46.4158 H         1 UNK         0.0600 
    156 H156        0.0795  -16.5371  -43.3741 H         1 UNK         0.0600 
    157 H157       -1.2296  -16.2889  -44.5010 H         1 UNK         0.0600 
    158 H158        0.1981  -15.2717  -44.5834 H         1 UNK         0.0600 
    159 H159        2.2657  -17.2832  -44.2757 H         1 UNK         0.3000 
    160 H160        4.4965  -19.0524  -46.2445 H         1 UNK         0.0600 
    161 H161        5.0567  -16.1101  -45.6441 H         1 UNK         0.0600 
    162 H162        5.0607  -16.8081  -47.2598 H         1 UNK         0.0600 
    163 H163        6.2246  -17.3541  -46.0631 H         1 UNK         0.0600 
    164 H164        4.6897  -17.5329  -43.7576 H         1 UNK         0.3000 
    165 H165        3.4420  -20.1806  -41.7193 H         1 UNK         0.0600 
    166 H166        5.6588  -19.9593  -40.6398 H         1 UNK         0.0600 
    167 H167        5.8147  -20.8409  -42.1508 H         1 UNK         0.0600 
    168 H168        6.3096  -19.1542  -42.0682 H         1 UNK         0.0600 
    169 H169        4.5870  -17.6787  -41.0335 H         1 UNK         0.3000 
    170 H170        1.5543  -16.1541  -40.4072 H         1 UNK         0.0600 
    171 H171        3.6745  -16.5761  -39.1440 H         1 UNK         0.0600 
    172 H172        4.5972  -15.7315  -40.3865 H         1 UNK         0.0600 
    173 H173        3.4084  -14.8658  -39.4248 H         1 UNK         0.0600 
    174 H174        1.5727  -14.5092  -41.8775 H         1 UNK         0.3000 
    175 H175        3.9078  -12.8469  -43.5910 H         1 UNK         0.0600 
    176 H176        2.1659  -14.5271  -45.4669 H         1 UNK         0.0600 
    177 H177        2.7391  -12.8972  -45.8149 H         1 UNK         0.0600 
    178 H178        3.8849  -14.2003  -45.6160 H         1 UNK         0.0600 
    179 H179        1.0182  -12.8698  -43.8894 H         1 UNK         0.3000 
    180 H180        0.2230  -11.3923  -40.8787 H         1 UNK         0.0600 
    181 H181       -0.5384   -9.3493  -42.0645 H         1 UNK         0.0600 
    182 H182        0.5320   -9.7037  -43.4204 H         1 UNK         0.0600 
    183 H183        1.2032   -9.2998  -41.8439 H         1 UNK         0.0600 
    184 H184       -1.2081  -11.4440  -43.3549 H         1 UNK         0.3000 
    185 H185       -2.5794  -14.7191  -42.9618 H         1 UNK         0.0600 
    186 H186       -3.6347  -11.8435  -42.9569 H         1 UNK         0.0600 
    187 H187       -4.5777  -13.2989  -43.2669 H         1 UNK         0.0600 
    188 H188       -3.8658  -13.0315  -41.6834 H         1 UNK         0.0600 
    189 H189       -2.3015  -14.5009  -45.1302 H         1 UNK         0.3000 
    190 H190       -2.2505  -19.9119  -46.8721 H         1 UNK         0.3000 
    191 H191       -5.0225  -20.0950  -47.0400 H         1 UNK         0.0600 
    192 H192       -3.7634  -18.1636  -46.1260 H         1 UNK         0.0600 
    193 H193       -3.2847  -19.1139  -44.7216 H         1 UNK         0.0600 
    194 H194       -4.9774  -18.7111  -44.9807 H         1 UNK         0.0600 
    195 H195       -2.8608  -22.1188  -45.1040 H         1 UNK         0.3000 
    196 H196       -5.2155  -23.3682  -43.7256 H         1 UNK         0.0600 
    197 H197       -3.5641  -22.3331  -42.1706 H         1 UNK         0.0600 
    198 H198       -2.2781  -23.3197  -42.8595 H         1 UNK         0.0600 
    199 H199       -3.6117  -24.0815  -42.0075 H         1 UNK         0.0600 
    200 H200       -2.0214  -24.0509  -45.2535 H         1 UNK         0.3000 
    201 H201       -2.3079  -26.8564  -45.1902 H         1 UNK         0.0600 
    202 H202       -0.1309  -25.6539  -45.3163 H         1 UNK         0.0600 
    203 H203       -0.5039  -25.1413  -46.9605 H         1 UNK         0.0600 
    204 H204       -0.2735  -26.8457  -46.6017 H         1 UNK         0.0600 
    205 H205       -3.1179  -24.5383  -47.8027 H         1 UNK         0.3000 
    206 H206       -4.1657  -26.7717  -49.4961 H         1 UNK         0.0600 
    207 H207       -3.6496  -23.8545  -50.2604 H         1 UNK         0.0600 
    208 H208       -2.4924  -25.1603  -50.5207 H         1 UNK         0.0600 
    209 H209       -4.0509  -25.1817  -51.3313 H         1 UNK         0.0600 
    210 H210       -5.1713  -24.6504  -47.1461 H         1 UNK         0.3000 
    211 H211       -7.0293  -23.7269  -46.4016 H         1 UNK         0.0600 
    212 H212       -8.6062  -25.5029  -48.3328 H         1 UNK         0.0600 
    213 H213       -9.2224  -24.6998  -46.8970 H         1 UNK         0.0600 
    214 H214       -8.0451  -25.9923  -46.7338 H         1 UNK         0.0600 
    215 H215       -5.5615  -22.4376  -48.3720 H         1 UNK         0.3000 
    216 H216       -5.4422  -20.5443  -49.4297 H         1 UNK         0.0600 
    217 H217       -7.2414  -18.9129  -49.6290 H         1 UNK         0.0600 
    218 H218       -7.3374  -19.6321  -48.0310 H         1 UNK         0.0600 
    219 H219       -8.4685  -20.1203  -49.2927 H         1 UNK         0.0600 
    220 H220       -5.8656  -19.5137  -51.5334 H         1 UNK         0.3000 
    221 H221       -5.7779  -19.5626  -53.7332 H         1 UNK         0.0600 
    222 H222       -8.1930  -21.4438  -53.6161 H         1 UNK         0.0600 
    223 H223       -8.2627  -19.6840  -53.5412 H         1 UNK         0.0600 
    224 H224       -7.6861  -20.4803  -54.9960 H         1 UNK         0.0600 
    225 H225       -3.8461  -21.0395  -52.6583 H         1 UNK         0.3000 
    226 H226       -3.4932  -23.6668  -53.7268 H         1 UNK         0.0600 
    227 H227       -2.1765  -22.7529  -51.8010 H         1 UNK         0.0600 
    228 H228       -1.1054  -23.2718  -53.0899 H         1 UNK         0.0600 
    229 H229       -1.4305  -21.5604  -52.8590 H         1 UNK         0.0600 
    230 H230       -2.0469  -24.3284  -55.4139 H         1 UNK         0.3000 
    231 H231       -2.3861  -23.1309  -57.9257 H         1 UNK         0.0600 
    232 H232       -0.6985  -24.8324  -58.6563 H         1 UNK         0.0600 
    233 H233       -1.9228  -25.5366  -57.6121 H         1 UNK         0.0600 
    234 H234       -0.3163  -25.1832  -56.9752 H         1 UNK         0.0600 
    235 H235       -1.6009  -21.2645  -58.5979 H         1 UNK         0.3000 
    236 H236       -0.4280  -19.4274  -58.9335 H         1 UNK         0.0600 
    237 H237        2.0741  -21.1744  -58.6472 H         1 UNK         0.0600 
    238 H238        1.1166  -21.0106  -60.1185 H         1 UNK         0.0600 
    239 H239        1.9713  -19.6229  -59.4685 H         1 UNK         0.0600 
    240 H240       -1.1823  -20.0763  -56.1624 H         1 UNK         0.3000 
    241 H241       -1.0385  -19.3518  -54.1051 H         1 UNK         0.0600 
    242 H242        2.1568  -21.4803  -53.8096 H         1 UNK         0.3800 
    243 H243        1.0861  -21.4026  -55.1855 H         1 UNK         0.3800 
    244 H244        0.8069  -17.1337  -55.1276 H         1 UNK         0.0800 
    245 H245        0.2173  -17.2326  -53.4992 H         1 UNK         0.0800 
    246 H246       -2.6750  -14.8155  -54.0130 H         1 UNK         0.0800 
    247 H247       -0.9454  -14.5850  -54.0667 H         1 UNK         0.0800 
@<TRIPOS>BOND
     1    1    2 1    
     2    1  127 1    
     3    1  128 1    
     4    1  129 1    
     5    2    3 2    
     6    2    4 am   BACKBONE|DICT|INTERRES
     7    4    5 1    
     8    4  130 1    
     9    5    6 1    
    10    5   65 1    
    11    5  131 1    
    12    6    7 1    
    13    6  132 1    
    14    6  133 1    
    15    7    8 1    
    16    8    9 1    
    17    8  134 1    
    18    8  135 1    
    19    9   10 ar   
    20    9   14 ar   
    21   10   11 ar   
    22   10  136 1    
    23   11   12 ar   
    24   11  126 1    
    25   12   13 ar   
    26   12  137 1    
    27   13   14 ar   
    28   13   15 1    
    29   14  138 1    
    30   15   16 1    
    31   15  139 1    
    32   15  140 1    
    33   16   17 1    
    34   17   18 1    
    35   17  141 1    
    36   17  142 1    
    37   18   19 1    
    38   18   67 1    
    39   18  143 1    
    40   19   20 am   BACKBONE|DICT|INTERRES
    41   19  144 1    
    42   20   21 2    
    43   20   22 1    
    44   22   23 1    
    45   22   24 1    
    46   22  145 1    
    47   23  146 1    
    48   23  147 1    
    49   23  148 1    
    50   24   25 am   BACKBONE|DICT|INTERRES
    51   24  149 1    
    52   25   26 2    
    53   25   27 1    
    54   27   28 1    
    55   27   29 1    
    56   27  150 1    
    57   28  151 1    
    58   28  152 1    
    59   28  153 1    
    60   29   30 am   BACKBONE|DICT|INTERRES
    61   29  154 1    
    62   30   31 2    
    63   30   32 1    
    64   32   33 1    
    65   32   34 1    
    66   32  155 1    
    67   33  156 1    
    68   33  157 1    
    69   33  158 1    
    70   34   35 am   BACKBONE|DICT|INTERRES
    71   34  159 1    
    72   35   36 2    
    73   35   37 1    
    74   37   38 1    
    75   37   39 1    
    76   37  160 1    
    77   38  161 1    
    78   38  162 1    
    79   38  163 1    
    80   39   40 am   BACKBONE|DICT|INTERRES
    81   39  164 1    
    82   40   41 2    
    83   40   42 1    
    84   42   43 1    
    85   42   44 1    
    86   42  165 1    
    87   43  166 1    
    88   43  167 1    
    89   43  168 1    
    90   44   45 am   BACKBONE|DICT|INTERRES
    91   44  169 1    
    92   45   46 2    
    93   45   47 1    
    94   47   48 1    
    95   47   49 1    
    96   47  170 1    
    97   48  171 1    
    98   48  172 1    
    99   48  173 1    
   100   49   50 am   BACKBONE|DICT|INTERRES
   101   49  174 1    
   102   50   51 2    
   103   50   52 1    
   104   52   53 1    
   105   52   54 1    
   106   52  175 1    
   107   53  176 1    
   108   53  177 1    
   109   53  178 1    
   110   54   55 am   BACKBONE|DICT|INTERRES
   111   54  179 1    
   112   55   56 2    
   113   55   57 1    
   114   57   58 1    
   115   57   59 1    
   116   57  180 1    
   117   58  181 1    
   118   58  182 1    
   119   58  183 1    
   120   59   60 am   BACKBONE|DICT|INTERRES
   121   59  184 1    
   122   60   61 2    
   123   60   62 1    
   124   62   63 1    
   125   62   64 1    
   126   62  185 1    
   127   63  186 1    
   128   63  187 1    
   129   63  188 1    
   130   64   65 am   BACKBONE|DICT|INTERRES
   131   64  189 1    
   132   65   66 2    
   133   67   68 2    
   134   67   69 am   BACKBONE|DICT|INTERRES
   135   69   70 1    
   136   69  190 1    
   137   70   71 1    
   138   70   72 1    
   139   70  191 1    
   140   71  192 1    
   141   71  193 1    
   142   71  194 1    
   143   72   73 2    
   144   72   74 am   BACKBONE|DICT|INTERRES
   145   74   75 1    
   146   74  195 1    
   147   75   76 1    
   148   75   77 1    
   149   75  196 1    
   150   76  197 1    
   151   76  198 1    
   152   76  199 1    
   153   77   78 2    
   154   77   79 am   BACKBONE|DICT|INTERRES
   155   79   80 1    
   156   79  200 1    
   157   80   81 1    
   158   80   82 1    
   159   80  201 1    
   160   81  202 1    
   161   81  203 1    
   162   81  204 1    
   163   82   83 2    
   164   82   84 am   BACKBONE|DICT|INTERRES
   165   84   85 1    
   166   84  205 1    
   167   85   86 1    
   168   85   87 1    
   169   85  206 1    
   170   86  207 1    
   171   86  208 1    
   172   86  209 1    
   173   87   88 2    
   174   87   89 am   BACKBONE|DICT|INTERRES
   175   89   90 1    
   176   89  210 1    
   177   90   91 1    
   178   90   92 1    
   179   90  211 1    
   180   91  212 1    
   181   91  213 1    
   182   91  214 1    
   183   92   93 2    
   184   92   94 am   BACKBONE|DICT|INTERRES
   185   94   95 1    
   186   94  215 1    
   187   95   96 1    
   188   95   97 1    
   189   95  216 1    
   190   96  217 1    
   191   96  218 1    
   192   96  219 1    
   193   97   98 2    
   194   97   99 am   BACKBONE|DICT|INTERRES
   195   99  100 1    
   196   99  220 1    
   197  100  101 1    
   198  100  102 1    
   199  100  221 1    
   200  101  222 1    
   201  101  223 1    
   202  101  224 1    
   203  102  103 2    
   204  102  104 am   BACKBONE|DICT|INTERRES
   205  104  105 1    
   206  104  225 1    
   207  105  106 1    
   208  105  107 1    
   209  105  226 1    
   210  106  227 1    
   211  106  228 1    
   212  106  229 1    
   213  107  108 2    
   214  107  109 am   BACKBONE|DICT|INTERRES
   215  109  110 1    
   216  109  230 1    
   217  110  111 1    
   218  110  112 1    
   219  110  231 1    
   220  111  232 1    
   221  111  233 1    
   222  111  234 1    
   223  112  113 2    
   224  112  114 am   BACKBONE|DICT|INTERRES
   225  114  115 1    
   226  114  235 1    
   227  115  116 1    
   228  115  117 1    
   229  115  236 1    
   230  116  237 1    
   231  116  238 1    
   232  116  239 1    
   233  117  118 2    
   234  117  119 am   BACKBONE|DICT|INTERRES
   235  119  120 1    
   236  119  240 1    
   237  120  121 1    
   238  120  124 1    
   239  120  241 1    
   240  121  122 am   BACKBONE|DICT|INTERRES
   241  121  123 2    
   242  122  242 1    
   243  122  243 1    
   244  124  125 1    
   245  124  244 1    
   246  124  245 1    
   247  125  126 1    
   248  126  246 1    
   249  126  247 1    
@<TRIPOS>SUBSTRUCTURE
     1 UNK         1 GROUP             0       ****    0 ROOT    
