@<TRIPOS>MOLECULE
3R540
247   249    1
SMALL
USER_CHARGES


@<TRIPOS>ATOM
      1 CA          7.7615  -12.5868  -47.3218 C.3       0 UNK        -0.1800 
      2 C           6.3808  -13.1902  -47.1049 C.2       0 UNK         0.5000 
      3 O           5.4001  -12.4509  -47.0151 O.2       0 UNK        -0.5000 
      4 N           6.3053  -14.5269  -47.0293 N.am      1 UNK        -0.5000 
      5 CA          5.0954  -15.3189  -46.7668 C.3       1 UNK         0.1400 
      6 C6          3.9725  -15.0651  -47.8170 C.3       23 UNK        -0.0398 
      7 S7          2.9595  -16.5461  -48.1604 S.3       23 UNK        -0.2404 
      8 C8          3.3360  -16.8019  -49.9214 C.3       23 UNK        -0.0205 
      9 C9          2.5263  -17.9492  -50.4994 C.ar      23 UNK        -0.0193 
     10 C10         1.2450  -17.7184  -51.0069 C.ar      23 UNK        -0.1150 
     11 C11         0.4892  -18.7696  -51.5342 C.ar      23 UNK        -0.0193 
     12 C12         1.0313  -20.0588  -51.5599 C.ar      23 UNK        -0.1150 
     13 C13         2.3208  -20.2979  -51.0742 C.ar      23 UNK        -0.0193 
     14 C14         3.0606  -19.2393  -50.5395 C.ar      23 UNK        -0.1150 
     15 C15         2.9328  -21.6897  -51.1556 C.3       23 UNK        -0.0205 
     16 S16         3.1220  -22.4665  -49.5204 S.3       23 UNK        -0.2404 
     17 C17         1.3950  -22.9004  -49.1342 C.3       23 UNK        -0.0398 
     18 CA          1.1851  -23.2164  -47.6323 C.3       11 UNK         0.1400 
     19 N           1.4022  -22.0358  -46.7975 N.am      11 UNK        -0.5000 
     20 C           2.4022  -21.8606  -45.9240 C.2       10 UNK         0.5000 
     21 O           3.2671  -22.7053  -45.6911 O.2       10 UNK        -0.5000 
     22 CA          2.4393  -20.5144  -45.1697 C.3       10 UNK         0.1400 
     23 CB          3.4295  -19.5582  -45.8538 C.3       10 UNK        -0.1800 
     24 N           1.1309  -19.8606  -45.0862 N.am      10 UNK        -0.5000 
     25 C           0.0610  -20.3503  -44.4427 C.2       9 UNK         0.5000 
     26 O           0.0916  -21.3675  -43.7507 O.2       9 UNK        -0.5000 
     27 CA         -1.2805  -19.6201  -44.6577 C.3       9 UNK         0.1400 
     28 CB         -1.6268  -18.7513  -43.4417 C.3       9 UNK        -0.1800 
     29 N          -1.3277  -18.7948  -45.8692 N.am      9 UNK        -0.5000 
     30 C          -1.2051  -19.2381  -47.1267 C.2       8 UNK         0.5000 
     31 O          -1.0091  -20.4203  -47.4093 O.2       8 UNK        -0.5000 
     32 CA         -1.2515  -18.1968  -48.2603 C.3       8 UNK         0.1400 
     33 CB         -2.6808  -18.0315  -48.8047 C.3       8 UNK        -0.1800 
     34 N          -0.6432  -16.8933  -47.9495 N.am      8 UNK        -0.5000 
     35 C          -1.0611  -15.9455  -47.0977 C.2       7 UNK         0.5000 
     36 O          -2.0251  -16.0874  -46.3432 O.2       7 UNK        -0.5000 
     37 CA         -0.2038  -14.6636  -47.0431 C.3       7 UNK         0.1400 
     38 CB          0.1367  -14.1033  -48.4432 C.3       7 UNK        -0.1800 
     39 N          -0.7742  -13.6249  -46.1795 N.am      7 UNK        -0.5000 
     40 C          -1.8649  -12.8725  -46.3942 C.2       6 UNK         0.5000 
     41 O          -2.5630  -12.9351  -47.4081 O.2       6 UNK        -0.5000 
     42 CA         -2.2026  -11.8522  -45.2849 C.3       6 UNK         0.1400 
     43 CB         -3.5923  -11.1996  -45.4455 C.3       6 UNK        -0.1800 
     44 N          -2.0195  -12.4030  -43.9389 N.am      6 UNK        -0.5000 
     45 C          -2.7081  -13.4022  -43.3633 C.2       5 UNK         0.5000 
     46 O          -3.6920  -13.9391  -43.8727 O.2       5 UNK        -0.5000 
     47 CA         -2.2145  -13.9001  -41.9887 C.3       5 UNK         0.1400 
     48 CB         -1.9384  -15.4120  -42.0293 C.3       5 UNK        -0.1800 
     49 N          -0.9882  -13.2219  -41.5660 N.am      5 UNK        -0.5000 
     50 C          -0.9209  -12.2041  -40.6979 C.2       4 UNK         0.5000 
     51 O          -1.8979  -11.7459  -40.1048 O.2       4 UNK        -0.5000 
     52 CA          0.4699  -11.5785  -40.4582 C.3       4 UNK         0.1400 
     53 CB          1.0924  -12.1367  -39.1693 C.3       4 UNK        -0.1800 
     54 N           1.4102  -11.7828  -41.5643 N.am      4 UNK        -0.5000 
     55 C           1.2861  -11.2510  -42.7883 C.2       3 UNK         0.5000 
     56 O           0.3624  -10.5079  -43.1199 O.2       3 UNK        -0.5000 
     57 CA          2.3289  -11.6793  -43.8386 C.3       3 UNK         0.1400 
     58 CB          3.5512  -10.7509  -43.8007 C.3       3 UNK        -0.1800 
     59 N           2.7771  -13.0703  -43.7112 N.am      3 UNK        -0.5000 
     60 C           1.9858  -14.1500  -43.7384 C.2       2 UNK         0.5000 
     61 O           0.7573  -14.0849  -43.7992 O.2       2 UNK        -0.5000 
     62 CA          2.6906  -15.5202  -43.7566 C.3       2 UNK         0.1400 
     63 CB          1.7048  -16.6882  -43.5795 C.3       2 UNK        -0.1800 
     64 N           3.4122  -15.6960  -45.0165 N.am      2 UNK        -0.5000 
     65 C           4.6003  -15.1532  -45.3081 C.2       1 UNK         0.5000 
     66 O           5.2777  -14.5433  -44.4751 O.2       1 UNK        -0.5000 
     67 C          -0.2062  -23.8188  -47.3358 C.2       11 UNK         0.5000 
     68 O          -0.8035  -24.4548  -48.2074 O.2       11 UNK        -0.5000 
     69 N          -0.7015  -23.6522  -46.0979 N.am      12 UNK        -0.5000 
     70 CA         -1.9686  -24.2200  -45.6218 C.3       12 UNK         0.1400 
     71 CB         -2.2690  -23.7076  -44.2066 C.3       12 UNK        -0.1800 
     72 C          -2.0012  -25.7608  -45.6540 C.2       12 UNK         0.5000 
     73 O          -3.0646  -26.3380  -45.8767 O.2       12 UNK        -0.5000 
     74 N          -0.8302  -26.3968  -45.5040 N.am      13 UNK        -0.5000 
     75 CA         -0.6291  -27.8419  -45.6493 C.3       13 UNK         0.1400 
     76 CB          0.7922  -28.1948  -45.1856 C.3       13 UNK        -0.1800 
     77 C          -0.8713  -28.3582  -47.0843 C.2       13 UNK         0.5000 
     78 O          -1.2047  -29.5310  -47.2553 O.2       13 UNK        -0.5000 
     79 N          -0.7258  -27.4734  -48.0806 N.am      14 UNK        -0.5000 
     80 CA         -1.0357  -27.7220  -49.4898 C.3       14 UNK         0.1400 
     81 CB          0.0439  -27.0467  -50.3537 C.3       14 UNK        -0.1800 
     82 C          -2.4438  -27.2134  -49.8681 C.2       14 UNK         0.5000 
     83 O          -2.7967  -27.2477  -51.0473 O.2       14 UNK        -0.5000 
     84 N          -3.2112  -26.7350  -48.8745 N.am      15 UNK        -0.5000 
     85 CA         -4.5454  -26.1349  -48.9715 C.3       15 UNK         0.1400 
     86 CB         -5.5787  -27.1500  -49.5022 C.3       15 UNK        -0.1800 
     87 C          -4.5709  -24.8005  -49.7444 C.2       15 UNK         0.5000 
     88 O          -5.6293  -24.4026  -50.2340 O.2       15 UNK        -0.5000 
     89 N          -3.4284  -24.0996  -49.8164 N.am      16 UNK        -0.5000 
     90 CA         -3.2783  -22.8443  -50.5586 C.3       16 UNK         0.1400 
     91 CB         -1.8089  -22.4197  -50.5478 C.3       16 UNK        -0.1800 
     92 C          -4.1569  -21.7034  -50.0172 C.2       16 UNK         0.5000 
     93 O          -4.6429  -20.8881  -50.7996 O.2       16 UNK        -0.5000 
     94 N          -4.3732  -21.6944  -48.6953 N.am      17 UNK        -0.5000 
     95 CA         -5.2526  -20.7578  -47.9958 C.3       17 UNK         0.1400 
     96 CB         -4.9983  -20.8731  -46.4854 C.3       17 UNK        -0.1800 
     97 C          -6.7449  -20.9633  -48.3210 C.2       17 UNK         0.5000 
     98 O          -7.5071  -19.9975  -48.2783 O.2       17 UNK        -0.5000 
     99 N          -7.1328  -22.2032  -48.6511 N.am      18 UNK        -0.5000 
    100 CA        -8.4824  -22.5505  -49.0943 C.3       18 UNK         0.1400 
    101 CB        -8.7796  -24.0159  -48.7387 C.3       18 UNK        -0.1800 
    102 C         -8.6515  -22.3064  -50.6034 C.2       18 UNK         0.5000 
    103 O         -9.6978  -21.8116  -51.0241 O.2       18 UNK        -0.5000 
    104 N         -7.6183  -22.6496  -51.3866 N.am      19 UNK        -0.5000 
    105 CA        -7.5768  -22.4772  -52.8390 C.3       19 UNK         0.1400 
    106 CB        -6.3676  -23.2379  -53.4045 C.3       19 UNK        -0.1800 
    107 C         -7.5274  -21.0025  -53.2772 C.2       19 UNK         0.5000 
    108 O         -8.0910  -20.6659  -54.3186 O.2       19 UNK        -0.5000 
    109 N         -6.8276  -20.1628  -52.4990 N.am      20 UNK        -0.5000 
    110 CA        -6.6007  -18.7167  -52.6480 C.3       20 UNK         0.1400 
    111 CB        -7.9293  -17.9380  -52.6463 C.3       20 UNK        -0.1800 
    112 C         -5.7181  -18.3157  -53.8494 C.2       20 UNK         0.5000 
    113 O         -4.9732  -17.3411  -53.7508 O.2       20 UNK        -0.5000 
    114 N         -5.7864  -19.0807  -54.9448 N.am      21 UNK        -0.5000 
    115 CA        -4.9893  -18.9265  -56.1640 C.3       21 UNK         0.1400 
    116 CB        -5.7348  -19.6215  -57.3153 C.3       21 UNK        -0.1800 
    117 C         -3.5492  -19.4713  -56.0387 C.2       21 UNK         0.5000 
    118 O         -2.7781  -19.3488  -56.9911 O.2       21 UNK        -0.5000 
    119 N         -3.2197  -20.0731  -54.8873 N.am      22 UNK        -0.5000 
    120 CA        -1.9149  -20.6652  -54.5354 C.3       22 UNK         0.1400 
    121 C         -1.6037  -22.0232  -55.2344 C.2       22 UNK         0.5000 
    122 N         -2.5556  -22.6589  -55.9067 N.am      22 UNK        -0.7600 
    123 O         -0.4900  -22.5308  -55.1376 O.2       22 UNK        -0.5000 
    124 C124       -0.7153  -19.6728  -54.6249 C.3       23 UNK        -0.0398 
    125 S125       -0.9879  -18.0672  -53.7950 S.3       23 UNK        -0.2404 
    126 C126       -0.9257  -18.5082  -52.0317 C.3       23 UNK        -0.0205 
    127 H127        8.0156  -11.9262  -46.4928 H         1 UNK         0.0600 
    128 H128        7.7753  -12.0022  -48.2417 H         1 UNK         0.0600 
    129 H129        8.5332  -13.3535  -47.3944 H         1 UNK         0.0600 
    130 H130        7.1599  -15.0629  -47.0864 H         1 UNK         0.3000 
    131 H131        5.4207  -16.3566  -46.8561 H         1 UNK         0.0600 
    132 H132        3.3181  -14.2451  -47.5144 H         1 UNK         0.0800 
    133 H133        4.4175  -14.7354  -48.7567 H         1 UNK         0.0800 
    134 H134        4.4034  -16.9957  -50.0399 H         1 UNK         0.0800 
    135 H135        3.1233  -15.8875  -50.4777 H         1 UNK         0.0800 
    136 H136        0.8312  -16.7200  -50.9833 H         1 UNK         0.1150 
    137 H137        0.4554  -20.8765  -51.9677 H         1 UNK         0.1150 
    138 H138        4.0549  -19.4220  -50.1566 H         1 UNK         0.1150 
    139 H139        3.9160  -21.6149  -51.6220 H         1 UNK         0.0800 
    140 H140        2.3402  -22.3408  -51.8003 H         1 UNK         0.0800 
    141 H141        1.1243  -23.7503  -49.7624 H         1 UNK         0.0800 
    142 H142        0.7577  -22.0686  -49.4307 H         1 UNK         0.0800 
    143 H143        1.8927  -24.0016  -47.3592 H         1 UNK         0.0600 
    144 H144        0.7076  -21.3035  -46.9087 H         1 UNK         0.3000 
    145 H145        2.7874  -20.7098  -44.1535 H         1 UNK         0.0600 
    146 H146        4.4249  -20.0009  -45.9080 H         1 UNK         0.0600 
    147 H147        3.5247  -18.6211  -45.3072 H         1 UNK         0.0600 
    148 H148        3.1214  -19.3262  -46.8743 H         1 UNK         0.0600 
    149 H149        1.0052  -19.0287  -45.6418 H         1 UNK         0.3000 
    150 H150       -2.0514  -20.3848  -44.7576 H         1 UNK         0.0600 
    151 H151       -0.8842  -17.9707  -43.2851 H         1 UNK         0.0600 
    152 H152       -1.6689  -19.3507  -42.5313 H         1 UNK         0.0600 
    153 H153       -2.5989  -18.2726  -43.5611 H         1 UNK         0.0600 
    154 H154       -1.5398  -17.8075  -45.7497 H         1 UNK         0.3000 
    155 H155       -0.6441  -18.6130  -49.0615 H         1 UNK         0.0600 
    156 H156       -3.3896  -17.7779  -48.0156 H         1 UNK         0.0600 
    157 H157       -3.0190  -18.9554  -49.2727 H         1 UNK         0.0600 
    158 H158       -2.7330  -17.2489  -49.5611 H         1 UNK         0.0600 
    159 H159        0.2025  -16.7008  -48.4681 H         1 UNK         0.3000 
    160 H160        0.7345  -14.9499  -46.5675 H         1 UNK         0.0600 
    161 H161       -0.7590  -13.9019  -49.0310 H         1 UNK         0.0600 
    162 H162        0.7457  -14.7975  -49.0207 H         1 UNK         0.0600 
    163 H163        0.7028  -13.1749  -48.3671 H         1 UNK         0.0600 
    164 H164       -0.3331  -13.5596  -45.2664 H         1 UNK         0.3000 
    165 H165       -1.4627  -11.0562  -45.3807 H         1 UNK         0.0600 
    166 H166       -3.6580  -10.6531  -46.3869 H         1 UNK         0.0600 
    167 H167       -4.3939  -11.9383  -45.4436 H         1 UNK         0.0600 
    168 H168       -3.7887  -10.4876  -44.6439 H         1 UNK         0.0600 
    169 H169       -1.2398  -12.0160  -43.4226 H         1 UNK         0.3000 
    170 H170       -3.0144  -13.7191  -41.2681 H         1 UNK         0.0600 
    171 H171       -1.5610  -15.7740  -41.0730 H         1 UNK         0.0600 
    172 H172       -1.2059  -15.6598  -42.7973 H         1 UNK         0.0600 
    173 H173       -2.8476  -15.9714  -42.2524 H         1 UNK         0.0600 
    174 H174       -0.1464  -13.5101  -42.0516 H         1 UNK         0.3000 
    175 H175        0.3270  -10.5032  -40.3319 H         1 UNK         0.0600 
    176 H176        0.4333  -11.9758  -38.3151 H         1 UNK         0.0600 
    177 H177        1.2772  -13.2091  -39.2438 H         1 UNK         0.0600 
    178 H178        2.0395  -11.6464  -38.9435 H         1 UNK         0.0600 
    179 H179        2.1942  -12.3936  -41.3867 H         1 UNK         0.3000 
    180 H180        1.8589  -11.5808  -44.8194 H         1 UNK         0.0600 
    181 H181        4.0912  -10.8348  -42.8568 H         1 UNK         0.0600 
    182 H182        3.2549   -9.7078  -43.9194 H         1 UNK         0.0600 
    183 H183        4.2471  -10.9838  -44.6074 H         1 UNK         0.0600 
    184 H184        3.7791  -13.2256  -43.7144 H         1 UNK         0.3000 
    185 H185        3.3950  -15.5456  -42.9225 H         1 UNK         0.0600 
    186 H186        2.2302  -17.6405  -43.5165 H         1 UNK         0.0600 
    187 H187        1.1347  -16.5782  -42.6563 H         1 UNK         0.0600 
    188 H188        0.9925  -16.7470  -44.4033 H         1 UNK         0.0600 
    189 H189        2.9183  -16.1757  -45.7559 H         1 UNK         0.3000 
    190 H190       -0.1668  -23.1125  -45.4302 H         1 UNK         0.3000 
    191 H191       -2.7599  -23.8659  -46.2857 H         1 UNK         0.0600 
    192 H192       -2.4027  -22.6272  -44.1988 H         1 UNK         0.0600 
    193 H193       -3.1886  -24.1460  -43.8166 H         1 UNK         0.0600 
    194 H194       -1.4660  -23.9522  -43.5102 H         1 UNK         0.0600 
    195 H195       -0.0073  -25.8430  -45.3171 H         1 UNK         0.3000 
    196 H196       -1.3405  -28.3488  -44.9939 H         1 UNK         0.0600 
    197 H197        0.9699  -29.2690  -45.2525 H         1 UNK         0.0600 
    198 H198        0.9521  -27.9051  -44.1468 H         1 UNK         0.0600 
    199 H199        1.5491  -27.6983  -45.7942 H         1 UNK         0.0600 
    200 H200       -0.4897  -26.5152  -47.8536 H         1 UNK         0.3000 
    201 H201       -1.0114  -28.7941  -49.6950 H         1 UNK         0.0600 
    202 H202       -0.0940  -27.2838  -51.4092 H         1 UNK         0.0600 
    203 H203        1.0419  -27.3849  -50.0748 H         1 UNK         0.0600 
    204 H204        0.0181  -25.9612  -50.2580 H         1 UNK         0.0600 
    205 H205       -2.8341  -26.7640  -47.9351 H         1 UNK         0.3000 
    206 H206       -4.8345  -25.8860  -47.9498 H         1 UNK         0.0600 
    207 H207       -5.5381  -28.0838  -48.9415 H         1 UNK         0.0600 
    208 H208       -6.5933  -26.7617  -49.4080 H         1 UNK         0.0600 
    209 H209       -5.4173  -27.3820  -50.5551 H         1 UNK         0.0600 
    210 H210       -2.5953  -24.4648  -49.3683 H         1 UNK         0.3000 
    211 H211       -3.5697  -23.0343  -51.5928 H         1 UNK         0.0600 
    212 H212       -1.1579  -23.2180  -50.9046 H         1 UNK         0.0600 
    213 H213       -1.6525  -21.5568  -51.1906 H         1 UNK         0.0600 
    214 H214       -1.4944  -22.1386  -49.5434 H         1 UNK         0.0600 
    215 H215       -3.9167  -22.3976  -48.1346 H         1 UNK         0.3000 
    216 H216       -4.9947  -19.7452  -48.3083 H         1 UNK         0.0600 
    217 H217       -5.2264  -21.8724  -46.1124 H         1 UNK         0.0600 
    218 H218       -5.6146  -20.1652  -45.9299 H         1 UNK         0.0600 
    219 H219       -3.9581  -20.6543  -46.2459 H         1 UNK         0.0600 
    220 H220       -6.4361  -22.9319  -48.7161 H         1 UNK         0.3000 
    221 H221       -9.2079  -21.9264  -48.5677 H         1 UNK         0.0600 
    222 H222       -8.1056  -24.7043  -49.2484 H         1 UNK         0.0600 
    223 H223       -8.6862  -24.1877  -47.6663 H         1 UNK         0.0600 
    224 H224       -9.7973  -24.2852  -49.0236 H         1 UNK         0.0600 
    225 H225       -6.8244  -23.1220  -50.9630 H         1 UNK         0.3000 
    226 H226       -8.4841  -22.9189  -53.2562 H         1 UNK         0.0600 
    227 H227       -6.3998  -24.2926  -53.1300 H         1 UNK         0.0600 
    228 H228       -6.3472  -23.1852  -54.4938 H         1 UNK         0.0600 
    229 H229       -5.4273  -22.8255  -53.0391 H         1 UNK         0.0600 
    230 H230       -6.3142  -20.5750  -51.7247 H         1 UNK         0.3000 
    231 H231       -6.0494  -18.4215  -51.7536 H         1 UNK         0.0600 
    232 H232       -8.5300  -18.1523  -53.5305 H         1 UNK         0.0600 
    233 H233       -7.7485  -16.8626  -52.6300 H         1 UNK         0.0600 
    234 H234       -8.5262  -18.1811  -51.7671 H         1 UNK         0.0600 
    235 H235       -6.4848  -19.8177  -54.9452 H         1 UNK         0.3000 
    236 H236       -4.9129  -17.8627  -56.3978 H         1 UNK         0.0600 
    237 H237       -5.8416  -20.6921  -57.1363 H         1 UNK         0.0600 
    238 H238       -6.7329  -19.2031  -57.4474 H         1 UNK         0.0600 
    239 H239       -5.2055  -19.4967  -58.2608 H         1 UNK         0.0600 
    240 H240       -3.9297  -20.1223  -54.1723 H         1 UNK         0.3000 
    241 H241       -2.0187  -20.9393  -53.4869 H         1 UNK         0.0600 
    242 H242       -2.3457  -23.5419  -56.3452 H         1 UNK         0.3800 
    243 H243       -3.4750  -22.2595  -55.9982 H         1 UNK         0.3800 
    244 H244       -0.4836  -19.4636  -55.6699 H         1 UNK         0.0800 
    245 H245        0.1897  -20.1222  -54.2165 H         1 UNK         0.0800 
    246 H246       -1.3555  -17.6776  -51.4716 H         1 UNK         0.0800 
    247 H247       -1.5735  -19.3600  -51.8314 H         1 UNK         0.0800 
@<TRIPOS>BOND
     1    1    2 1    
     2    1  127 1    
     3    1  128 1    
     4    1  129 1    
     5    2    3 2    
     6    2    4 am   BACKBONE|DICT|INTERRES
     7    4    5 1    
     8    4  130 1    
     9    5    6 1    
    10    5   65 1    
    11    5  131 1    
    12    6    7 1    
    13    6  132 1    
    14    6  133 1    
    15    7    8 1    
    16    8    9 1    
    17    8  134 1    
    18    8  135 1    
    19    9   10 ar   
    20    9   14 ar   
    21   10   11 ar   
    22   10  136 1    
    23   11   12 ar   
    24   11  126 1    
    25   12   13 ar   
    26   12  137 1    
    27   13   14 ar   
    28   13   15 1    
    29   14  138 1    
    30   15   16 1    
    31   15  139 1    
    32   15  140 1    
    33   16   17 1    
    34   17   18 1    
    35   17  141 1    
    36   17  142 1    
    37   18   19 1    
    38   18   67 1    
    39   18  143 1    
    40   19   20 am   BACKBONE|DICT|INTERRES
    41   19  144 1    
    42   20   21 2    
    43   20   22 1    
    44   22   23 1    
    45   22   24 1    
    46   22  145 1    
    47   23  146 1    
    48   23  147 1    
    49   23  148 1    
    50   24   25 am   BACKBONE|DICT|INTERRES
    51   24  149 1    
    52   25   26 2    
    53   25   27 1    
    54   27   28 1    
    55   27   29 1    
    56   27  150 1    
    57   28  151 1    
    58   28  152 1    
    59   28  153 1    
    60   29   30 am   BACKBONE|DICT|INTERRES
    61   29  154 1    
    62   30   31 2    
    63   30   32 1    
    64   32   33 1    
    65   32   34 1    
    66   32  155 1    
    67   33  156 1    
    68   33  157 1    
    69   33  158 1    
    70   34   35 am   BACKBONE|DICT|INTERRES
    71   34  159 1    
    72   35   36 2    
    73   35   37 1    
    74   37   38 1    
    75   37   39 1    
    76   37  160 1    
    77   38  161 1    
    78   38  162 1    
    79   38  163 1    
    80   39   40 am   BACKBONE|DICT|INTERRES
    81   39  164 1    
    82   40   41 2    
    83   40   42 1    
    84   42   43 1    
    85   42   44 1    
    86   42  165 1    
    87   43  166 1    
    88   43  167 1    
    89   43  168 1    
    90   44   45 am   BACKBONE|DICT|INTERRES
    91   44  169 1    
    92   45   46 2    
    93   45   47 1    
    94   47   48 1    
    95   47   49 1    
    96   47  170 1    
    97   48  171 1    
    98   48  172 1    
    99   48  173 1    
   100   49   50 am   BACKBONE|DICT|INTERRES
   101   49  174 1    
   102   50   51 2    
   103   50   52 1    
   104   52   53 1    
   105   52   54 1    
   106   52  175 1    
   107   53  176 1    
   108   53  177 1    
   109   53  178 1    
   110   54   55 am   BACKBONE|DICT|INTERRES
   111   54  179 1    
   112   55   56 2    
   113   55   57 1    
   114   57   58 1    
   115   57   59 1    
   116   57  180 1    
   117   58  181 1    
   118   58  182 1    
   119   58  183 1    
   120   59   60 am   BACKBONE|DICT|INTERRES
   121   59  184 1    
   122   60   61 2    
   123   60   62 1    
   124   62   63 1    
   125   62   64 1    
   126   62  185 1    
   127   63  186 1    
   128   63  187 1    
   129   63  188 1    
   130   64   65 am   BACKBONE|DICT|INTERRES
   131   64  189 1    
   132   65   66 2    
   133   67   68 2    
   134   67   69 am   BACKBONE|DICT|INTERRES
   135   69   70 1    
   136   69  190 1    
   137   70   71 1    
   138   70   72 1    
   139   70  191 1    
   140   71  192 1    
   141   71  193 1    
   142   71  194 1    
   143   72   73 2    
   144   72   74 am   BACKBONE|DICT|INTERRES
   145   74   75 1    
   146   74  195 1    
   147   75   76 1    
   148   75   77 1    
   149   75  196 1    
   150   76  197 1    
   151   76  198 1    
   152   76  199 1    
   153   77   78 2    
   154   77   79 am   BACKBONE|DICT|INTERRES
   155   79   80 1    
   156   79  200 1    
   157   80   81 1    
   158   80   82 1    
   159   80  201 1    
   160   81  202 1    
   161   81  203 1    
   162   81  204 1    
   163   82   83 2    
   164   82   84 am   BACKBONE|DICT|INTERRES
   165   84   85 1    
   166   84  205 1    
   167   85   86 1    
   168   85   87 1    
   169   85  206 1    
   170   86  207 1    
   171   86  208 1    
   172   86  209 1    
   173   87   88 2    
   174   87   89 am   BACKBONE|DICT|INTERRES
   175   89   90 1    
   176   89  210 1    
   177   90   91 1    
   178   90   92 1    
   179   90  211 1    
   180   91  212 1    
   181   91  213 1    
   182   91  214 1    
   183   92   93 2    
   184   92   94 am   BACKBONE|DICT|INTERRES
   185   94   95 1    
   186   94  215 1    
   187   95   96 1    
   188   95   97 1    
   189   95  216 1    
   190   96  217 1    
   191   96  218 1    
   192   96  219 1    
   193   97   98 2    
   194   97   99 am   BACKBONE|DICT|INTERRES
   195   99  100 1    
   196   99  220 1    
   197  100  101 1    
   198  100  102 1    
   199  100  221 1    
   200  101  222 1    
   201  101  223 1    
   202  101  224 1    
   203  102  103 2    
   204  102  104 am   BACKBONE|DICT|INTERRES
   205  104  105 1    
   206  104  225 1    
   207  105  106 1    
   208  105  107 1    
   209  105  226 1    
   210  106  227 1    
   211  106  228 1    
   212  106  229 1    
   213  107  108 2    
   214  107  109 am   BACKBONE|DICT|INTERRES
   215  109  110 1    
   216  109  230 1    
   217  110  111 1    
   218  110  112 1    
   219  110  231 1    
   220  111  232 1    
   221  111  233 1    
   222  111  234 1    
   223  112  113 2    
   224  112  114 am   BACKBONE|DICT|INTERRES
   225  114  115 1    
   226  114  235 1    
   227  115  116 1    
   228  115  117 1    
   229  115  236 1    
   230  116  237 1    
   231  116  238 1    
   232  116  239 1    
   233  117  118 2    
   234  117  119 am   BACKBONE|DICT|INTERRES
   235  119  120 1    
   236  119  240 1    
   237  120  121 1    
   238  120  124 1    
   239  120  241 1    
   240  121  122 am   BACKBONE|DICT|INTERRES
   241  121  123 2    
   242  122  242 1    
   243  122  243 1    
   244  124  125 1    
   245  124  244 1    
   246  124  245 1    
   247  125  126 1    
   248  126  246 1    
   249  126  247 1    
@<TRIPOS>SUBSTRUCTURE
     1 UNK         1 GROUP             0       ****    0 ROOT    
