@<TRIPOS>MOLECULE
3R540
247   249    1
SMALL
USER_CHARGES


@<TRIPOS>ATOM
      1 CA         -1.2588  -20.4864  -42.0793 C.3       0 UNK        -0.1800 
      2 C          -1.0923  -18.9780  -42.1853 C.2       0 UNK         0.5000 
      3 O          -0.3176  -18.5032  -43.0161 O.2       0 UNK        -0.5000 
      4 N          -1.8031  -18.2320  -41.3270 N.am      1 UNK        -0.5000 
      5 CA         -1.7485  -16.7723  -41.1634 C.3       1 UNK         0.1400 
      6 C6         -2.3575  -15.9880  -42.3594 C.3       23 UNK        -0.0398 
      7 S7         -4.1729  -16.1653  -42.4178 S.3       23 UNK        -0.2404 
      8 C8         -4.5807  -15.6578  -44.1292 C.3       23 UNK        -0.0205 
      9 C9         -4.7754  -16.7970  -45.1351 C.ar      23 UNK        -0.0193 
     10 C10        -4.6717  -16.5149  -46.5046 C.ar      23 UNK        -0.1150 
     11 C11        -4.8673  -17.5157  -47.4634 C.ar      23 UNK        -0.0193 
     12 C12        -5.1848  -18.8066  -47.0412 C.ar      23 UNK        -0.1150 
     13 C13        -5.2737  -19.1144  -45.6835 C.ar      23 UNK        -0.0193 
     14 C14        -5.0869  -18.1048  -44.7362 C.ar      23 UNK        -0.1150 
     15 C15        -5.5084  -20.5561  -45.2537 C.3       23 UNK        -0.0205 
     16 S16        -4.0464  -21.2873  -44.4400 S.3       23 UNK        -0.2404 
     17 C17        -2.6861  -20.8767  -45.5893 C.3       23 UNK        -0.0398 
     18 CA         -2.1472  -22.1035  -46.3578 C.3       11 UNK         0.1400 
     19 N          -1.6839  -21.7420  -47.6928 N.am      11 UNK        -0.5000 
     20 C          -1.4485  -22.5967  -48.6951 C.2       10 UNK         0.5000 
     21 O          -1.6054  -23.8175  -48.6106 O.2       10 UNK        -0.5000 
     22 CA         -0.9316  -21.9677  -50.0046 C.3       10 UNK         0.1400 
     23 CB         -2.1235  -21.5964  -50.8994 C.3       10 UNK        -0.1800 
     24 N          -0.1044  -20.7771  -49.7671 N.am      10 UNK        -0.5000 
     25 C           1.0945  -20.8034  -49.1628 C.2       9 UNK         0.5000 
     26 O           1.6550  -21.8419  -48.8184 O.2       9 UNK        -0.5000 
     27 CA          1.7431  -19.4522  -48.8005 C.3       9 UNK         0.1400 
     28 CB          2.7676  -18.9977  -49.8493 C.3       9 UNK        -0.1800 
     29 N           0.7747  -18.3822  -48.5529 N.am      9 UNK        -0.5000 
     30 C          -0.1000  -18.3910  -47.5377 C.2       8 UNK         0.5000 
     31 O          -0.1935  -19.3365  -46.7532 O.2       8 UNK        -0.5000 
     32 CA         -0.9820  -17.1454  -47.3520 C.3       8 UNK         0.1400 
     33 CB         -1.3572  -16.9427  -45.8774 C.3       8 UNK        -0.1800 
     34 N          -0.2877  -15.9487  -47.8119 N.am      8 UNK        -0.5000 
     35 C          -0.6967  -15.0986  -48.7606 C.2       7 UNK         0.5000 
     36 O          -1.7100  -15.2568  -49.4396 O.2       7 UNK        -0.5000 
     37 CA          0.1774  -13.8366  -48.9334 C.3       7 UNK         0.1400 
     38 CB         -0.4650  -12.7611  -49.8338 C.3       7 UNK        -0.1800 
     39 N           0.5742  -13.2801  -47.6340 N.am      7 UNK        -0.5000 
     40 C          -0.2433  -12.8499  -46.6580 C.2       6 UNK         0.5000 
     41 O          -1.4541  -12.6789  -46.8035 O.2       6 UNK        -0.5000 
     42 CA          0.3771  -12.6164  -45.2666 C.3       6 UNK         0.1400 
     43 CB         -0.3050  -13.5223  -44.2265 C.3       6 UNK        -0.1800 
     44 N           1.8172  -12.8863  -45.2487 N.am      6 UNK        -0.5000 
     45 C           2.7736  -11.9511  -45.3288 C.2       5 UNK         0.5000 
     46 O           2.5455  -10.7412  -45.3510 O.2       5 UNK        -0.5000 
     47 CA          4.2328  -12.4425  -45.4250 C.3       5 UNK         0.1400 
     48 CB          4.9104  -12.3941  -44.0473 C.3       5 UNK        -0.1800 
     49 N           4.3594  -13.7918  -45.9852 N.am      5 UNK        -0.5000 
     50 C           4.1112  -14.1049  -47.2662 C.2       4 UNK         0.5000 
     51 O           3.7575  -13.2801  -48.1084 O.2       4 UNK        -0.5000 
     52 CA          4.2143  -15.5894  -47.6747 C.3       4 UNK         0.1400 
     53 CB          5.5971  -15.8903  -48.2704 C.3       4 UNK        -0.1800 
     54 N           3.9412  -16.5423  -46.5954 N.am      4 UNK        -0.5000 
     55 C           2.8087  -16.5995  -45.8834 C.2       3 UNK         0.5000 
     56 O           1.8739  -15.8125  -46.0476 O.2       3 UNK        -0.5000 
     57 CA          2.6937  -17.6883  -44.7957 C.3       3 UNK         0.1400 
     58 CB          4.0016  -18.4715  -44.5432 C.3       3 UNK        -0.1800 
     59 N           2.1742  -17.1366  -43.5420 N.am      3 UNK        -0.5000 
     60 C           2.7060  -16.1269  -42.8328 C.2       2 UNK         0.5000 
     61 O           3.7567  -15.5619  -43.1406 O.2       2 UNK        -0.5000 
     62 CA          1.9266  -15.6569  -41.5905 C.3       2 UNK         0.1400 
     63 CB          2.1670  -14.1700  -41.2650 C.3       2 UNK        -0.1800 
     64 N           0.4951  -15.9198  -41.7495 N.am      2 UNK        -0.5000 
     65 C          -0.3196  -16.3304  -40.7704 C.2       1 UNK         0.5000 
     66 O           0.0237  -16.4117  -39.5894 O.2       1 UNK        -0.5000 
     67 C          -1.0242  -22.8093  -45.5834 C.2       11 UNK         0.5000 
     68 O          -1.2437  -23.8801  -45.0183 O.2       11 UNK        -0.5000 
     69 N           0.1770  -22.2183  -45.6313 N.am      12 UNK        -0.5000 
     70 CA          1.3978  -22.7830  -45.0611 C.3       12 UNK         0.1400 
     71 CB          2.5173  -21.7367  -45.1435 C.3       12 UNK        -0.1800 
     72 C           1.8194  -24.1033  -45.7357 C.2       12 UNK         0.5000 
     73 O           2.3046  -25.0032  -45.0492 O.2       12 UNK        -0.5000 
     74 N           1.6162  -24.1990  -47.0573 N.am      13 UNK        -0.5000 
     75 CA          1.9202  -25.3815  -47.8574 C.3       13 UNK         0.1400 
     76 CB          1.9191  -25.0174  -49.3507 C.3       13 UNK        -0.1800 
     77 C           0.9715  -26.5624  -47.5880 C.2       13 UNK         0.5000 
     78 O           1.4566  -27.6657  -47.3308 O.2       13 UNK        -0.5000 
     79 N          -0.3474  -26.3361  -47.6909 N.am      14 UNK        -0.5000 
     80 CA         -1.3339  -27.4212  -47.7411 C.3       14 UNK         0.1400 
     81 CB         -1.4189  -27.9549  -49.1868 C.3       14 UNK        -0.1800 
     82 C          -2.7212  -27.0392  -47.1922 C.2       14 UNK         0.5000 
     83 O          -3.6895  -27.7382  -47.4954 O.2       14 UNK        -0.5000 
     84 N          -2.8177  -25.9541  -46.4073 N.am      15 UNK        -0.5000 
     85 CA         -4.0565  -25.4079  -45.8250 C.3       15 UNK         0.1400 
     86 CB         -4.6586  -26.3865  -44.7943 C.3       15 UNK        -0.1800 
     87 C          -5.0900  -24.9409  -46.8784 C.2       15 UNK         0.5000 
     88 O          -6.2840  -24.8754  -46.5803 O.2       15 UNK        -0.5000 
     89 N          -4.6169  -24.6327  -48.0921 N.am      16 UNK        -0.5000 
     90 CA         -5.4265  -24.1981  -49.2262 C.3       16 UNK         0.1400 
     91 CB         -4.7761  -24.7381  -50.5105 C.3       16 UNK        -0.1800 
     92 C          -5.5362  -22.6654  -49.2728 C.2       16 UNK         0.5000 
     93 O          -4.7282  -21.9716  -48.6551 O.2       16 UNK        -0.5000 
     94 N          -6.5204  -22.1663  -50.0295 N.am      17 UNK        -0.5000 
     95 CA         -6.7346  -20.7344  -50.2628 C.3       17 UNK         0.1400 
     96 CB         -7.8422  -20.2276  -49.3232 C.3       17 UNK        -0.1800 
     97 C          -7.0597  -20.4056  -51.7325 C.2       17 UNK         0.5000 
     98 O          -7.0675  -19.2281  -52.0912 O.2       17 UNK        -0.5000 
     99 N          -7.3296  -21.4273  -52.5584 N.am      18 UNK        -0.5000 
    100 CA        -7.7200  -21.2724  -53.9636 C.3       18 UNK         0.1400 
    101 CB        -8.7027  -22.3996  -54.3212 C.3       18 UNK        -0.1800 
    102 C         -6.5241  -21.2826  -54.9361 C.2       18 UNK         0.5000 
    103 O         -6.6903  -20.9010  -56.0958 O.2       18 UNK        -0.5000 
    104 N         -5.3567  -21.7471  -54.4711 N.am      19 UNK        -0.5000 
    105 CA        -4.1323  -21.8656  -55.2627 C.3       19 UNK         0.1400 
    106 CB        -3.1593  -22.7982  -54.5252 C.3       19 UNK        -0.1800 
    107 C         -3.4692  -20.5017  -55.5271 C.2       19 UNK         0.5000 
    108 O         -3.7031  -19.5404  -54.7896 O.2       19 UNK        -0.5000 
    109 N         -2.5941  -20.4599  -56.5409 N.am      20 UNK        -0.5000 
    110 CA        -1.8326  -19.2779  -56.9671 C.3       20 UNK         0.1400 
    111 CB        -1.0797  -19.6147  -58.2634 C.3       20 UNK        -0.1800 
    112 C         -0.8571  -18.7238  -55.9064 C.2       20 UNK         0.5000 
    113 O         -0.4693  -17.5585  -55.9910 O.2       20 UNK        -0.5000 
    114 N         -0.4993  -19.5538  -54.9166 N.am      21 UNK        -0.5000 
    115 CA         0.2778  -19.1718  -53.7359 C.3       21 UNK         0.1400 
    116 CB         0.8703  -20.4433  -53.1078 C.3       21 UNK        -0.1800 
    117 C         -0.5220  -18.3228  -52.7174 C.2       21 UNK         0.5000 
    118 O          0.0883  -17.7044  -51.8450 O.2       21 UNK        -0.5000 
    119 N         -1.8532  -18.2818  -52.8595 N.am      22 UNK        -0.5000 
    120 CA        -2.7360  -17.2629  -52.2711 C.3       22 UNK         0.1400 
    121 C         -3.1987  -16.2651  -53.3669 C.2       22 UNK         0.5000 
    122 N         -3.6759  -16.7361  -54.5133 N.am      22 UNK        -0.7600 
    123 O         -3.1243  -15.0542  -53.1806 O.2       22 UNK        -0.5000 
    124 C124       -3.9641  -17.8934  -51.5639 C.3       23 UNK        -0.0398 
    125 S125       -3.6183  -18.3321  -49.8303 S.3       23 UNK        -0.2404 
    126 C126       -4.7631  -17.2088  -48.9532 C.3       23 UNK        -0.0205 
    127 H127       -2.3067  -20.7556  -41.9474 H         1 UNK         0.0600 
    128 H128       -0.6933  -20.8672  -41.2292 H         1 UNK         0.0600 
    129 H129       -0.8892  -20.9806  -42.9773 H         1 UNK         0.0600 
    130 H130       -2.4056  -18.7041  -40.6679 H         1 UNK         0.3000 
    131 H131       -2.3618  -16.5496  -40.2884 H         1 UNK         0.0600 
    132 H132       -2.1421  -14.9218  -42.2728 H         1 UNK         0.0800 
    133 H133       -1.9323  -16.3215  -43.3034 H         1 UNK         0.0800 
    134 H134       -5.5096  -15.0876  -44.0948 H         1 UNK         0.0800 
    135 H135       -3.8158  -14.9675  -44.4886 H         1 UNK         0.0800 
    136 H136       -4.4351  -15.5099  -46.8255 H         1 UNK         0.1150 
    137 H137       -5.3217  -19.5868  -47.7750 H         1 UNK         0.1150 
    138 H138       -5.1672  -18.3572  -43.6893 H         1 UNK         0.1150 
    139 H139       -6.3562  -20.5960  -44.5688 H         1 UNK         0.0800 
    140 H140       -5.7757  -21.1761  -46.1114 H         1 UNK         0.0800 
    141 H141       -3.0225  -20.1344  -46.3079 H         1 UNK         0.0800 
    142 H142       -1.9032  -20.3652  -45.0279 H         1 UNK         0.0800 
    143 H143       -2.9668  -22.8054  -46.5029 H         1 UNK         0.0600 
    144 H144       -1.4723  -20.7645  -47.8344 H         1 UNK         0.3000 
    145 H145       -0.3220  -22.7074  -50.5268 H         1 UNK         0.0600 
    146 H146       -1.8246  -21.0308  -51.7787 H         1 UNK         0.0600 
    147 H147       -2.6360  -22.4928  -51.2441 H         1 UNK         0.0600 
    148 H148       -2.8573  -20.9993  -50.3614 H         1 UNK         0.0600 
    149 H149       -0.5049  -19.8809  -50.0052 H         1 UNK         0.3000 
    150 H150        2.2894  -19.6149  -47.8689 H         1 UNK         0.0600 
    151 H151        3.4509  -19.8071  -50.1096 H         1 UNK         0.0600 
    152 H152        3.3726  -18.1744  -49.4696 H         1 UNK         0.0600 
    153 H153        2.2909  -18.6584  -50.7670 H         1 UNK         0.0600 
    154 H154        0.7758  -17.5985  -49.1911 H         1 UNK         0.3000 
    155 H155       -1.8965  -17.2975  -47.9195 H         1 UNK         0.0600 
    156 H156       -1.9070  -16.0126  -45.7393 H         1 UNK         0.0600 
    157 H157       -0.4735  -16.9056  -45.2409 H         1 UNK         0.0600 
    158 H158       -1.9874  -17.7558  -45.5151 H         1 UNK         0.0600 
    159 H159        0.5537  -15.7268  -47.2836 H         1 UNK         0.3000 
    160 H160        1.0968  -14.1656  -49.4198 H         1 UNK         0.0600 
    161 H161       -1.4260  -12.4235  -49.4452 H         1 UNK         0.0600 
    162 H162       -0.6400  -13.1501  -50.8376 H         1 UNK         0.0600 
    163 H163        0.1832  -11.8904  -49.9309 H         1 UNK         0.0600 
    164 H164        1.5602  -13.3440  -47.4200 H         1 UNK         0.3000 
    165 H165        0.1770  -11.5780  -44.9954 H         1 UNK         0.0600 
    166 H166       -0.0693  -14.5725  -44.3970 H         1 UNK         0.0600 
    167 H167        0.0028  -13.2612  -43.2158 H         1 UNK         0.0600 
    168 H168       -1.3904  -13.4199  -44.2590 H         1 UNK         0.0600 
    169 H169        2.0863  -13.8636  -45.2723 H         1 UNK         0.3000 
    170 H170        4.7657  -11.7549  -46.0853 H         1 UNK         0.0600 
    171 H171        4.9094  -11.3785  -43.6496 H         1 UNK         0.0600 
    172 H172        4.3982  -13.0264  -43.3225 H         1 UNK         0.0600 
    173 H173        5.9492  -12.7194  -44.1042 H         1 UNK         0.0600 
    174 H174        4.5974  -14.5313  -45.3374 H         1 UNK         0.3000 
    175 H175        3.4661  -15.7591  -48.4518 H         1 UNK         0.0600 
    176 H176        6.3879  -15.7741  -47.5283 H         1 UNK         0.0600 
    177 H177        5.6472  -16.9073  -48.6597 H         1 UNK         0.0600 
    178 H178        5.8218  -15.2163  -49.0983 H         1 UNK         0.0600 
    179 H179        4.6766  -17.1999  -46.3814 H         1 UNK         0.3000 
    180 H180        1.9425  -18.3949  -45.1502 H         1 UNK         0.0600 
    181 H181        4.8244  -17.8172  -44.2527 H         1 UNK         0.0600 
    182 H182        4.3092  -19.0262  -45.4305 H         1 UNK         0.0600 
    183 H183        3.8696  -19.2004  -43.7436 H         1 UNK         0.0600 
    184 H184        1.3039  -17.5583  -43.2244 H         1 UNK         0.3000 
    185 H185        2.3108  -16.2524  -40.7598 H         1 UNK         0.0600 
    186 H186        1.5463  -13.8375  -40.4331 H         1 UNK         0.0600 
    187 H187        3.2060  -13.9999  -40.9804 H         1 UNK         0.0600 
    188 H188        1.9602  -13.5284  -42.1206 H         1 UNK         0.0600 
    189 H189        0.1582  -15.9367  -42.7009 H         1 UNK         0.3000 
    190 H190        0.2572  -21.3268  -46.1075 H         1 UNK         0.3000 
    191 H191        1.2063  -22.9950  -44.0071 H         1 UNK         0.0600 
    192 H192        2.2369  -20.8305  -44.6077 H         1 UNK         0.0600 
    193 H193        3.4377  -22.1108  -44.6937 H         1 UNK         0.0600 
    194 H194        2.7411  -21.4640  -46.1753 H         1 UNK         0.0600 
    195 H195        1.2941  -23.3811  -47.5630 H         1 UNK         0.3000 
    196 H196        2.9308  -25.7066  -47.6007 H         1 UNK         0.0600 
    197 H197        2.1399  -25.8903  -49.9664 H         1 UNK         0.0600 
    198 H198        2.6764  -24.2656  -49.5731 H         1 UNK         0.0600 
    199 H199        0.9537  -24.6262  -49.6711 H         1 UNK         0.0600 
    200 H200       -0.6832  -25.4066  -47.9303 H         1 UNK         0.3000 
    201 H201       -0.9988  -28.2383  -47.0991 H         1 UNK         0.0600 
    202 H202       -0.4472  -28.2950  -49.5449 H         1 UNK         0.0600 
    203 H203       -1.7774  -27.1857  -49.8720 H         1 UNK         0.0600 
    204 H204       -2.0977  -28.8053  -49.2604 H         1 UNK         0.0600 
    205 H205       -1.9740  -25.4451  -46.1671 H         1 UNK         0.3000 
    206 H206       -3.7750  -24.5153  -45.2686 H         1 UNK         0.0600 
    207 H207       -3.9113  -26.6989  -44.0649 H         1 UNK         0.0600 
    208 H208       -5.4726  -25.9178  -44.2402 H         1 UNK         0.0600 
    209 H209       -5.0620  -27.2817  -45.2679 H         1 UNK         0.0600 
    210 H210       -3.6144  -24.6279  -48.2341 H         1 UNK         0.3000 
    211 H211       -6.4329  -24.6141  -49.1447 H         1 UNK         0.0600 
    212 H212       -3.7401  -24.4134  -50.6046 H         1 UNK         0.0600 
    213 H213       -5.3101  -24.4071  -51.4018 H         1 UNK         0.0600 
    214 H214       -4.7791  -25.8284  -50.5183 H         1 UNK         0.0600 
    215 H215       -7.1810  -22.8001  -50.4536 H         1 UNK         0.3000 
    216 H216       -5.8197  -20.1862  -50.0385 H         1 UNK         0.0600 
    217 H217       -7.5900  -20.4128  -48.2791 H         1 UNK         0.0600 
    218 H218       -8.7958  -20.7151  -49.5283 H         1 UNK         0.0600 
    219 H219       -7.9890  -19.1525  -49.4344 H         1 UNK         0.0600 
    220 H220       -7.2936  -22.3715  -52.2097 H         1 UNK         0.3000 
    221 H221       -8.2399  -20.3212  -54.0976 H         1 UNK         0.0600 
    222 H222       -8.2431  -23.3835  -54.2193 H         1 UNK         0.0600 
    223 H223       -9.5842  -22.3719  -53.6803 H         1 UNK         0.0600 
    224 H224       -9.0498  -22.3050  -55.3510 H         1 UNK         0.0600 
    225 H225       -5.2939  -21.9946  -53.4963 H         1 UNK         0.3000 
    226 H226       -4.3865  -22.3173  -56.2240 H         1 UNK         0.0600 
    227 H227       -3.6166  -23.7664  -54.3200 H         1 UNK         0.0600 
    228 H228       -2.2636  -22.9850  -55.1188 H         1 UNK         0.0600 
    229 H229       -2.8388  -22.3708  -53.5768 H         1 UNK         0.0600 
    230 H230       -2.4454  -21.2977  -57.0853 H         1 UNK         0.3000 
    231 H231       -2.5507  -18.4847  -57.1855 H         1 UNK         0.0600 
    232 H232       -0.5263  -18.7497  -58.6315 H         1 UNK         0.0600 
    233 H233       -1.7679  -19.9166  -59.0532 H         1 UNK         0.0600 
    234 H234       -0.3630  -20.4231  -58.1134 H         1 UNK         0.0600 
    235 H235       -0.8469  -20.5004  -54.9436 H         1 UNK         0.3000 
    236 H236        1.1128  -18.5495  -54.0648 H         1 UNK         0.0600 
    237 H237        1.5862  -20.9101  -53.7845 H         1 UNK         0.0600 
    238 H238        1.4042  -20.2225  -52.1858 H         1 UNK         0.0600 
    239 H239        0.1075  -21.1852  -52.8802 H         1 UNK         0.0600 
    240 H240       -2.2740  -18.8233  -53.6052 H         1 UNK         0.3000 
    241 H241       -2.1833  -16.6724  -51.5401 H         1 UNK         0.0600 
    242 H242       -3.9752  -16.0894  -55.2251 H         1 UNK         0.3800 
    243 H243       -3.7786  -17.7370  -54.6647 H         1 UNK         0.3800 
    244 H244       -4.2944  -18.7885  -52.0929 H         1 UNK         0.0800 
    245 H245       -4.8215  -17.2178  -51.5774 H         1 UNK         0.0800 
    246 H246       -4.4345  -16.1806  -49.1140 H         1 UNK         0.0800 
    247 H247       -5.7597  -17.2951  -49.3884 H         1 UNK         0.0800 
@<TRIPOS>BOND
     1    1    2 1    
     2    1  127 1    
     3    1  128 1    
     4    1  129 1    
     5    2    3 2    
     6    2    4 am   BACKBONE|DICT|INTERRES
     7    4    5 1    
     8    4  130 1    
     9    5    6 1    
    10    5   65 1    
    11    5  131 1    
    12    6    7 1    
    13    6  132 1    
    14    6  133 1    
    15    7    8 1    
    16    8    9 1    
    17    8  134 1    
    18    8  135 1    
    19    9   10 ar   
    20    9   14 ar   
    21   10   11 ar   
    22   10  136 1    
    23   11   12 ar   
    24   11  126 1    
    25   12   13 ar   
    26   12  137 1    
    27   13   14 ar   
    28   13   15 1    
    29   14  138 1    
    30   15   16 1    
    31   15  139 1    
    32   15  140 1    
    33   16   17 1    
    34   17   18 1    
    35   17  141 1    
    36   17  142 1    
    37   18   19 1    
    38   18   67 1    
    39   18  143 1    
    40   19   20 am   BACKBONE|DICT|INTERRES
    41   19  144 1    
    42   20   21 2    
    43   20   22 1    
    44   22   23 1    
    45   22   24 1    
    46   22  145 1    
    47   23  146 1    
    48   23  147 1    
    49   23  148 1    
    50   24   25 am   BACKBONE|DICT|INTERRES
    51   24  149 1    
    52   25   26 2    
    53   25   27 1    
    54   27   28 1    
    55   27   29 1    
    56   27  150 1    
    57   28  151 1    
    58   28  152 1    
    59   28  153 1    
    60   29   30 am   BACKBONE|DICT|INTERRES
    61   29  154 1    
    62   30   31 2    
    63   30   32 1    
    64   32   33 1    
    65   32   34 1    
    66   32  155 1    
    67   33  156 1    
    68   33  157 1    
    69   33  158 1    
    70   34   35 am   BACKBONE|DICT|INTERRES
    71   34  159 1    
    72   35   36 2    
    73   35   37 1    
    74   37   38 1    
    75   37   39 1    
    76   37  160 1    
    77   38  161 1    
    78   38  162 1    
    79   38  163 1    
    80   39   40 am   BACKBONE|DICT|INTERRES
    81   39  164 1    
    82   40   41 2    
    83   40   42 1    
    84   42   43 1    
    85   42   44 1    
    86   42  165 1    
    87   43  166 1    
    88   43  167 1    
    89   43  168 1    
    90   44   45 am   BACKBONE|DICT|INTERRES
    91   44  169 1    
    92   45   46 2    
    93   45   47 1    
    94   47   48 1    
    95   47   49 1    
    96   47  170 1    
    97   48  171 1    
    98   48  172 1    
    99   48  173 1    
   100   49   50 am   BACKBONE|DICT|INTERRES
   101   49  174 1    
   102   50   51 2    
   103   50   52 1    
   104   52   53 1    
   105   52   54 1    
   106   52  175 1    
   107   53  176 1    
   108   53  177 1    
   109   53  178 1    
   110   54   55 am   BACKBONE|DICT|INTERRES
   111   54  179 1    
   112   55   56 2    
   113   55   57 1    
   114   57   58 1    
   115   57   59 1    
   116   57  180 1    
   117   58  181 1    
   118   58  182 1    
   119   58  183 1    
   120   59   60 am   BACKBONE|DICT|INTERRES
   121   59  184 1    
   122   60   61 2    
   123   60   62 1    
   124   62   63 1    
   125   62   64 1    
   126   62  185 1    
   127   63  186 1    
   128   63  187 1    
   129   63  188 1    
   130   64   65 am   BACKBONE|DICT|INTERRES
   131   64  189 1    
   132   65   66 2    
   133   67   68 2    
   134   67   69 am   BACKBONE|DICT|INTERRES
   135   69   70 1    
   136   69  190 1    
   137   70   71 1    
   138   70   72 1    
   139   70  191 1    
   140   71  192 1    
   141   71  193 1    
   142   71  194 1    
   143   72   73 2    
   144   72   74 am   BACKBONE|DICT|INTERRES
   145   74   75 1    
   146   74  195 1    
   147   75   76 1    
   148   75   77 1    
   149   75  196 1    
   150   76  197 1    
   151   76  198 1    
   152   76  199 1    
   153   77   78 2    
   154   77   79 am   BACKBONE|DICT|INTERRES
   155   79   80 1    
   156   79  200 1    
   157   80   81 1    
   158   80   82 1    
   159   80  201 1    
   160   81  202 1    
   161   81  203 1    
   162   81  204 1    
   163   82   83 2    
   164   82   84 am   BACKBONE|DICT|INTERRES
   165   84   85 1    
   166   84  205 1    
   167   85   86 1    
   168   85   87 1    
   169   85  206 1    
   170   86  207 1    
   171   86  208 1    
   172   86  209 1    
   173   87   88 2    
   174   87   89 am   BACKBONE|DICT|INTERRES
   175   89   90 1    
   176   89  210 1    
   177   90   91 1    
   178   90   92 1    
   179   90  211 1    
   180   91  212 1    
   181   91  213 1    
   182   91  214 1    
   183   92   93 2    
   184   92   94 am   BACKBONE|DICT|INTERRES
   185   94   95 1    
   186   94  215 1    
   187   95   96 1    
   188   95   97 1    
   189   95  216 1    
   190   96  217 1    
   191   96  218 1    
   192   96  219 1    
   193   97   98 2    
   194   97   99 am   BACKBONE|DICT|INTERRES
   195   99  100 1    
   196   99  220 1    
   197  100  101 1    
   198  100  102 1    
   199  100  221 1    
   200  101  222 1    
   201  101  223 1    
   202  101  224 1    
   203  102  103 2    
   204  102  104 am   BACKBONE|DICT|INTERRES
   205  104  105 1    
   206  104  225 1    
   207  105  106 1    
   208  105  107 1    
   209  105  226 1    
   210  106  227 1    
   211  106  228 1    
   212  106  229 1    
   213  107  108 2    
   214  107  109 am   BACKBONE|DICT|INTERRES
   215  109  110 1    
   216  109  230 1    
   217  110  111 1    
   218  110  112 1    
   219  110  231 1    
   220  111  232 1    
   221  111  233 1    
   222  111  234 1    
   223  112  113 2    
   224  112  114 am   BACKBONE|DICT|INTERRES
   225  114  115 1    
   226  114  235 1    
   227  115  116 1    
   228  115  117 1    
   229  115  236 1    
   230  116  237 1    
   231  116  238 1    
   232  116  239 1    
   233  117  118 2    
   234  117  119 am   BACKBONE|DICT|INTERRES
   235  119  120 1    
   236  119  240 1    
   237  120  121 1    
   238  120  124 1    
   239  120  241 1    
   240  121  122 am   BACKBONE|DICT|INTERRES
   241  121  123 2    
   242  122  242 1    
   243  122  243 1    
   244  124  125 1    
   245  124  244 1    
   246  124  245 1    
   247  125  126 1    
   248  126  246 1    
   249  126  247 1    
@<TRIPOS>SUBSTRUCTURE
     1 UNK         1 GROUP             0       ****    0 ROOT    
