@<TRIPOS>MOLECULE
3R540
247   249    1
SMALL
USER_CHARGES


@<TRIPOS>ATOM
      1 CA         -1.4086  -16.2435  -40.4410 C.3       0 UNK        -0.1800 
      2 C          -1.7116  -15.1434  -41.4469 C.2       0 UNK         0.5000 
      3 O          -1.6868  -13.9649  -41.0909 O.2       0 UNK        -0.5000 
      4 N          -2.0136  -15.5229  -42.6934 N.am      1 UNK        -0.5000 
      5 CA         -2.3126  -14.6053  -43.7927 C.3       1 UNK         0.1400 
      6 C6         -3.2066  -15.3017  -44.8451 C.3       23 UNK        -0.0398 
      7 S7         -4.0679  -14.1260  -45.9407 S.3       23 UNK        -0.2404 
      8 C8         -5.5656  -15.0715  -46.3527 C.3       23 UNK        -0.0205 
      9 C9         -5.3077  -16.0819  -47.4599 C.ar      23 UNK        -0.0193 
     10 C10        -5.6177  -15.7534  -48.7820 C.ar      23 UNK        -0.1150 
     11 C11        -5.4229  -16.6797  -49.8081 C.ar      23 UNK        -0.0193 
     12 C12        -4.9055  -17.9419  -49.5049 C.ar      23 UNK        -0.1150 
     13 C13        -4.5813  -18.2844  -48.1871 C.ar      23 UNK        -0.0193 
     14 C14        -4.7835  -17.3461  -47.1685 C.ar      23 UNK        -0.1150 
     15 C15        -3.9935  -19.6600  -47.8909 C.3       23 UNK        -0.0205 
     16 S16        -4.8770  -20.5684  -46.5791 S.3       23 UNK        -0.2404 
     17 C17        -3.7315  -20.4244  -45.1578 C.3       23 UNK        -0.0398 
     18 CA         -2.7448  -21.6124  -44.9663 C.3       11 UNK         0.1400 
     19 N          -1.8045  -21.3421  -43.8634 N.am      11 UNK        -0.5000 
     20 C          -0.8946  -22.1837  -43.3415 C.2       10 UNK         0.5000 
     21 O          -0.7583  -23.3532  -43.6986 O.2       10 UNK        -0.5000 
     22 CA          0.0113  -21.6126  -42.2366 C.3       10 UNK         0.1400 
     23 CB          1.1426  -22.5679  -41.8156 C.3       10 UNK        -0.1800 
     24 N           0.5887  -20.3598  -42.7035 N.am      10 UNK        -0.5000 
     25 C           0.6523  -19.2223  -42.0027 C.2       9 UNK         0.5000 
     26 O           0.3197  -19.1270  -40.8217 O.2       9 UNK        -0.5000 
     27 CA          1.1359  -17.9677  -42.7569 C.3       9 UNK         0.1400 
     28 CB          2.6145  -17.6837  -42.4596 C.3       9 UNK        -0.1800 
     29 N           0.9357  -18.0498  -44.2052 N.am      9 UNK        -0.5000 
     30 C          -0.2626  -18.0816  -44.8051 C.2       8 UNK         0.5000 
     31 O          -1.3300  -18.0517  -44.1893 O.2       8 UNK        -0.5000 
     32 CA         -0.2781  -18.2006  -46.3358 C.3       8 UNK         0.1400 
     33 CB         -0.0887  -16.8254  -46.9807 C.3       8 UNK        -0.1800 
     34 N           0.7779  -19.0918  -46.8111 N.am      8 UNK        -0.5000 
     35 C           0.5867  -20.2679  -47.4247 C.2       7 UNK         0.5000 
     36 O          -0.5206  -20.7253  -47.7106 O.2       7 UNK        -0.5000 
     37 CA          1.8462  -21.0670  -47.8205 C.3       7 UNK         0.1400 
     38 CB          2.1688  -20.8468  -49.3066 C.3       7 UNK        -0.1800 
     39 N           3.0434  -20.7429  -47.0453 N.am      7 UNK        -0.5000 
     40 C           3.1896  -20.8751  -45.7204 C.2       6 UNK         0.5000 
     41 O           2.3254  -21.3342  -44.9747 O.2       6 UNK        -0.5000 
     42 CA          4.5037  -20.3289  -45.1259 C.3       6 UNK         0.1400 
     43 CB          5.5627  -21.4392  -45.0638 C.3       6 UNK        -0.1800 
     44 N           5.0606  -19.1706  -45.8428 N.am      6 UNK        -0.5000 
     45 C           4.4157  -18.0245  -46.1130 C.2       5 UNK         0.5000 
     46 O           3.2371  -17.8370  -45.8054 O.2       5 UNK        -0.5000 
     47 CA          5.1848  -16.9243  -46.8798 C.3       5 UNK         0.1400 
     48 CB          6.5808  -17.3609  -47.3681 C.3       5 UNK        -0.1800 
     49 N           4.4031  -16.4781  -48.0343 N.am      5 UNK        -0.5000 
     50 C           3.4360  -15.5521  -48.0013 C.2       4 UNK         0.5000 
     51 O           3.1829  -14.8606  -47.0107 O.2       4 UNK        -0.5000 
     52 CA          2.5974  -15.3816  -49.2830 C.3       4 UNK         0.1400 
     53 CB          2.2957  -16.7302  -49.9768 C.3       4 UNK        -0.1800 
     54 N           1.3557  -14.7059  -48.9208 N.am      4 UNK        -0.5000 
     55 C           0.4856  -14.1157  -49.7453 C.2       3 UNK         0.5000 
     56 O           0.6395  -14.0522  -50.9654 O.2       3 UNK        -0.5000 
     57 CA         -0.7770  -13.4914  -49.1093 C.3       3 UNK         0.1400 
     58 CB         -2.0007  -14.3898  -49.3562 C.3       3 UNK        -0.1800 
     59 N          -0.6820  -13.2133  -47.6704 N.am      3 UNK        -0.5000 
     60 C           0.1497  -12.3288  -47.1000 C.2       2 UNK         0.5000 
     61 O           0.9765  -11.6750  -47.7369 O.2       2 UNK        -0.5000 
     62 CA          0.0319  -12.1112  -45.5757 C.3       2 UNK         0.1400 
     63 CB         -0.1331  -10.6174  -45.2465 C.3       2 UNK        -0.1800 
     64 N          -1.0879  -12.8382  -44.9702 N.am      2 UNK        -0.5000 
     65 C          -1.0069  -14.0474  -44.4027 C.2       1 UNK         0.5000 
     66 O           0.0290  -14.7136  -44.3663 O.2       1 UNK        -0.5000 
     67 C          -3.4809  -22.9675  -44.8385 C.2       11 UNK         0.5000 
     68 O          -3.5298  -23.7256  -45.8083 O.2       11 UNK        -0.5000 
     69 N          -3.9987  -23.2660  -43.6383 N.am      12 UNK        -0.5000 
     70 CA         -4.7253  -24.5019  -43.3393 C.3       12 UNK         0.1400 
     71 CB         -5.3871  -24.3791  -41.9585 C.3       12 UNK        -0.1800 
     72 C          -3.8454  -25.7649  -43.4088 C.2       12 UNK         0.5000 
     73 O          -4.2946  -26.7879  -43.9265 O.2       12 UNK        -0.5000 
     74 N          -2.6064  -25.6686  -42.9077 N.am      13 UNK        -0.5000 
     75 CA         -1.6240  -26.7559  -42.9190 C.3       13 UNK         0.1400 
     76 CB         -0.5300  -26.4665  -41.8811 C.3       13 UNK        -0.1800 
     77 C          -1.0059  -26.9611  -44.3130 C.2       13 UNK         0.5000 
     78 O          -0.7341  -28.0973  -44.7014 O.2       13 UNK        -0.5000 
     79 N          -0.8253  -25.8568  -45.0482 N.am      14 UNK        -0.5000 
     80 CA         -0.3250  -25.8170  -46.4215 C.3       14 UNK         0.1400 
     81 CB          0.1386  -24.3840  -46.7274 C.3       14 UNK        -0.1800 
     82 C          -1.3533  -26.2848  -47.4722 C.2       14 UNK         0.5000 
     83 O          -0.9912  -26.4065  -48.6420 O.2       14 UNK        -0.5000 
     84 N          -2.6082  -26.5108  -47.0537 N.am      15 UNK        -0.5000 
     85 CA         -3.7660  -26.8854  -47.8731 C.3       15 UNK         0.1400 
     86 CB         -3.5771  -28.2834  -48.4985 C.3       15 UNK        -0.1800 
     87 C          -4.1274  -25.7952  -48.9036 C.2       15 UNK         0.5000 
     88 O          -4.4478  -26.1002  -50.0537 O.2       15 UNK        -0.5000 
     89 N          -4.0617  -24.5368  -48.4486 N.am      16 UNK        -0.5000 
     90 CA         -4.3557  -23.3009  -49.1711 C.3       16 UNK         0.1400 
     91 CB         -5.8570  -23.1972  -49.5074 C.3       16 UNK        -0.1800 
     92 C          -3.4388  -23.0459  -50.3826 C.2       16 UNK         0.5000 
     93 O          -3.8960  -22.5239  -51.3990 O.2       16 UNK        -0.5000 
     94 N          -2.1491  -23.3868  -50.2471 N.am      17 UNK        -0.5000 
     95 CA         -1.1265  -23.2655  -51.2929 C.3       17 UNK         0.1400 
     96 CB          0.2137  -23.7839  -50.7517 C.3       17 UNK        -0.1800 
     97 C          -0.9601  -21.8481  -51.8799 C.2       17 UNK         0.5000 
     98 O          -0.6624  -21.7193  -53.0683 O.2       17 UNK        -0.5000 
     99 N          -1.1889  -20.8108  -51.0597 N.am      18 UNK        -0.5000 
    100 CA        -1.1374  -19.4078  -51.4795 C.3       18 UNK         0.1400 
    101 CB        -1.0936  -18.4927  -50.2497 C.3       18 UNK        -0.1800 
    102 C         -2.2777  -18.9856  -52.4243 C.2       18 UNK         0.5000 
    103 O         -2.1501  -17.9452  -53.0670 O.2       18 UNK        -0.5000 
    104 N         -3.3474  -19.7887  -52.5481 N.am      19 UNK        -0.5000 
    105 CA        -4.4833  -19.5140  -53.4368 C.3       19 UNK         0.1400 
    106 CB        -5.5958  -20.5432  -53.1940 C.3       19 UNK        -0.1800 
    107 C         -4.1139  -19.4479  -54.9334 C.2       19 UNK         0.5000 
    108 O         -4.8451  -18.8298  -55.7061 O.2       19 UNK        -0.5000 
    109 N         -2.9750  -20.0475  -55.3083 N.am      20 UNK        -0.5000 
    110 CA        -2.3686  -19.9281  -56.6335 C.3       20 UNK         0.1400 
    111 CB        -1.3168  -21.0362  -56.7957 C.3       20 UNK        -0.1800 
    112 C         -1.7358  -18.5431  -56.8894 C.2       20 UNK         0.5000 
    113 O         -1.6318  -18.1391  -58.0483 O.2       20 UNK        -0.5000 
    114 N         -1.3172  -17.8474  -55.8219 N.am      21 UNK        -0.5000 
    115 CA        -0.7413  -16.5029  -55.8764 C.3       21 UNK         0.1400 
    116 CB         0.3153  -16.3538  -54.7689 C.3       21 UNK        -0.1800 
    117 C         -1.8210  -15.4137  -55.7468 C.2       21 UNK         0.5000 
    118 O         -1.6631  -14.3419  -56.3336 O.2       21 UNK        -0.5000 
    119 N         -2.8897  -15.7006  -54.9900 N.am      22 UNK        -0.5000 
    120 CA        -4.0685  -14.8359  -54.8134 C.3       22 UNK         0.1400 
    121 C         -4.8018  -14.5111  -56.1471 C.2       22 UNK         0.5000 
    122 N         -5.3319  -13.3036  -56.2901 N.am      22 UNK        -0.7600 
    123 O         -4.9347  -15.3525  -57.0329 O.2       22 UNK        -0.5000 
    124 C124       -5.0725  -15.4344  -53.7957 C.3       23 UNK        -0.0398 
    125 S125       -4.3619  -15.6299  -52.1291 S.3       23 UNK        -0.2404 
    126 C126       -5.7876  -16.3210  -51.2396 C.3       23 UNK        -0.0205 
    127 H127       -0.3499  -16.2378  -40.1815 H         1 UNK         0.0600 
    128 H128       -1.6620  -17.2276  -40.8356 H         1 UNK         0.0600 
    129 H129       -1.9850  -16.0894  -39.5288 H         1 UNK         0.0600 
    130 H130       -1.9356  -16.4991  -42.9585 H         1 UNK         0.3000 
    131 H131       -2.8760  -13.7659  -43.3783 H         1 UNK         0.0600 
    132 H132       -2.6518  -16.0215  -45.4427 H         1 UNK         0.0800 
    133 H133       -3.9677  -15.8851  -44.3251 H         1 UNK         0.0800 
    134 H134       -6.3398  -14.3694  -46.6659 H         1 UNK         0.0800 
    135 H135       -5.9606  -15.5714  -45.4673 H         1 UNK         0.0800 
    136 H136       -6.0182  -14.7762  -49.0130 H         1 UNK         0.1150 
    137 H137       -4.7525  -18.6555  -50.3018 H         1 UNK         0.1150 
    138 H138       -4.5420  -17.6036  -46.1477 H         1 UNK         0.1150 
    139 H139       -2.9414  -19.5629  -47.6368 H         1 UNK         0.0800 
    140 H140       -4.0205  -20.2657  -48.7963 H         1 UNK         0.0800 
    141 H141       -4.3381  -20.2978  -44.2597 H         1 UNK         0.0800 
    142 H142       -3.1765  -19.4940  -45.2644 H         1 UNK         0.0800 
    143 H143       -2.1351  -21.6803  -45.8680 H         1 UNK         0.0600 
    144 H144       -1.8146  -20.3955  -43.5078 H         1 UNK         0.3000 
    145 H145       -0.6292  -21.4357  -41.3703 H         1 UNK         0.0600 
    146 H146        1.7863  -22.1094  -41.0649 H         1 UNK         0.0600 
    147 H147        0.7393  -23.4810  -41.3790 H         1 UNK         0.0600 
    148 H148        1.7671  -22.8509  -42.6640 H         1 UNK         0.0600 
    149 H149        0.9309  -20.3704  -43.6583 H         1 UNK         0.3000 
    150 H150        0.5546  -17.1188  -42.3951 H         1 UNK         0.0600 
    151 H151        3.2533  -18.5066  -42.7752 H         1 UNK         0.0600 
    152 H152        2.7752  -17.5352  -41.3911 H         1 UNK         0.0600 
    153 H153        2.9525  -16.7807  -42.9687 H         1 UNK         0.0600 
    154 H154        1.7754  -18.0104  -44.7785 H         1 UNK         0.3000 
    155 H155       -1.2579  -18.5768  -46.6237 H         1 UNK         0.0600 
    156 H156        0.8613  -16.3803  -46.6861 H         1 UNK         0.0600 
    157 H157       -0.8735  -16.1319  -46.6921 H         1 UNK         0.0600 
    158 H158       -0.1136  -16.8966  -48.0658 H         1 UNK         0.0600 
    159 H159        1.7281  -18.8000  -46.6078 H         1 UNK         0.3000 
    160 H160        1.6231  -22.1227  -47.6651 H         1 UNK         0.0600 
    161 H161        2.4980  -19.8258  -49.5004 H         1 UNK         0.0600 
    162 H162        1.2985  -21.0279  -49.9344 H         1 UNK         0.0600 
    163 H163        2.9551  -21.5225  -49.6435 H         1 UNK         0.0600 
    164 H164        3.8154  -20.3486  -47.5616 H         1 UNK         0.3000 
    165 H165        4.2904  -20.0132  -44.1047 H         1 UNK         0.0600 
    166 H166        6.4618  -21.0993  -44.5494 H         1 UNK         0.0600 
    167 H167        5.8517  -21.7763  -46.0600 H         1 UNK         0.0600 
    168 H168        5.1877  -22.3070  -44.5192 H         1 UNK         0.0600 
    169 H169        6.0233  -19.2528  -46.1361 H         1 UNK         0.3000 
    170 H170        5.3191  -16.0905  -46.1878 H         1 UNK         0.0600 
    171 H171        7.2274  -17.6349  -46.5334 H         1 UNK         0.0600 
    172 H172        6.5291  -18.2104  -48.0504 H         1 UNK         0.0600 
    173 H173        7.0780  -16.5466  -47.8957 H         1 UNK         0.0600 
    174 H174        4.5333  -17.0030  -48.8863 H         1 UNK         0.3000 
    175 H175        3.1569  -14.7385  -49.9648 H         1 UNK         0.0600 
    176 H176        1.8671  -17.4496  -49.2795 H         1 UNK         0.0600 
    177 H177        1.5960  -16.6140  -50.8045 H         1 UNK         0.0600 
    178 H178        3.1999  -17.1736  -50.3940 H         1 UNK         0.0600 
    179 H179        1.2064  -14.6349  -47.9224 H         1 UNK         0.3000 
    180 H180       -0.9492  -12.5402  -49.6169 H         1 UNK         0.0600 
    181 H181       -1.9238  -15.3415  -48.8305 H         1 UNK         0.0600 
    182 H182       -2.1104  -14.6148  -50.4174 H         1 UNK         0.0600 
    183 H183       -2.9222  -13.9049  -49.0335 H         1 UNK         0.0600 
    184 H184       -1.3454  -13.6876  -47.0766 H         1 UNK         0.3000 
    185 H185        0.9714  -12.4496  -45.1334 H         1 UNK         0.0600 
    186 H186       -0.1846  -10.4548  -44.1697 H         1 UNK         0.0600 
    187 H187        0.7108  -10.0350  -45.6185 H         1 UNK         0.0600 
    188 H188       -1.0391  -10.2049  -45.6923 H         1 UNK         0.0600 
    189 H189       -1.9820  -12.3669  -44.9876 H         1 UNK         0.3000 
    190 H190       -3.8978  -22.6022  -42.8849 H         1 UNK         0.3000 
    191 H191       -5.5164  -24.6120  -44.0844 H         1 UNK         0.0600 
    192 H192       -5.9535  -25.2793  -41.7157 H         1 UNK         0.0600 
    193 H193       -6.0837  -23.5411  -41.9282 H         1 UNK         0.0600 
    194 H194       -4.6495  -24.2324  -41.1686 H         1 UNK         0.0600 
    195 H195       -2.2854  -24.7716  -42.5722 H         1 UNK         0.3000 
    196 H196       -2.1266  -27.6824  -42.6330 H         1 UNK         0.0600 
    197 H197        0.0403  -25.5746  -42.1395 H         1 UNK         0.0600 
    198 H198       -0.9535  -26.3216  -40.8872 H         1 UNK         0.0600 
    199 H199        0.1744  -27.2968  -41.8176 H         1 UNK         0.0600 
    200 H200       -1.0123  -24.9553  -44.6143 H         1 UNK         0.3000 
    201 H201        0.5395  -26.4799  -46.4919 H         1 UNK         0.0600 
    202 H202       -0.6930  -23.6782  -46.7124 H         1 UNK         0.0600 
    203 H203        0.6025  -24.3298  -47.7117 H         1 UNK         0.0600 
    204 H204        0.8779  -24.0424  -46.0021 H         1 UNK         0.0600 
    205 H205       -2.8033  -26.3439  -46.0761 H         1 UNK         0.3000 
    206 H206       -4.6128  -26.9460  -47.1878 H         1 UNK         0.0600 
    207 H207       -3.3266  -29.0238  -47.7387 H         1 UNK         0.0600 
    208 H208       -4.4927  -28.6178  -48.9875 H         1 UNK         0.0600 
    209 H209       -2.7862  -28.2913  -49.2488 H         1 UNK         0.0600 
    210 H210       -3.7934  -24.3986  -47.4748 H         1 UNK         0.3000 
    211 H211       -4.1212  -22.5117  -48.4632 H         1 UNK         0.0600 
    212 H212       -6.0999  -22.2142  -49.9129 H         1 UNK         0.0600 
    213 H213       -6.4696  -23.3379  -48.6169 H         1 UNK         0.0600 
    214 H214       -6.1584  -23.9405  -50.2460 H         1 UNK         0.0600 
    215 H215       -1.8628  -23.8350  -49.3891 H         1 UNK         0.3000 
    216 H216       -1.4313  -23.9145  -52.1162 H         1 UNK         0.0600 
    217 H217        0.5098  -23.2580  -49.8450 H         1 UNK         0.0600 
    218 H218        1.0124  -23.6562  -51.4838 H         1 UNK         0.0600 
    219 H219        0.1587  -24.8470  -50.5191 H         1 UNK         0.0600 
    220 H220       -1.4097  -20.9935  -50.0904 H         1 UNK         0.3000 
    221 H221       -0.2062  -19.2589  -52.0304 H         1 UNK         0.0600 
    222 H222       -0.1953  -18.6775  -49.6657 H         1 UNK         0.0600 
    223 H223       -1.9569  -18.6385  -49.6039 H         1 UNK         0.0600 
    224 H224       -1.0757  -17.4406  -50.5391 H         1 UNK         0.0600 
    225 H225       -3.3796  -20.6642  -52.0355 H         1 UNK         0.3000 
    226 H226       -4.8717  -18.5333  -53.1648 H         1 UNK         0.0600 
    227 H227       -5.2802  -21.5481  -53.4764 H         1 UNK         0.0600 
    228 H228       -5.8936  -20.5649  -52.1454 H         1 UNK         0.0600 
    229 H229       -6.4841  -20.3030  -53.7793 H         1 UNK         0.0600 
    230 H230       -2.4408  -20.5440  -54.6080 H         1 UNK         0.3000 
    231 H231       -3.1459  -20.0816  -57.3851 H         1 UNK         0.0600 
    232 H232       -0.5219  -20.9474  -56.0537 H         1 UNK         0.0600 
    233 H233       -0.8530  -20.9946  -57.7821 H         1 UNK         0.0600 
    234 H234       -1.7652  -22.0242  -56.6893 H         1 UNK         0.0600 
    235 H235       -1.4970  -18.2109  -54.8926 H         1 UNK         0.3000 
    236 H236       -0.2380  -16.3617  -56.8353 H         1 UNK         0.0600 
    237 H237        1.0881  -17.1177  -54.8545 H         1 UNK         0.0600 
    238 H238        0.8087  -15.3833  -54.8328 H         1 UNK         0.0600 
    239 H239       -0.1220  -16.4287  -53.7729 H         1 UNK         0.0600 
    240 H240       -2.8962  -16.5751  -54.4797 H         1 UNK         0.3000 
    241 H241       -3.6994  -13.8930  -54.4053 H         1 UNK         0.0600 
    242 H242       -5.8233  -13.0832  -57.1428 H         1 UNK         0.3800 
    243 H243       -5.2433  -12.5969  -55.5759 H         1 UNK         0.3800 
    244 H244       -5.4360  -16.4017  -54.1459 H         1 UNK         0.0800 
    245 H245       -5.9501  -14.7916  -53.7042 H         1 UNK         0.0800 
    246 H246       -6.1599  -17.2047  -51.7584 H         1 UNK         0.0800 
    247 H247       -6.6029  -15.5959  -51.2484 H         1 UNK         0.0800 
@<TRIPOS>BOND
     1    1    2 1    
     2    1  127 1    
     3    1  128 1    
     4    1  129 1    
     5    2    3 2    
     6    2    4 am   BACKBONE|DICT|INTERRES
     7    4    5 1    
     8    4  130 1    
     9    5    6 1    
    10    5   65 1    
    11    5  131 1    
    12    6    7 1    
    13    6  132 1    
    14    6  133 1    
    15    7    8 1    
    16    8    9 1    
    17    8  134 1    
    18    8  135 1    
    19    9   10 ar   
    20    9   14 ar   
    21   10   11 ar   
    22   10  136 1    
    23   11   12 ar   
    24   11  126 1    
    25   12   13 ar   
    26   12  137 1    
    27   13   14 ar   
    28   13   15 1    
    29   14  138 1    
    30   15   16 1    
    31   15  139 1    
    32   15  140 1    
    33   16   17 1    
    34   17   18 1    
    35   17  141 1    
    36   17  142 1    
    37   18   19 1    
    38   18   67 1    
    39   18  143 1    
    40   19   20 am   BACKBONE|DICT|INTERRES
    41   19  144 1    
    42   20   21 2    
    43   20   22 1    
    44   22   23 1    
    45   22   24 1    
    46   22  145 1    
    47   23  146 1    
    48   23  147 1    
    49   23  148 1    
    50   24   25 am   BACKBONE|DICT|INTERRES
    51   24  149 1    
    52   25   26 2    
    53   25   27 1    
    54   27   28 1    
    55   27   29 1    
    56   27  150 1    
    57   28  151 1    
    58   28  152 1    
    59   28  153 1    
    60   29   30 am   BACKBONE|DICT|INTERRES
    61   29  154 1    
    62   30   31 2    
    63   30   32 1    
    64   32   33 1    
    65   32   34 1    
    66   32  155 1    
    67   33  156 1    
    68   33  157 1    
    69   33  158 1    
    70   34   35 am   BACKBONE|DICT|INTERRES
    71   34  159 1    
    72   35   36 2    
    73   35   37 1    
    74   37   38 1    
    75   37   39 1    
    76   37  160 1    
    77   38  161 1    
    78   38  162 1    
    79   38  163 1    
    80   39   40 am   BACKBONE|DICT|INTERRES
    81   39  164 1    
    82   40   41 2    
    83   40   42 1    
    84   42   43 1    
    85   42   44 1    
    86   42  165 1    
    87   43  166 1    
    88   43  167 1    
    89   43  168 1    
    90   44   45 am   BACKBONE|DICT|INTERRES
    91   44  169 1    
    92   45   46 2    
    93   45   47 1    
    94   47   48 1    
    95   47   49 1    
    96   47  170 1    
    97   48  171 1    
    98   48  172 1    
    99   48  173 1    
   100   49   50 am   BACKBONE|DICT|INTERRES
   101   49  174 1    
   102   50   51 2    
   103   50   52 1    
   104   52   53 1    
   105   52   54 1    
   106   52  175 1    
   107   53  176 1    
   108   53  177 1    
   109   53  178 1    
   110   54   55 am   BACKBONE|DICT|INTERRES
   111   54  179 1    
   112   55   56 2    
   113   55   57 1    
   114   57   58 1    
   115   57   59 1    
   116   57  180 1    
   117   58  181 1    
   118   58  182 1    
   119   58  183 1    
   120   59   60 am   BACKBONE|DICT|INTERRES
   121   59  184 1    
   122   60   61 2    
   123   60   62 1    
   124   62   63 1    
   125   62   64 1    
   126   62  185 1    
   127   63  186 1    
   128   63  187 1    
   129   63  188 1    
   130   64   65 am   BACKBONE|DICT|INTERRES
   131   64  189 1    
   132   65   66 2    
   133   67   68 2    
   134   67   69 am   BACKBONE|DICT|INTERRES
   135   69   70 1    
   136   69  190 1    
   137   70   71 1    
   138   70   72 1    
   139   70  191 1    
   140   71  192 1    
   141   71  193 1    
   142   71  194 1    
   143   72   73 2    
   144   72   74 am   BACKBONE|DICT|INTERRES
   145   74   75 1    
   146   74  195 1    
   147   75   76 1    
   148   75   77 1    
   149   75  196 1    
   150   76  197 1    
   151   76  198 1    
   152   76  199 1    
   153   77   78 2    
   154   77   79 am   BACKBONE|DICT|INTERRES
   155   79   80 1    
   156   79  200 1    
   157   80   81 1    
   158   80   82 1    
   159   80  201 1    
   160   81  202 1    
   161   81  203 1    
   162   81  204 1    
   163   82   83 2    
   164   82   84 am   BACKBONE|DICT|INTERRES
   165   84   85 1    
   166   84  205 1    
   167   85   86 1    
   168   85   87 1    
   169   85  206 1    
   170   86  207 1    
   171   86  208 1    
   172   86  209 1    
   173   87   88 2    
   174   87   89 am   BACKBONE|DICT|INTERRES
   175   89   90 1    
   176   89  210 1    
   177   90   91 1    
   178   90   92 1    
   179   90  211 1    
   180   91  212 1    
   181   91  213 1    
   182   91  214 1    
   183   92   93 2    
   184   92   94 am   BACKBONE|DICT|INTERRES
   185   94   95 1    
   186   94  215 1    
   187   95   96 1    
   188   95   97 1    
   189   95  216 1    
   190   96  217 1    
   191   96  218 1    
   192   96  219 1    
   193   97   98 2    
   194   97   99 am   BACKBONE|DICT|INTERRES
   195   99  100 1    
   196   99  220 1    
   197  100  101 1    
   198  100  102 1    
   199  100  221 1    
   200  101  222 1    
   201  101  223 1    
   202  101  224 1    
   203  102  103 2    
   204  102  104 am   BACKBONE|DICT|INTERRES
   205  104  105 1    
   206  104  225 1    
   207  105  106 1    
   208  105  107 1    
   209  105  226 1    
   210  106  227 1    
   211  106  228 1    
   212  106  229 1    
   213  107  108 2    
   214  107  109 am   BACKBONE|DICT|INTERRES
   215  109  110 1    
   216  109  230 1    
   217  110  111 1    
   218  110  112 1    
   219  110  231 1    
   220  111  232 1    
   221  111  233 1    
   222  111  234 1    
   223  112  113 2    
   224  112  114 am   BACKBONE|DICT|INTERRES
   225  114  115 1    
   226  114  235 1    
   227  115  116 1    
   228  115  117 1    
   229  115  236 1    
   230  116  237 1    
   231  116  238 1    
   232  116  239 1    
   233  117  118 2    
   234  117  119 am   BACKBONE|DICT|INTERRES
   235  119  120 1    
   236  119  240 1    
   237  120  121 1    
   238  120  124 1    
   239  120  241 1    
   240  121  122 am   BACKBONE|DICT|INTERRES
   241  121  123 2    
   242  122  242 1    
   243  122  243 1    
   244  124  125 1    
   245  124  244 1    
   246  124  245 1    
   247  125  126 1    
   248  126  246 1    
   249  126  247 1    
@<TRIPOS>SUBSTRUCTURE
     1 UNK         1 GROUP             0       ****    0 ROOT    
