@<TRIPOS>MOLECULE
3R540
247   249    1
SMALL
USER_CHARGES


@<TRIPOS>ATOM
      1 CA          3.5719  -11.5875  -48.6657 C.3       0 UNK        -0.1800 
      2 C           2.4735  -12.0746  -47.7323 C.2       0 UNK         0.5000 
      3 O           2.7587  -12.4709  -46.6028 O.2       0 UNK        -0.5000 
      4 N           1.2163  -12.0325  -48.1894 N.am      1 UNK        -0.5000 
      5 CA          0.0159  -12.4927  -47.4763 C.3       1 UNK         0.1400 
      6 C6         -1.1224  -12.8755  -48.4592 C.3       23 UNK        -0.0398 
      7 S7         -0.6233  -14.1297  -49.6908 S.3       23 UNK        -0.2404 
      8 C8         -1.4562  -15.6102  -49.0448 C.3       23 UNK        -0.0205 
      9 C9         -1.2966  -16.7928  -49.9882 C.ar      23 UNK        -0.0193 
     10 C10        -2.3069  -17.1029  -50.9022 C.ar      23 UNK        -0.1150 
     11 C11        -2.1702  -18.1855  -51.7762 C.ar      23 UNK        -0.0193 
     12 C12        -1.0083  -18.9625  -51.7307 C.ar      23 UNK        -0.1150 
     13 C13         0.0175  -18.6537  -50.8303 C.ar      23 UNK        -0.0193 
     14 C14        -0.1379  -17.5729  -49.9557 C.ar      23 UNK        -0.1150 
     15 C15         1.3200  -19.4437  -50.8461 C.3       23 UNK        -0.0205 
     16 S16         1.1674  -21.0964  -50.0989 S.3       23 UNK        -0.2404 
     17 C17         0.9188  -20.6910  -48.3374 C.3       23 UNK        -0.0398 
     18 CA         -0.2316  -21.4894  -47.6820 C.3       11 UNK         0.1400 
     19 N          -0.2238  -21.3484  -46.2240 N.am      11 UNK        -0.5000 
     20 C          -0.9930  -22.0516  -45.3810 C.2       10 UNK         0.5000 
     21 O          -1.7551  -22.9492  -45.7377 O.2       10 UNK        -0.5000 
     22 CA         -0.9434  -21.6494  -43.8960 C.3       10 UNK         0.1400 
     23 CB          0.2773  -22.2699  -43.2009 C.3       10 UNK        -0.1800 
     24 N          -0.9350  -20.1974  -43.7124 N.am      10 UNK        -0.5000 
     25 C          -1.9410  -19.3834  -44.0646 C.2       9 UNK         0.5000 
     26 O          -3.0146  -19.7840  -44.5140 O.2       9 UNK        -0.5000 
     27 CA         -1.6847  -17.8681  -43.9503 C.3       9 UNK         0.1400 
     28 CB         -1.8738  -17.3823  -42.5061 C.3       9 UNK        -0.1800 
     29 N          -0.3544  -17.4873  -44.4285 N.am      9 UNK        -0.5000 
     30 C           0.0687  -17.6425  -45.6908 C.2       8 UNK         0.5000 
     31 O          -0.6416  -18.0679  -46.5983 O.2       8 UNK        -0.5000 
     32 CA          1.5454  -17.3290  -45.9797 C.3       8 UNK         0.1400 
     33 CB          1.7543  -15.8324  -46.2454 C.3       8 UNK        -0.1800 
     34 N           2.4119  -17.7737  -44.8893 N.am      8 UNK        -0.5000 
     35 C           2.6865  -19.0606  -44.6329 C.2       7 UNK         0.5000 
     36 O           2.2635  -19.9952  -45.3132 O.2       7 UNK        -0.5000 
     37 CA          3.5422  -19.3531  -43.3868 C.3       7 UNK         0.1400 
     38 CB          5.0362  -19.1959  -43.7063 C.3       7 UNK        -0.1800 
     39 N           3.1948  -18.4964  -42.2520 N.am      7 UNK        -0.5000 
     40 C           2.0240  -18.5439  -41.6011 C.2       6 UNK         0.5000 
     41 O           1.1293  -19.3457  -41.8654 O.2       6 UNK        -0.5000 
     42 CA          1.7940  -17.4879  -40.5034 C.3       6 UNK         0.1400 
     43 CB          2.3341  -17.9857  -39.1548 C.3       6 UNK        -0.1800 
     44 N           2.3786  -16.1778  -40.8054 N.am      6 UNK        -0.5000 
     45 C           2.0903  -15.4320  -41.8796 C.2       5 UNK         0.5000 
     46 O           1.3091  -15.7847  -42.7647 O.2       5 UNK        -0.5000 
     47 CA          2.7775  -14.0583  -41.9593 C.3       5 UNK         0.1400 
     48 CB          2.9805  -13.5958  -43.4123 C.3       5 UNK        -0.1800 
     49 N           1.9823  -13.0565  -41.2570 N.am      5 UNK        -0.5000 
     50 C           1.9482  -12.8925  -39.9246 C.2       4 UNK         0.5000 
     51 O           2.6239  -13.5649  -39.1443 O.2       4 UNK        -0.5000 
     52 CA          1.0176  -11.8026  -39.3607 C.3       4 UNK         0.1400 
     53 CB          1.8327  -10.5337  -39.0401 C.3       4 UNK        -0.1800 
     54 N          -0.0621  -11.5038  -40.2993 N.am      4 UNK        -0.5000 
     55 C          -1.1231  -10.7158  -40.1156 C.2       3 UNK         0.5000 
     56 O          -1.3735  -10.1357  -39.0576 O.2       3 UNK        -0.5000 
     57 CA         -2.0393  -10.5421  -41.3503 C.3       3 UNK         0.1400 
     58 CB         -3.2080   -9.5743  -41.0908 C.3       3 UNK        -0.1800 
     59 N          -1.3054  -10.0851  -42.5383 N.am      3 UNK        -0.5000 
     60 C          -0.4784  -10.8257  -43.2880 C.2       2 UNK         0.5000 
     61 O          -0.2141  -12.0075  -43.0474 O.2       2 UNK        -0.5000 
     62 CA          0.2338  -10.1082  -44.4463 C.3       2 UNK         0.1400 
     63 CB          1.5806   -9.5436  -43.9688 C.3       2 UNK        -0.1800 
     64 N           0.4790  -11.0192  -45.5615 N.am      2 UNK        -0.5000 
     65 C          -0.4515  -11.4713  -46.4097 C.2       1 UNK         0.5000 
     66 O          -1.6250  -11.0945  -46.3814 O.2       1 UNK        -0.5000 
     67 C          -1.6126  -21.1503  -48.2845 C.2       11 UNK         0.5000 
     68 O          -2.1114  -21.9202  -49.1017 O.2       11 UNK        -0.5000 
     69 N          -2.2350  -20.0545  -47.8281 N.am      12 UNK        -0.5000 
     70 CA         -3.5813  -19.6407  -48.2271 C.3       12 UNK         0.1400 
     71 CB         -3.8943  -18.2604  -47.6310 C.3       12 UNK        -0.1800 
     72 C          -4.6687  -20.6540  -47.8235 C.2       12 UNK         0.5000 
     73 O          -5.5925  -20.8935  -48.6004 O.2       12 UNK        -0.5000 
     74 N          -4.5357  -21.2361  -46.6228 N.am      13 UNK        -0.5000 
     75 CA         -5.4248  -22.2750  -46.1032 C.3       13 UNK         0.1400 
     76 CB         -5.1608  -22.4740  -44.6028 C.3       13 UNK        -0.1800 
     77 C          -5.2921  -23.6056  -46.8679 C.2       13 UNK         0.5000 
     78 O          -6.3067  -24.2357  -47.1687 O.2       13 UNK        -0.5000 
     79 N          -4.0496  -24.0028  -47.1744 N.am      14 UNK        -0.5000 
     80 CA         -3.7245  -25.1884  -47.9689 C.3       14 UNK         0.1400 
     81 CB         -2.2298  -25.4963  -47.8122 C.3       14 UNK        -0.1800 
     82 C          -4.0962  -25.0333  -49.4555 C.2       14 UNK         0.5000 
     83 O          -4.5248  -26.0063  -50.0787 O.2       14 UNK        -0.5000 
     84 N          -3.9333  -23.8141  -49.9878 N.am      15 UNK        -0.5000 
     85 CA         -4.2411  -23.3797  -51.3483 C.3       15 UNK         0.1400 
     86 CB         -5.7724  -23.3094  -51.5429 C.3       15 UNK        -0.1800 
     87 C          -3.5021  -24.2430  -52.3886 C.2       15 UNK         0.5000 
     88 O          -2.2692  -24.2539  -52.3979 O.2       15 UNK        -0.5000 
     89 N          -4.2589  -24.9891  -53.2054 N.am      16 UNK        -0.5000 
     90 CA         -3.7720  -25.8732  -54.2663 C.3       16 UNK         0.1400 
     91 CB         -4.9826  -26.4702  -54.9996 C.3       16 UNK        -0.1800 
     92 C          -2.8277  -26.9959  -53.7873 C.2       16 UNK         0.5000 
     93 O          -2.0617  -27.5232  -54.5944 O.2       16 UNK        -0.5000 
     94 N          -2.8897  -27.3441  -52.4938 N.am      17 UNK        -0.5000 
     95 CA         -1.9965  -28.3150  -51.8633 C.3       17 UNK         0.1400 
     96 CB         -2.6584  -28.8506  -50.5844 C.3       17 UNK        -0.1800 
     97 C          -0.5965  -27.7453  -51.5535 C.2       17 UNK         0.5000 
     98 O           0.3272  -28.5352  -51.3526 O.2       17 UNK        -0.5000 
     99 N          -0.4557  -26.4121  -51.5053 N.am      18 UNK        -0.5000 
    100 CA         0.7976  -25.7233  -51.1914 C.3       18 UNK         0.1400 
    101 CB         0.5792  -24.7834  -49.9965 C.3       18 UNK        -0.1800 
    102 C          1.3507  -24.9432  -52.3933 C.2       18 UNK         0.5000 
    103 O          2.5594  -24.9873  -52.6287 O.2       18 UNK        -0.5000 
    104 N          0.4795  -24.2439  -53.1288 N.am      19 UNK        -0.5000 
    105 CA         0.8427  -23.3870  -54.2535 C.3       19 UNK         0.1400 
    106 CB         1.3699  -22.0308  -53.7338 C.3       19 UNK        -0.1800 
    107 C         -0.3540  -23.2771  -55.2133 C.2       19 UNK         0.5000 
    108 O         -0.9096  -24.3049  -55.6031 O.2       19 UNK        -0.5000 
    109 N         -0.7190  -22.0490  -55.6011 N.am      20 UNK        -0.5000 
    110 CA        -1.8831  -21.7440  -56.4299 C.3       20 UNK         0.1400 
    111 CB        -1.7547  -20.3026  -56.9471 C.3       20 UNK        -0.1800 
    112 C         -3.1954  -21.9122  -55.6444 C.2       20 UNK         0.5000 
    113 O         -3.2168  -21.7060  -54.4295 O.2       20 UNK        -0.5000 
    114 N         -4.2747  -22.2487  -56.3598 N.am      21 UNK        -0.5000 
    115 CA        -5.6247  -22.3433  -55.8101 C.3       21 UNK         0.1400 
    116 CB        -6.5421  -23.0276  -56.8355 C.3       21 UNK        -0.1800 
    117 C         -6.1656  -20.9519  -55.4298 C.2       21 UNK         0.5000 
    118 O         -6.1821  -20.0544  -56.2754 O.2       21 UNK        -0.5000 
    119 N         -6.6005  -20.8048  -54.1760 N.am      22 UNK        -0.5000 
    120 CA        -7.1353  -19.5597  -53.6059 C.3       22 UNK         0.1400 
    121 C         -8.1616  -19.7899  -52.4575 C.2       22 UNK         0.5000 
    122 N         -8.7129  -20.9874  -52.2906 N.am      22 UNK        -0.7600 
    123 O         -8.4936  -18.8651  -51.7209 O.2       22 UNK        -0.5000 
    124 C124       -6.0235  -18.5293  -53.2638 C.3       23 UNK        -0.0398 
    125 S125       -4.7797  -19.1105  -52.0535 S.3       23 UNK        -0.2404 
    126 C126       -3.2532  -18.4635  -52.8082 C.3       23 UNK        -0.0205 
    127 H127        3.1733  -11.2659  -49.6281 H         1 UNK         0.0600 
    128 H128        4.2915  -12.3862  -48.8451 H         1 UNK         0.0600 
    129 H129        4.0994  -10.7460  -48.2166 H         1 UNK         0.0600 
    130 H130        1.0489  -11.6796  -49.1207 H         1 UNK         0.3000 
    131 H131        0.2766  -13.3956  -46.9229 H         1 UNK         0.0600 
    132 H132       -1.9922  -13.2424  -47.9115 H         1 UNK         0.0800 
    133 H133       -1.4629  -11.9934  -49.0043 H         1 UNK         0.0800 
    134 H134       -1.0516  -15.8573  -48.0634 H         1 UNK         0.0800 
    135 H135       -2.5151  -15.3928  -48.8973 H         1 UNK         0.0800 
    136 H136       -3.2003  -16.4958  -50.9420 H         1 UNK         0.1150 
    137 H137       -0.8913  -19.7925  -52.4126 H         1 UNK         0.1150 
    138 H138        0.6499  -17.3227  -49.2595 H         1 UNK         0.1150 
    139 H139        1.6525  -19.5573  -51.8787 H         1 UNK         0.0800 
    140 H140        2.1122  -18.8931  -50.3363 H         1 UNK         0.0800 
    141 H141        1.8567  -20.9117  -47.8266 H         1 UNK         0.0800 
    142 H142        0.7579  -19.6213  -48.2158 H         1 UNK         0.0800 
    143 H143       -0.0490  -22.5469  -47.8854 H         1 UNK         0.0600 
    144 H144        0.4151  -20.6606  -45.8401 H         1 UNK         0.3000 
    145 H145       -1.8421  -22.0416  -43.4158 H         1 UNK         0.0600 
    146 H146        0.2720  -22.0558  -42.1320 H         1 UNK         0.0600 
    147 H147        0.2825  -23.3545  -43.3156 H         1 UNK         0.0600 
    148 H148        1.2130  -21.8909  -43.6123 H         1 UNK         0.0600 
    149 H149       -0.1060  -19.7973  -43.2823 H         1 UNK         0.3000 
    150 H150       -2.4189  -17.3589  -44.5779 H         1 UNK         0.0600 
    151 H151       -2.8859  -17.5892  -42.1562 H         1 UNK         0.0600 
    152 H152       -1.7135  -16.3068  -42.4267 H         1 UNK         0.0600 
    153 H153       -1.1842  -17.8750  -41.8214 H         1 UNK         0.0600 
    154 H154        0.2792  -17.0706  -43.7518 H         1 UNK         0.3000 
    155 H155        1.8351  -17.8688  -46.8834 H         1 UNK         0.0600 
    156 H156        2.8091  -15.5933  -46.3812 H         1 UNK         0.0600 
    157 H157        1.3725  -15.2171  -45.4308 H         1 UNK         0.0600 
    158 H158        1.2376  -15.5311  -47.1566 H         1 UNK         0.0600 
    159 H159        2.7321  -17.0658  -44.2450 H         1 UNK         0.3000 
    160 H160        3.3627  -20.3906  -43.0967 H         1 UNK         0.0600 
    161 H161        5.2859  -18.1699  -43.9794 H         1 UNK         0.0600 
    162 H162        5.3260  -19.8375  -44.5396 H         1 UNK         0.0600 
    163 H163        5.6533  -19.4761  -42.8524 H         1 UNK         0.0600 
    164 H164        3.8759  -17.8072  -41.9696 H         1 UNK         0.3000 
    165 H165        0.7161  -17.3477  -40.4052 H         1 UNK         0.0600 
    166 H166        3.4175  -18.1097  -39.1756 H         1 UNK         0.0600 
    167 H167        2.0909  -17.2898  -38.3516 H         1 UNK         0.0600 
    168 H168        1.8976  -18.9500  -38.8910 H         1 UNK         0.0600 
    169 H169        2.9840  -15.7811  -40.0992 H         1 UNK         0.3000 
    170 H170        3.7621  -14.1345  -41.4929 H         1 UNK         0.0600 
    171 H171        3.5399  -14.3350  -43.9867 H         1 UNK         0.0600 
    172 H172        2.0308  -13.4331  -43.9233 H         1 UNK         0.0600 
    173 H173        3.5411  -12.6620  -43.4541 H         1 UNK         0.0600 
    174 H174        1.3823  -12.5019  -41.8529 H         1 UNK         0.3000 
    175 H175        0.5759  -12.1880  -38.4399 H         1 UNK         0.0600 
    176 H176        1.2312   -9.7874  -38.5219 H         1 UNK         0.0600 
    177 H177        2.6788  -10.7651  -38.3916 H         1 UNK         0.0600 
    178 H178        2.2292  -10.0743  -39.9464 H         1 UNK         0.0600 
    179 H179       -0.0032  -11.9513  -41.2088 H         1 UNK         0.3000 
    180 H180       -2.4669  -11.5231  -41.5681 H         1 UNK         0.0600 
    181 H181       -3.8699   -9.5146  -41.9550 H         1 UNK         0.0600 
    182 H182       -3.8121   -9.9063  -40.2454 H         1 UNK         0.0600 
    183 H183       -2.8547   -8.5667  -40.8680 H         1 UNK         0.0600 
    184 H184       -1.4259   -9.1109  -42.7758 H         1 UNK         0.3000 
    185 H185       -0.3917   -9.2843  -44.7961 H         1 UNK         0.0600 
    186 H186        2.0899   -9.0083  -44.7704 H         1 UNK         0.0600 
    187 H187        1.4427   -8.8412  -43.1457 H         1 UNK         0.0600 
    188 H188        2.2468  -10.3333  -43.6182 H         1 UNK         0.0600 
    189 H189        1.4123  -11.4108  -45.6424 H         1 UNK         0.3000 
    190 H190       -1.7340  -19.4308  -47.1995 H         1 UNK         0.3000 
    191 H191       -3.5861  -19.5542  -49.3150 H         1 UNK         0.0600 
    192 H192       -4.8452  -17.8818  -48.0074 H         1 UNK         0.0600 
    193 H193       -3.1275  -17.5351  -47.8921 H         1 UNK         0.0600 
    194 H194       -3.9596  -18.2936  -46.5436 H         1 UNK         0.0600 
    195 H195       -3.7811  -20.9319  -46.0162 H         1 UNK         0.3000 
    196 H196       -6.4529  -21.9260  -46.2201 H         1 UNK         0.0600 
    197 H197       -5.8338  -23.2233  -44.1842 H         1 UNK         0.0600 
    198 H198       -5.3187  -21.5483  -44.0491 H         1 UNK         0.0600 
    199 H199       -4.1403  -22.8063  -44.4121 H         1 UNK         0.0600 
    200 H200       -3.2639  -23.4550  -46.8342 H         1 UNK         0.3000 
    201 H201       -4.2903  -26.0345  -47.5736 H         1 UNK         0.0600 
    202 H202       -1.9875  -25.7528  -46.7808 H         1 UNK         0.0600 
    203 H203       -1.6229  -24.6349  -48.0899 H         1 UNK         0.0600 
    204 H204       -1.9256  -26.3350  -48.4388 H         1 UNK         0.0600 
    205 H205       -3.4515  -23.1126  -49.4290 H         1 UNK         0.3000 
    206 H206       -3.8436  -22.3685  -51.4530 H         1 UNK         0.0600 
    207 H207       -6.2146  -22.5952  -50.8474 H         1 UNK         0.0600 
    208 H208       -6.0289  -22.9767  -52.5461 H         1 UNK         0.0600 
    209 H209       -6.2571  -24.2717  -51.3751 H         1 UNK         0.0600 
    210 H210       -5.2585  -24.9680  -53.0704 H         1 UNK         0.3000 
    211 H211       -3.2186  -25.2562  -54.9745 H         1 UNK         0.0600 
    212 H212       -5.5863  -27.0918  -54.3371 H         1 UNK         0.0600 
    213 H213       -4.6643  -27.0941  -55.8358 H         1 UNK         0.0600 
    214 H214       -5.6251  -25.6896  -55.4056 H         1 UNK         0.0600 
    215 H215       -3.5456  -26.8663  -51.8863 H         1 UNK         0.3000 
    216 H216       -1.8616  -29.1575  -52.5450 H         1 UNK         0.0600 
    217 H217       -2.0456  -29.6258  -50.1227 H         1 UNK         0.0600 
    218 H218       -3.6322  -29.2914  -50.7983 H         1 UNK         0.0600 
    219 H219       -2.8022  -28.0647  -49.8439 H         1 UNK         0.0600 
    220 H220       -1.2482  -25.8219  -51.7364 H         1 UNK         0.3000 
    221 H221        1.5681  -26.4403  -50.9007 H         1 UNK         0.0600 
    222 H222       -0.2487  -24.0934  -50.1680 H         1 UNK         0.0600 
    223 H223        0.3704  -25.3526  -49.0919 H         1 UNK         0.0600 
    224 H224        1.4702  -24.1865  -49.7981 H         1 UNK         0.0600 
    225 H225       -0.5131  -24.2657  -52.8990 H         1 UNK         0.3000 
    226 H226        1.6398  -23.8694  -54.8227 H         1 UNK         0.0600 
    227 H227        2.2281  -22.1663  -53.0754 H         1 UNK         0.0600 
    228 H228        1.7001  -21.3883  -54.5507 H         1 UNK         0.0600 
    229 H229        0.6055  -21.4983  -53.1681 H         1 UNK         0.0600 
    230 H230       -0.2307  -21.2581  -55.2092 H         1 UNK         0.3000 
    231 H231       -1.8912  -22.4251  -57.2836 H         1 UNK         0.0600 
    232 H232       -2.5942  -20.0420  -57.5930 H         1 UNK         0.0600 
    233 H233       -0.8436  -20.1718  -57.5313 H         1 UNK         0.0600 
    234 H234       -1.7361  -19.5817  -56.1284 H         1 UNK         0.0600 
    235 H235       -4.1898  -22.3568  -57.3599 H         1 UNK         0.3000 
    236 H236       -5.5841  -22.9732  -54.9200 H         1 UNK         0.0600 
    237 H237       -6.6277  -22.4438  -57.7530 H         1 UNK         0.0600 
    238 H238       -6.1706  -24.0165  -57.1036 H         1 UNK         0.0600 
    239 H239       -7.5478  -23.1556  -56.4332 H         1 UNK         0.0600 
    240 H240       -6.5068  -21.5657  -53.5219 H         1 UNK         0.3000 
    241 H241       -7.7474  -19.0998  -54.3840 H         1 UNK         0.0600 
    242 H242       -9.3802  -21.1127  -51.5455 H         1 UNK         0.3800 
    243 H243       -8.5454  -21.7427  -52.9339 H         1 UNK         0.3800 
    244 H244       -5.5166  -18.2506  -54.1881 H         1 UNK         0.0800 
    245 H245       -6.4603  -17.6030  -52.8878 H         1 UNK         0.0800 
    246 H246       -2.9027  -19.1686  -53.5629 H         1 UNK         0.0800 
    247 H247       -3.4654  -17.5314  -53.3336 H         1 UNK         0.0800 
@<TRIPOS>BOND
     1    1    2 1    
     2    1  127 1    
     3    1  128 1    
     4    1  129 1    
     5    2    3 2    
     6    2    4 am   BACKBONE|DICT|INTERRES
     7    4    5 1    
     8    4  130 1    
     9    5    6 1    
    10    5   65 1    
    11    5  131 1    
    12    6    7 1    
    13    6  132 1    
    14    6  133 1    
    15    7    8 1    
    16    8    9 1    
    17    8  134 1    
    18    8  135 1    
    19    9   10 ar   
    20    9   14 ar   
    21   10   11 ar   
    22   10  136 1    
    23   11   12 ar   
    24   11  126 1    
    25   12   13 ar   
    26   12  137 1    
    27   13   14 ar   
    28   13   15 1    
    29   14  138 1    
    30   15   16 1    
    31   15  139 1    
    32   15  140 1    
    33   16   17 1    
    34   17   18 1    
    35   17  141 1    
    36   17  142 1    
    37   18   19 1    
    38   18   67 1    
    39   18  143 1    
    40   19   20 am   BACKBONE|DICT|INTERRES
    41   19  144 1    
    42   20   21 2    
    43   20   22 1    
    44   22   23 1    
    45   22   24 1    
    46   22  145 1    
    47   23  146 1    
    48   23  147 1    
    49   23  148 1    
    50   24   25 am   BACKBONE|DICT|INTERRES
    51   24  149 1    
    52   25   26 2    
    53   25   27 1    
    54   27   28 1    
    55   27   29 1    
    56   27  150 1    
    57   28  151 1    
    58   28  152 1    
    59   28  153 1    
    60   29   30 am   BACKBONE|DICT|INTERRES
    61   29  154 1    
    62   30   31 2    
    63   30   32 1    
    64   32   33 1    
    65   32   34 1    
    66   32  155 1    
    67   33  156 1    
    68   33  157 1    
    69   33  158 1    
    70   34   35 am   BACKBONE|DICT|INTERRES
    71   34  159 1    
    72   35   36 2    
    73   35   37 1    
    74   37   38 1    
    75   37   39 1    
    76   37  160 1    
    77   38  161 1    
    78   38  162 1    
    79   38  163 1    
    80   39   40 am   BACKBONE|DICT|INTERRES
    81   39  164 1    
    82   40   41 2    
    83   40   42 1    
    84   42   43 1    
    85   42   44 1    
    86   42  165 1    
    87   43  166 1    
    88   43  167 1    
    89   43  168 1    
    90   44   45 am   BACKBONE|DICT|INTERRES
    91   44  169 1    
    92   45   46 2    
    93   45   47 1    
    94   47   48 1    
    95   47   49 1    
    96   47  170 1    
    97   48  171 1    
    98   48  172 1    
    99   48  173 1    
   100   49   50 am   BACKBONE|DICT|INTERRES
   101   49  174 1    
   102   50   51 2    
   103   50   52 1    
   104   52   53 1    
   105   52   54 1    
   106   52  175 1    
   107   53  176 1    
   108   53  177 1    
   109   53  178 1    
   110   54   55 am   BACKBONE|DICT|INTERRES
   111   54  179 1    
   112   55   56 2    
   113   55   57 1    
   114   57   58 1    
   115   57   59 1    
   116   57  180 1    
   117   58  181 1    
   118   58  182 1    
   119   58  183 1    
   120   59   60 am   BACKBONE|DICT|INTERRES
   121   59  184 1    
   122   60   61 2    
   123   60   62 1    
   124   62   63 1    
   125   62   64 1    
   126   62  185 1    
   127   63  186 1    
   128   63  187 1    
   129   63  188 1    
   130   64   65 am   BACKBONE|DICT|INTERRES
   131   64  189 1    
   132   65   66 2    
   133   67   68 2    
   134   67   69 am   BACKBONE|DICT|INTERRES
   135   69   70 1    
   136   69  190 1    
   137   70   71 1    
   138   70   72 1    
   139   70  191 1    
   140   71  192 1    
   141   71  193 1    
   142   71  194 1    
   143   72   73 2    
   144   72   74 am   BACKBONE|DICT|INTERRES
   145   74   75 1    
   146   74  195 1    
   147   75   76 1    
   148   75   77 1    
   149   75  196 1    
   150   76  197 1    
   151   76  198 1    
   152   76  199 1    
   153   77   78 2    
   154   77   79 am   BACKBONE|DICT|INTERRES
   155   79   80 1    
   156   79  200 1    
   157   80   81 1    
   158   80   82 1    
   159   80  201 1    
   160   81  202 1    
   161   81  203 1    
   162   81  204 1    
   163   82   83 2    
   164   82   84 am   BACKBONE|DICT|INTERRES
   165   84   85 1    
   166   84  205 1    
   167   85   86 1    
   168   85   87 1    
   169   85  206 1    
   170   86  207 1    
   171   86  208 1    
   172   86  209 1    
   173   87   88 2    
   174   87   89 am   BACKBONE|DICT|INTERRES
   175   89   90 1    
   176   89  210 1    
   177   90   91 1    
   178   90   92 1    
   179   90  211 1    
   180   91  212 1    
   181   91  213 1    
   182   91  214 1    
   183   92   93 2    
   184   92   94 am   BACKBONE|DICT|INTERRES
   185   94   95 1    
   186   94  215 1    
   187   95   96 1    
   188   95   97 1    
   189   95  216 1    
   190   96  217 1    
   191   96  218 1    
   192   96  219 1    
   193   97   98 2    
   194   97   99 am   BACKBONE|DICT|INTERRES
   195   99  100 1    
   196   99  220 1    
   197  100  101 1    
   198  100  102 1    
   199  100  221 1    
   200  101  222 1    
   201  101  223 1    
   202  101  224 1    
   203  102  103 2    
   204  102  104 am   BACKBONE|DICT|INTERRES
   205  104  105 1    
   206  104  225 1    
   207  105  106 1    
   208  105  107 1    
   209  105  226 1    
   210  106  227 1    
   211  106  228 1    
   212  106  229 1    
   213  107  108 2    
   214  107  109 am   BACKBONE|DICT|INTERRES
   215  109  110 1    
   216  109  230 1    
   217  110  111 1    
   218  110  112 1    
   219  110  231 1    
   220  111  232 1    
   221  111  233 1    
   222  111  234 1    
   223  112  113 2    
   224  112  114 am   BACKBONE|DICT|INTERRES
   225  114  115 1    
   226  114  235 1    
   227  115  116 1    
   228  115  117 1    
   229  115  236 1    
   230  116  237 1    
   231  116  238 1    
   232  116  239 1    
   233  117  118 2    
   234  117  119 am   BACKBONE|DICT|INTERRES
   235  119  120 1    
   236  119  240 1    
   237  120  121 1    
   238  120  124 1    
   239  120  241 1    
   240  121  122 am   BACKBONE|DICT|INTERRES
   241  121  123 2    
   242  122  242 1    
   243  122  243 1    
   244  124  125 1    
   245  124  244 1    
   246  124  245 1    
   247  125  126 1    
   248  126  246 1    
   249  126  247 1    
@<TRIPOS>SUBSTRUCTURE
     1 UNK         1 GROUP             0       ****    0 ROOT    
