@<TRIPOS>MOLECULE
3R540
247   249    1
SMALL
USER_CHARGES


@<TRIPOS>ATOM
      1 CA          0.1161  -11.0867  -49.4072 C.3       0 UNK        -0.1800 
      2 C           0.6970  -12.3506  -48.7906 C.2       0 UNK         0.5000 
      3 O           1.8855  -12.3880  -48.4729 O.2       0 UNK        -0.5000 
      4 N          -0.1387  -13.3820  -48.6061 N.am      1 UNK        -0.5000 
      5 CA          0.2303  -14.6835  -48.0297 C.3       1 UNK         0.1400 
      6 C6         -0.9072  -15.7270  -48.1796 C.3       23 UNK        -0.0398 
      7 S7         -2.4386  -15.3095  -47.2682 S.3       23 UNK        -0.2404 
      8 C8         -3.5378  -14.7233  -48.5966 C.3       23 UNK        -0.0205 
      9 C9         -4.0714  -15.8665  -49.4455 C.ar      23 UNK        -0.0193 
     10 C10        -3.6991  -15.9928  -50.7872 C.ar      23 UNK        -0.1150 
     11 C11        -4.2188  -17.0256  -51.5739 C.ar      23 UNK        -0.0193 
     12 C12        -5.0976  -17.9494  -50.9996 C.ar      23 UNK        -0.1150 
     13 C13        -5.4775  -17.8326  -49.6599 C.ar      23 UNK        -0.0193 
     14 C14        -4.9679  -16.7836  -48.8914 C.ar      23 UNK        -0.1150 
     15 C15        -6.4638  -18.8201  -49.0555 C.3       23 UNK        -0.0205 
     16 S16        -5.6704  -20.3901  -48.5895 S.3       23 UNK        -0.2404 
     17 C17        -4.7679  -19.9405  -47.0650 C.3       23 UNK        -0.0398 
     18 CA         -3.3690  -20.5989  -46.9871 C.3       11 UNK         0.1400 
     19 N          -2.4990  -19.9219  -46.0182 N.am      11 UNK        -0.5000 
     20 C          -1.1819  -20.1474  -45.9071 C.2       10 UNK         0.5000 
     21 O          -0.5595  -20.9152  -46.6381 O.2       10 UNK        -0.5000 
     22 CA         -0.4370  -19.4532  -44.7531 C.3       10 UNK         0.1400 
     23 CB          0.1014  -18.0885  -45.1973 C.3       10 UNK        -0.1800 
     24 N          -1.2230  -19.3041  -43.5236 N.am      10 UNK        -0.5000 
     25 C          -1.7639  -20.3250  -42.8385 C.2       9 UNK         0.5000 
     26 O          -1.6771  -21.4953  -43.2096 O.2       9 UNK        -0.5000 
     27 CA         -2.5258  -20.0192  -41.5338 C.3       9 UNK         0.1400 
     28 CB         -1.9850  -20.8636  -40.3679 C.3       9 UNK        -0.1800 
     29 N          -2.4843  -18.6045  -41.1629 N.am      9 UNK        -0.5000 
     30 C          -3.3640  -17.6825  -41.5800 C.2       8 UNK         0.5000 
     31 O          -4.3203  -17.9407  -42.3116 O.2       8 UNK        -0.5000 
     32 CA         -3.1370  -16.2246  -41.1260 C.3       8 UNK         0.1400 
     33 CB         -4.0544  -15.8824  -39.9423 C.3       8 UNK        -0.1800 
     34 N          -1.7525  -15.9197  -40.7553 N.am      8 UNK        -0.5000 
     35 C          -0.7086  -15.9611  -41.5932 C.2       7 UNK         0.5000 
     36 O          -0.8143  -16.2583  -42.7823 O.2       7 UNK        -0.5000 
     37 CA          0.6902  -15.6647  -41.0127 C.3       7 UNK         0.1400 
     38 CB          0.6752  -15.1253  -39.5652 C.3       7 UNK        -0.1800 
     39 N           1.5743  -16.8290  -41.1092 N.am      7 UNK        -0.5000 
     40 C           1.3490  -18.0607  -40.6224 C.2       6 UNK         0.5000 
     41 O           0.3210  -18.3756  -40.0212 O.2       6 UNK        -0.5000 
     42 CA          2.4433  -19.1296  -40.8359 C.3       6 UNK         0.1400 
     43 CB          2.0269  -20.1186  -41.9341 C.3       6 UNK        -0.1800 
     44 N           3.7490  -18.5734  -41.1905 N.am      6 UNK        -0.5000 
     45 C           4.5565  -17.9000  -40.3605 C.2       5 UNK         0.5000 
     46 O           4.3321  -17.7540  -39.1585 O.2       5 UNK        -0.5000 
     47 CA          5.8168  -17.2610  -40.9826 C.3       5 UNK         0.1400 
     48 CB          7.0539  -18.1246  -40.6922 C.3       5 UNK        -0.1800 
     49 N           5.7346  -17.0206  -42.4305 N.am      5 UNK        -0.5000 
     50 C           4.8416  -16.2247  -43.0345 C.2       4 UNK         0.5000 
     51 O           3.9221  -15.6583  -42.4395 O.2       4 UNK        -0.5000 
     52 CA          4.9627  -16.0956  -44.5641 C.3       4 UNK         0.1400 
     53 CB          4.2069  -17.2428  -45.2526 C.3       4 UNK        -0.1800 
     54 N           4.4226  -14.8201  -45.0335 N.am      4 UNK        -0.5000 
     55 C           5.0113  -13.6294  -44.8386 C.2       3 UNK         0.5000 
     56 O           6.1388  -13.5010  -44.3585 O.2       3 UNK        -0.5000 
     57 CA          4.2182  -12.3660  -45.2373 C.3       3 UNK         0.1400 
     58 CB          4.6829  -11.8491  -46.6070 C.3       3 UNK        -0.1800 
     59 N           2.7726  -12.5874  -45.2771 N.am      3 UNK        -0.5000 
     60 C           2.0070  -12.8191  -44.2004 C.2       2 UNK         0.5000 
     61 O           2.4107  -12.6935  -43.0442 O.2       2 UNK        -0.5000 
     62 CA          0.5552  -13.2854  -44.4383 C.3       2 UNK         0.1400 
     63 CB         -0.4527  -12.2591  -43.8981 C.3       2 UNK        -0.1800 
     64 N           0.2238  -13.5821  -45.8326 N.am      2 UNK        -0.5000 
     65 C           0.7337  -14.5787  -46.5714 C.2       1 UNK         0.5000 
     66 O           1.6006  -15.3526  -46.1661 O.2       1 UNK        -0.5000 
     67 C          -3.4699  -22.1147  -46.7000 C.2       11 UNK         0.5000 
     68 O          -3.3906  -22.9187  -47.6284 O.2       11 UNK        -0.5000 
     69 N          -3.6000  -22.4805  -45.4163 N.am      12 UNK        -0.5000 
     70 CA         -3.6596  -23.8690  -44.9567 C.3       12 UNK         0.1400 
     71 CB         -4.1739  -23.9116  -43.5094 C.3       12 UNK        -0.1800 
     72 C          -2.3039  -24.5864  -45.0818 C.2       12 UNK         0.5000 
     73 O          -2.2761  -25.7673  -45.4278 O.2       12 UNK        -0.5000 
     74 N          -1.2099  -23.8554  -44.8250 N.am      13 UNK        -0.5000 
     75 CA          0.1659  -24.3223  -44.9995 C.3       13 UNK         0.1400 
     76 CB          1.1332  -23.3102  -44.3656 C.3       13 UNK        -0.1800 
     77 C           0.5173  -24.5702  -46.4794 C.2       13 UNK         0.5000 
     78 O           1.1476  -25.5805  -46.7938 O.2       13 UNK        -0.5000 
     79 N           0.0844  -23.6556  -47.3582 N.am      14 UNK        -0.5000 
     80 CA          0.2044  -23.7600  -48.8128 C.3       14 UNK         0.1400 
     81 CB         -0.1491  -22.4016  -49.4317 C.3       14 UNK        -0.1800 
     82 C          -0.6747  -24.8783  -49.4045 C.2       14 UNK         0.5000 
     83 O          -0.2383  -25.5781  -50.3204 O.2       14 UNK        -0.5000 
     84 N          -1.8900  -25.0278  -48.8584 N.am      15 UNK        -0.5000 
     85 CA         -2.9098  -26.0570  -49.0948 C.3       15 UNK         0.1400 
     86 CB         -2.3723  -27.4597  -48.7546 C.3       15 UNK        -0.1800 
     87 C          -3.5536  -26.0361  -50.4943 C.2       15 UNK         0.5000 
     88 O          -4.7755  -26.1520  -50.5964 O.2       15 UNK        -0.5000 
     89 N          -2.7361  -25.8885  -51.5395 N.am      16 UNK        -0.5000 
     90 CA         -3.1481  -25.8237  -52.9392 C.3       16 UNK         0.1400 
     91 CB         -3.4291  -27.2323  -53.4902 C.3       16 UNK        -0.1800 
     92 C          -2.0961  -25.1017  -53.7899 C.2       16 UNK         0.5000 
     93 O          -2.4723  -24.3248  -54.6674 O.2       16 UNK        -0.5000 
     94 N          -0.8057  -25.3404  -53.5073 N.am      17 UNK        -0.5000 
     95 CA          0.3375  -24.7202  -54.1809 C.3       17 UNK         0.1400 
     96 CB          1.6348  -25.3384  -53.6352 C.3       17 UNK        -0.1800 
     97 C           0.3262  -23.1927  -53.9965 C.2       17 UNK         0.5000 
     98 O           0.5377  -22.7179  -52.8824 O.2       17 UNK        -0.5000 
     99 N          -0.0120  -22.4646  -55.0684 N.am      18 UNK        -0.5000 
    100 CA        -0.2798  -21.0201  -55.1472 C.3       18 UNK         0.1400 
    101 CB         0.9212  -20.1813  -54.6696 C.3       18 UNK        -0.1800 
    102 C         -1.5873  -20.5723  -54.4580 C.2       18 UNK         0.5000 
    103 O         -2.1839  -19.5929  -54.9021 O.2       18 UNK        -0.5000 
    104 N         -2.0456  -21.2996  -53.4298 N.am      19 UNK        -0.5000 
    105 CA        -3.3162  -21.0778  -52.7353 C.3       19 UNK         0.1400 
    106 CB        -3.4198  -22.0208  -51.5285 C.3       19 UNK        -0.1800 
    107 C         -4.5431  -21.2364  -53.6537 C.2       19 UNK         0.5000 
    108 O         -5.4906  -20.4585  -53.5424 O.2       19 UNK        -0.5000 
    109 N         -4.4908  -22.2131  -54.5712 N.am      20 UNK        -0.5000 
    110 CA        -5.5535  -22.4957  -55.5383 C.3       20 UNK         0.1400 
    111 CB        -5.2781  -23.8480  -56.2123 C.3       20 UNK        -0.1800 
    112 C         -5.7349  -21.3923  -56.5985 C.2       20 UNK         0.5000 
    113 O         -6.8368  -21.2443  -57.1290 O.2       20 UNK        -0.5000 
    114 N         -4.6737  -20.6181  -56.8739 N.am      21 UNK        -0.5000 
    115 CA        -4.6733  -19.5212  -57.8477 C.3       21 UNK         0.1400 
    116 CB        -3.2319  -19.0463  -58.0862 C.3       21 UNK        -0.1800 
    117 C         -5.5757  -18.3386  -57.4428 C.2       21 UNK         0.5000 
    118 O         -6.0253  -17.5974  -58.3179 O.2       21 UNK        -0.5000 
    119 N         -5.8461  -18.2011  -56.1386 N.am      22 UNK        -0.5000 
    120 CA        -6.8123  -17.2430  -55.5803 C.3       22 UNK         0.1400 
    121 C         -8.2909  -17.7340  -55.6424 C.2       22 UNK         0.5000 
    122 N         -8.5873  -18.9420  -56.1108 N.am      22 UNK        -0.7600 
    123 O         -9.1975  -16.9942  -55.2697 O.2       22 UNK        -0.5000 
    124 C124       -6.4258  -16.8068  -54.1442 C.3       23 UNK        -0.0398 
    125 S125       -4.7974  -15.9793  -54.0745 S.3       23 UNK        -0.2404 
    126 C126       -3.8359  -17.1299  -53.0438 C.3       23 UNK        -0.0205 
    127 H127       -0.9457  -11.1945  -49.6298 H         1 UNK         0.0600 
    128 H128        0.6362  -10.8497  -50.3352 H         1 UNK         0.0600 
    129 H129        0.2371  -10.2467  -48.7232 H         1 UNK         0.0600 
    130 H130       -1.1066  -13.2832  -48.8730 H         1 UNK         0.3000 
    131 H131        1.0768  -15.0503  -48.6143 H         1 UNK         0.0600 
    132 H132       -1.1401  -15.8655  -49.2358 H         1 UNK         0.0800 
    133 H133       -0.5655  -16.7038  -47.8342 H         1 UNK         0.0800 
    134 H134       -3.0191  -13.9876  -49.2118 H         1 UNK         0.0800 
    135 H135       -4.3812  -14.1994  -48.1444 H         1 UNK         0.0800 
    136 H136       -3.0196  -15.2772  -51.2286 H         1 UNK         0.1150 
    137 H137       -5.5004  -18.7557  -51.5948 H         1 UNK         0.1150 
    138 H138       -5.2666  -16.6764  -47.8581 H         1 UNK         0.1150 
    139 H139       -6.9622  -18.3892  -48.1857 H         1 UNK         0.0800 
    140 H140       -7.2508  -19.0295  -49.7814 H         1 UNK         0.0800 
    141 H141       -5.3794  -20.1984  -46.1984 H         1 UNK         0.0800 
    142 H142       -4.6561  -18.8573  -47.0359 H         1 UNK         0.0800 
    143 H143       -2.8932  -20.4853  -47.9642 H         1 UNK         0.0600 
    144 H144       -2.9355  -19.2811  -45.3716 H         1 UNK         0.3000 
    145 H145        0.4179  -20.0859  -44.5148 H         1 UNK         0.0600 
    146 H146        0.7589  -17.6599  -44.4410 H         1 UNK         0.0600 
    147 H147        0.6833  -18.1729  -46.1160 H         1 UNK         0.0600 
    148 H148       -0.7051  -17.3774  -45.3796 H         1 UNK         0.0600 
    149 H149       -1.3173  -18.3624  -43.1615 H         1 UNK         0.3000 
    150 H150       -3.5632  -20.3177  -41.6978 H         1 UNK         0.0600 
    151 H151       -2.0991  -21.9293  -40.5707 H         1 UNK         0.0600 
    152 H152       -2.5237  -20.6520  -39.4442 H         1 UNK         0.0600 
    153 H153       -0.9263  -20.6793  -40.1885 H         1 UNK         0.0600 
    154 H154       -1.6903  -18.3144  -40.6009 H         1 UNK         0.3000 
    155 H155       -3.4060  -15.5792  -41.9648 H         1 UNK         0.0600 
    156 H156       -5.1002  -16.0675  -40.1913 H         1 UNK         0.0600 
    157 H157       -3.9692  -14.8310  -39.6671 H         1 UNK         0.0600 
    158 H158       -3.8155  -16.4816  -39.0626 H         1 UNK         0.0600 
    159 H159       -1.5822  -15.6992  -39.7850 H         1 UNK         0.3000 
    160 H160        1.1295  -14.8931  -41.6457 H         1 UNK         0.0600 
    161 H161        0.2798  -15.8526  -38.8553 H         1 UNK         0.0600 
    162 H162        0.0752  -14.2177  -39.4880 H         1 UNK         0.0600 
    163 H163        1.6837  -14.8681  -39.2407 H         1 UNK         0.0600 
    164 H164        2.4474  -16.6529  -41.5972 H         1 UNK         0.3000 
    165 H165        2.5451  -19.6808  -39.8988 H         1 UNK         0.0600 
    166 H166        2.7377  -20.9412  -42.0153 H         1 UNK         0.0600 
    167 H167        1.0507  -20.5567  -41.7256 H         1 UNK         0.0600 
    168 H168        1.9724  -19.6270  -42.9048 H         1 UNK         0.0600 
    169 H169        4.0251  -18.6492  -42.1578 H         1 UNK         0.3000 
    170 H170        5.9556  -16.2924  -40.4980 H         1 UNK         0.0600 
    171 H171        7.1669  -18.2999  -39.6214 H         1 UNK         0.0600 
    172 H172        6.9873  -19.0985  -41.1787 H         1 UNK         0.0600 
    173 H173        7.9662  -17.6373  -41.0369 H         1 UNK         0.0600 
    174 H174        6.4437  -17.4686  -42.9932 H         1 UNK         0.3000 
    175 H175        6.0169  -16.1507  -44.8434 H         1 UNK         0.0600 
    176 H176        3.1545  -17.2582  -44.9674 H         1 UNK         0.0600 
    177 H177        4.2565  -17.1540  -46.3380 H         1 UNK         0.0600 
    178 H178        4.6327  -18.2108  -44.9860 H         1 UNK         0.0600 
    179 H179        3.4787  -14.8459  -45.4033 H         1 UNK         0.3000 
    180 H180        4.4259  -11.5956  -44.4918 H         1 UNK         0.0600 
    181 H181        4.5050  -12.5832  -47.3940 H         1 UNK         0.0600 
    182 H182        5.7508  -11.6272  -46.5997 H         1 UNK         0.0600 
    183 H183        4.1616  -10.9317  -46.8812 H         1 UNK         0.0600 
    184 H184        2.3595  -12.6902  -46.1954 H         1 UNK         0.3000 
    185 H185        0.4328  -14.2112  -43.8768 H         1 UNK         0.0600 
    186 H186       -0.2712  -12.0470  -42.8436 H         1 UNK         0.0600 
    187 H187       -0.3921  -11.3142  -44.4394 H         1 UNK         0.0600 
    188 H188       -1.4745  -12.6306  -43.9797 H         1 UNK         0.0600 
    189 H189       -0.4687  -12.9880  -46.2641 H         1 UNK         0.3000 
    190 H190       -3.5764  -21.7704  -44.6994 H         1 UNK         0.3000 
    191 H191       -4.3761  -24.4035  -45.5845 H         1 UNK         0.0600 
    192 H192       -5.1572  -23.4485  -43.4262 H         1 UNK         0.0600 
    193 H193       -4.2698  -24.9411  -43.1622 H         1 UNK         0.0600 
    194 H194       -3.5013  -23.3975  -42.8225 H         1 UNK         0.0600 
    195 H195       -1.3344  -22.9127  -44.4669 H         1 UNK         0.3000 
    196 H196        0.2682  -25.2698  -44.4666 H         1 UNK         0.0600 
    197 H197        2.1611  -23.6712  -44.4149 H         1 UNK         0.0600 
    198 H198        0.8966  -23.1399  -43.3149 H         1 UNK         0.0600 
    199 H199        1.1003  -22.3479  -44.8757 H         1 UNK         0.0600 
    200 H200       -0.3606  -22.8129  -47.0064 H         1 UNK         0.3000 
    201 H201        1.2428  -23.9904  -49.0594 H         1 UNK         0.0600 
    202 H202        0.5929  -21.6465  -49.1721 H         1 UNK         0.0600 
    203 H203       -1.1189  -22.0460  -49.0851 H         1 UNK         0.0600 
    204 H204       -0.1917  -22.4580  -50.5167 H         1 UNK         0.0600 
    205 H205       -2.1839  -24.3146  -48.1968 H         1 UNK         0.3000 
    206 H206       -3.7070  -25.8345  -48.3836 H         1 UNK         0.0600 
    207 H207       -1.9850  -27.4948  -47.7361 H         1 UNK         0.0600 
    208 H208       -3.1629  -28.2073  -48.8283 H         1 UNK         0.0600 
    209 H209       -1.5714  -27.7652  -49.4283 H         1 UNK         0.0600 
    210 H210       -1.7479  -25.7630  -51.3332 H         1 UNK         0.3000 
    211 H211       -4.0671  -25.2368  -53.0045 H         1 UNK         0.0600 
    212 H212       -3.7097  -27.1904  -54.5435 H         1 UNK         0.0600 
    213 H213       -4.2502  -27.7108  -52.9564 H         1 UNK         0.0600 
    214 H214       -2.5543  -27.8780  -53.4067 H         1 UNK         0.0600 
    215 H215       -0.5756  -25.9747  -52.7563 H         1 UNK         0.3000 
    216 H216        0.2719  -24.9516  -55.2460 H         1 UNK         0.0600 
    217 H217        2.5095  -24.8925  -54.1102 H         1 UNK         0.0600 
    218 H218        1.6718  -26.4108  -53.8269 H         1 UNK         0.0600 
    219 H219        1.7320  -25.1872  -52.5590 H         1 UNK         0.0600 
    220 H220       -0.2257  -22.9722  -55.9160 H         1 UNK         0.3000 
    221 H221       -0.4144  -20.8116  -56.2098 H         1 UNK         0.0600 
    222 H222        1.0855  -20.2727  -53.5958 H         1 UNK         0.0600 
    223 H223        1.8383  -20.4787  -55.1779 H         1 UNK         0.0600 
    224 H224        0.7606  -19.1234  -54.8809 H         1 UNK         0.0600 
    225 H225       -1.4630  -22.0595  -53.1029 H         1 UNK         0.3000 
    226 H226       -3.3117  -20.0561  -52.3547 H         1 UNK         0.0600 
    227 H227       -2.6422  -21.8068  -50.7985 H         1 UNK         0.0600 
    228 H228       -4.3768  -21.9027  -51.0186 H         1 UNK         0.0600 
    229 H229       -3.3312  -23.0659  -51.8205 H         1 UNK         0.0600 
    230 H230       -3.6746  -22.8180  -54.6077 H         1 UNK         0.3000 
    231 H231       -6.4939  -22.5766  -54.9892 H         1 UNK         0.0600 
    232 H232       -4.3346  -23.8390  -56.7595 H         1 UNK         0.0600 
    233 H233       -6.0675  -24.1009  -56.9214 H         1 UNK         0.0600 
    234 H234       -5.2320  -24.6527  -55.4783 H         1 UNK         0.0600 
    235 H235       -3.8189  -20.7653  -56.3563 H         1 UNK         0.3000 
    236 H236       -5.0578  -19.9174  -58.7898 H         1 UNK         0.0600 
    237 H237       -2.5778  -19.8753  -58.3569 H         1 UNK         0.0600 
    238 H238       -3.1934  -18.3224  -58.9010 H         1 UNK         0.0600 
    239 H239       -2.8161  -18.5604  -57.2036 H         1 UNK         0.0600 
    240 H240       -5.4475  -18.8635  -55.4878 H         1 UNK         0.3000 
    241 H241       -6.7868  -16.3437  -56.1987 H         1 UNK         0.0600 
    242 H242       -9.5523  -19.2301  -56.1458 H         1 UNK         0.3800 
    243 H243       -7.8689  -19.5743  -56.4422 H         1 UNK         0.3800 
    244 H244       -7.1580  -16.1027  -53.7455 H         1 UNK         0.0800 
    245 H245       -6.4437  -17.6687  -53.4773 H         1 UNK         0.0800 
    246 H246       -2.7737  -16.9112  -53.1615 H         1 UNK         0.0800 
    247 H247       -3.9797  -18.1424  -53.4179 H         1 UNK         0.0800 
@<TRIPOS>BOND
     1    1    2 1    
     2    1  127 1    
     3    1  128 1    
     4    1  129 1    
     5    2    3 2    
     6    2    4 am   BACKBONE|DICT|INTERRES
     7    4    5 1    
     8    4  130 1    
     9    5    6 1    
    10    5   65 1    
    11    5  131 1    
    12    6    7 1    
    13    6  132 1    
    14    6  133 1    
    15    7    8 1    
    16    8    9 1    
    17    8  134 1    
    18    8  135 1    
    19    9   10 ar   
    20    9   14 ar   
    21   10   11 ar   
    22   10  136 1    
    23   11   12 ar   
    24   11  126 1    
    25   12   13 ar   
    26   12  137 1    
    27   13   14 ar   
    28   13   15 1    
    29   14  138 1    
    30   15   16 1    
    31   15  139 1    
    32   15  140 1    
    33   16   17 1    
    34   17   18 1    
    35   17  141 1    
    36   17  142 1    
    37   18   19 1    
    38   18   67 1    
    39   18  143 1    
    40   19   20 am   BACKBONE|DICT|INTERRES
    41   19  144 1    
    42   20   21 2    
    43   20   22 1    
    44   22   23 1    
    45   22   24 1    
    46   22  145 1    
    47   23  146 1    
    48   23  147 1    
    49   23  148 1    
    50   24   25 am   BACKBONE|DICT|INTERRES
    51   24  149 1    
    52   25   26 2    
    53   25   27 1    
    54   27   28 1    
    55   27   29 1    
    56   27  150 1    
    57   28  151 1    
    58   28  152 1    
    59   28  153 1    
    60   29   30 am   BACKBONE|DICT|INTERRES
    61   29  154 1    
    62   30   31 2    
    63   30   32 1    
    64   32   33 1    
    65   32   34 1    
    66   32  155 1    
    67   33  156 1    
    68   33  157 1    
    69   33  158 1    
    70   34   35 am   BACKBONE|DICT|INTERRES
    71   34  159 1    
    72   35   36 2    
    73   35   37 1    
    74   37   38 1    
    75   37   39 1    
    76   37  160 1    
    77   38  161 1    
    78   38  162 1    
    79   38  163 1    
    80   39   40 am   BACKBONE|DICT|INTERRES
    81   39  164 1    
    82   40   41 2    
    83   40   42 1    
    84   42   43 1    
    85   42   44 1    
    86   42  165 1    
    87   43  166 1    
    88   43  167 1    
    89   43  168 1    
    90   44   45 am   BACKBONE|DICT|INTERRES
    91   44  169 1    
    92   45   46 2    
    93   45   47 1    
    94   47   48 1    
    95   47   49 1    
    96   47  170 1    
    97   48  171 1    
    98   48  172 1    
    99   48  173 1    
   100   49   50 am   BACKBONE|DICT|INTERRES
   101   49  174 1    
   102   50   51 2    
   103   50   52 1    
   104   52   53 1    
   105   52   54 1    
   106   52  175 1    
   107   53  176 1    
   108   53  177 1    
   109   53  178 1    
   110   54   55 am   BACKBONE|DICT|INTERRES
   111   54  179 1    
   112   55   56 2    
   113   55   57 1    
   114   57   58 1    
   115   57   59 1    
   116   57  180 1    
   117   58  181 1    
   118   58  182 1    
   119   58  183 1    
   120   59   60 am   BACKBONE|DICT|INTERRES
   121   59  184 1    
   122   60   61 2    
   123   60   62 1    
   124   62   63 1    
   125   62   64 1    
   126   62  185 1    
   127   63  186 1    
   128   63  187 1    
   129   63  188 1    
   130   64   65 am   BACKBONE|DICT|INTERRES
   131   64  189 1    
   132   65   66 2    
   133   67   68 2    
   134   67   69 am   BACKBONE|DICT|INTERRES
   135   69   70 1    
   136   69  190 1    
   137   70   71 1    
   138   70   72 1    
   139   70  191 1    
   140   71  192 1    
   141   71  193 1    
   142   71  194 1    
   143   72   73 2    
   144   72   74 am   BACKBONE|DICT|INTERRES
   145   74   75 1    
   146   74  195 1    
   147   75   76 1    
   148   75   77 1    
   149   75  196 1    
   150   76  197 1    
   151   76  198 1    
   152   76  199 1    
   153   77   78 2    
   154   77   79 am   BACKBONE|DICT|INTERRES
   155   79   80 1    
   156   79  200 1    
   157   80   81 1    
   158   80   82 1    
   159   80  201 1    
   160   81  202 1    
   161   81  203 1    
   162   81  204 1    
   163   82   83 2    
   164   82   84 am   BACKBONE|DICT|INTERRES
   165   84   85 1    
   166   84  205 1    
   167   85   86 1    
   168   85   87 1    
   169   85  206 1    
   170   86  207 1    
   171   86  208 1    
   172   86  209 1    
   173   87   88 2    
   174   87   89 am   BACKBONE|DICT|INTERRES
   175   89   90 1    
   176   89  210 1    
   177   90   91 1    
   178   90   92 1    
   179   90  211 1    
   180   91  212 1    
   181   91  213 1    
   182   91  214 1    
   183   92   93 2    
   184   92   94 am   BACKBONE|DICT|INTERRES
   185   94   95 1    
   186   94  215 1    
   187   95   96 1    
   188   95   97 1    
   189   95  216 1    
   190   96  217 1    
   191   96  218 1    
   192   96  219 1    
   193   97   98 2    
   194   97   99 am   BACKBONE|DICT|INTERRES
   195   99  100 1    
   196   99  220 1    
   197  100  101 1    
   198  100  102 1    
   199  100  221 1    
   200  101  222 1    
   201  101  223 1    
   202  101  224 1    
   203  102  103 2    
   204  102  104 am   BACKBONE|DICT|INTERRES
   205  104  105 1    
   206  104  225 1    
   207  105  106 1    
   208  105  107 1    
   209  105  226 1    
   210  106  227 1    
   211  106  228 1    
   212  106  229 1    
   213  107  108 2    
   214  107  109 am   BACKBONE|DICT|INTERRES
   215  109  110 1    
   216  109  230 1    
   217  110  111 1    
   218  110  112 1    
   219  110  231 1    
   220  111  232 1    
   221  111  233 1    
   222  111  234 1    
   223  112  113 2    
   224  112  114 am   BACKBONE|DICT|INTERRES
   225  114  115 1    
   226  114  235 1    
   227  115  116 1    
   228  115  117 1    
   229  115  236 1    
   230  116  237 1    
   231  116  238 1    
   232  116  239 1    
   233  117  118 2    
   234  117  119 am   BACKBONE|DICT|INTERRES
   235  119  120 1    
   236  119  240 1    
   237  120  121 1    
   238  120  124 1    
   239  120  241 1    
   240  121  122 am   BACKBONE|DICT|INTERRES
   241  121  123 2    
   242  122  242 1    
   243  122  243 1    
   244  124  125 1    
   245  124  244 1    
   246  124  245 1    
   247  125  126 1    
   248  126  246 1    
   249  126  247 1    
@<TRIPOS>SUBSTRUCTURE
     1 UNK         1 GROUP             0       ****    0 ROOT    
