@<TRIPOS>MOLECULE
3R540
247   249    1
SMALL
USER_CHARGES


@<TRIPOS>ATOM
      1 CA         -4.3401   -9.5821  -45.6652 C.3       0 UNK        -0.1800 
      2 C          -3.2948  -10.6399  -45.9857 C.2       0 UNK         0.5000 
      3 O          -2.3809  -10.8513  -45.1898 O.2       0 UNK        -0.5000 
      4 N          -3.4365  -11.3123  -47.1371 N.am      1 UNK        -0.5000 
      5 CA         -2.5447  -12.3620  -47.6523 C.3       1 UNK         0.1400 
      6 C6         -3.0632  -12.8954  -49.0142 C.3       23 UNK        -0.0398 
      7 S7         -1.9171  -14.0236  -49.8794 S.3       23 UNK        -0.2404 
      8 C8         -2.7042  -15.6330  -49.5407 C.3       23 UNK        -0.0205 
      9 C9         -1.8932  -16.7870  -50.1078 C.ar      23 UNK        -0.0193 
     10 C10        -2.3862  -17.5563  -51.1655 C.ar      23 UNK        -0.1150 
     11 C11        -1.6449  -18.6301  -51.6693 C.ar      23 UNK        -0.0193 
     12 C12        -0.3999  -18.9282  -51.1051 C.ar      23 UNK        -0.1150 
     13 C13         0.1049  -18.1657  -50.0477 C.ar      23 UNK        -0.0193 
     14 C14        -0.6476  -17.0953  -49.5579 C.ar      23 UNK        -0.1150 
     15 C15         1.4766  -18.4674  -49.4571 C.3       23 UNK        -0.0205 
     16 S16         1.4557  -19.8297  -48.2448 S.3       23 UNK        -0.2404 
     17 C17         0.3886  -19.1701  -46.9201 C.3       23 UNK        -0.0398 
     18 CA         -0.8324  -20.0751  -46.6662 C.3       11 UNK         0.1400 
     19 N          -0.4422  -21.3522  -46.0677 N.am      11 UNK        -0.5000 
     20 C          -1.2347  -22.4177  -45.8981 C.2       10 UNK         0.5000 
     21 O          -2.4240  -22.4488  -46.2183 O.2       10 UNK        -0.5000 
     22 CA         -0.5933  -23.6227  -45.1883 C.3       10 UNK         0.1400 
     23 CB          0.1195  -24.5255  -46.2051 C.3       10 UNK        -0.1800 
     24 N           0.3569  -23.2312  -44.1410 N.am      10 UNK        -0.5000 
     25 C           0.0503  -22.5254  -43.0445 C.2       9 UNK         0.5000 
     26 O          -1.0752  -22.0841  -42.8166 O.2       9 UNK        -0.5000 
     27 CA          1.1863  -22.2378  -42.0481 C.3       9 UNK         0.1400 
     28 CB          1.7379  -23.5295  -41.4134 C.3       9 UNK        -0.1800 
     29 N           2.2567  -21.3994  -42.5976 N.am      9 UNK        -0.5000 
     30 C           3.1487  -21.6859  -43.5591 C.2       8 UNK         0.5000 
     31 O           3.1688  -22.7542  -44.1724 O.2       8 UNK        -0.5000 
     32 CA          4.1968  -20.6053  -43.9041 C.3       8 UNK         0.1400 
     33 CB          4.0705  -20.1588  -45.3687 C.3       8 UNK        -0.1800 
     34 N           4.1144  -19.4258  -43.0376 N.am      8 UNK        -0.5000 
     35 C           4.6859  -19.3324  -41.8272 C.2       7 UNK         0.5000 
     36 O           5.3995  -20.2126  -41.3450 O.2       7 UNK        -0.5000 
     37 CA          4.4029  -18.0608  -40.9981 C.3       7 UNK         0.1400 
     38 CB          5.5686  -17.0683  -41.1262 C.3       7 UNK        -0.1800 
     39 N           3.1586  -17.3735  -41.3516 N.am      7 UNK        -0.5000 
     40 C           1.9254  -17.8907  -41.2576 C.2       6 UNK         0.5000 
     41 O           1.6909  -19.0176  -40.8209 O.2       6 UNK        -0.5000 
     42 CA          0.7630  -17.0256  -41.7859 C.3       6 UNK         0.1400 
     43 CB          0.1270  -16.2472  -40.6248 C.3       6 UNK        -0.1800 
     44 N           1.1224  -16.0915  -42.8628 N.am      6 UNK        -0.5000 
     45 C           1.7182  -16.4219  -44.0198 C.2       5 UNK         0.5000 
     46 O           2.1075  -17.5630  -44.2706 O.2       5 UNK        -0.5000 
     47 CA          1.9332  -15.3157  -45.0717 C.3       5 UNK         0.1400 
     48 CB          1.4503  -15.7693  -46.4559 C.3       5 UNK        -0.1800 
     49 N           1.2651  -14.0583  -44.7382 N.am      5 UNK        -0.5000 
     50 C           1.8346  -13.0447  -44.0754 C.2       4 UNK         0.5000 
     51 O           2.9792  -13.0783  -43.6225 O.2       4 UNK        -0.5000 
     52 CA          0.9705  -11.7884  -43.8698 C.3       4 UNK         0.1400 
     53 CB          0.9747  -10.9167  -45.1350 C.3       4 UNK        -0.1800 
     54 N          -0.4110  -12.1007  -43.5041 N.am      4 UNK        -0.5000 
     55 C          -0.7845  -12.6791  -42.3545 C.2       3 UNK         0.5000 
     56 O           0.0045  -13.0225  -41.4747 O.2       3 UNK        -0.5000 
     57 CA         -2.2891  -12.9320  -42.1651 C.3       3 UNK         0.1400 
     58 CB         -3.0154  -11.6440  -41.7472 C.3       3 UNK        -0.1800 
     59 N          -2.9006  -13.4657  -43.3802 N.am      3 UNK        -0.5000 
     60 C          -2.8142  -14.7457  -43.7670 C.2       2 UNK         0.5000 
     61 O          -2.2545  -15.6229  -43.1120 O.2       2 UNK        -0.5000 
     62 CA         -3.4575  -15.1121  -45.1168 C.3       2 UNK         0.1400 
     63 CB         -4.9083  -15.5712  -44.9134 C.3       2 UNK        -0.1800 
     64 N          -3.4406  -14.0224  -46.0922 N.am      2 UNK        -0.5000 
     65 C          -2.3309  -13.5017  -46.6332 C.2       1 UNK         0.5000 
     66 O          -1.1900  -13.8518  -46.3302 O.2       1 UNK        -0.5000 
     67 C          -1.9191  -19.3204  -45.8691 C.2       11 UNK         0.5000 
     68 O          -2.6034  -18.4871  -46.4609 O.2       11 UNK        -0.5000 
     69 N          -2.1234  -19.6522  -44.5835 N.am      12 UNK        -0.5000 
     70 CA         -3.2143  -19.1103  -43.7645 C.3       12 UNK         0.1400 
     71 CB         -2.9823  -19.4676  -42.2894 C.3       12 UNK        -0.1800 
     72 C          -4.6122  -19.5770  -44.2264 C.2       12 UNK         0.5000 
     73 O          -5.5977  -18.8945  -43.9487 O.2       12 UNK        -0.5000 
     74 N          -4.6708  -20.7087  -44.9409 N.am      13 UNK        -0.5000 
     75 CA         -5.8627  -21.2233  -45.6196 C.3       13 UNK         0.1400 
     76 CB         -6.1484  -22.6368  -45.0842 C.3       13 UNK        -0.1800 
     77 C          -5.6672  -21.2484  -47.1500 C.2       13 UNK         0.5000 
     78 O          -6.4965  -21.8222  -47.8591 O.2       13 UNK        -0.5000 
     79 N          -4.5391  -20.6976  -47.6315 N.am      14 UNK        -0.5000 
     80 CA         -4.0246  -20.7220  -49.0084 C.3       14 UNK         0.1400 
     81 CB         -4.9289  -19.8679  -49.9177 C.3       14 UNK        -0.1800 
     82 C          -3.8016  -22.1407  -49.5859 C.2       14 UNK         0.5000 
     83 O          -3.5992  -22.2724  -50.7941 O.2       14 UNK        -0.5000 
     84 N          -3.8866  -23.1764  -48.7362 N.am      15 UNK        -0.5000 
     85 CA         -4.0887  -24.5976  -49.0518 C.3       15 UNK         0.1400 
     86 CB         -2.7885  -25.2533  -49.5512 C.3       15 UNK        -0.1800 
     87 C          -5.2843  -24.8399  -50.0021 C.2       15 UNK         0.5000 
     88 O          -5.2001  -25.6902  -50.8885 O.2       15 UNK        -0.5000 
     89 N          -6.3619  -24.0591  -49.8159 N.am      16 UNK        -0.5000 
     90 CA         -7.5399  -23.9678  -50.6871 C.3       16 UNK         0.1400 
     91 CB         -8.3389  -25.2885  -50.6944 C.3       16 UNK        -0.1800 
     92 C          -7.1778  -23.4563  -52.1000 C.2       16 UNK         0.5000 
     93 O          -7.6470  -24.0006  -53.1006 O.2       16 UNK        -0.5000 
     94 N          -6.3416  -22.4076  -52.1298 N.am      17 UNK        -0.5000 
     95 CA         -5.7757  -21.7308  -53.2996 C.3       17 UNK         0.1400 
     96 CB         -6.8774  -21.0774  -54.1600 C.3       17 UNK        -0.1800 
     97 C          -4.8287  -22.6454  -54.0998 C.2       17 UNK         0.5000 
     98 O          -5.0538  -22.8861  -55.2864 O.2       17 UNK        -0.5000 
     99 N          -3.7773  -23.1307  -53.4274 N.am      18 UNK        -0.5000 
    100 CA        -2.7631  -24.0133  -54.0067 C.3       18 UNK         0.1400 
    101 CB        -3.2515  -25.4712  -53.9420 C.3       18 UNK        -0.1800 
    102 C         -1.3690  -23.8849  -53.3631 C.2       18 UNK         0.5000 
    103 O         -0.4131  -24.3874  -53.9548 O.2       18 UNK        -0.5000 
    104 N         -1.2451  -23.2372  -52.1910 N.am      19 UNK        -0.5000 
    105 CA        -0.0365  -23.2588  -51.3467 C.3       19 UNK         0.1400 
    106 CB        -0.3079  -22.5254  -50.0228 C.3       19 UNK        -0.1800 
    107 C          1.2579  -22.7266  -51.9957 C.2       19 UNK         0.5000 
    108 O          2.3438  -23.1590  -51.6080 O.2       19 UNK        -0.5000 
    109 N          1.1224  -21.8247  -52.9738 N.am      20 UNK        -0.5000 
    110 CA         2.2213  -21.2795  -53.7735 C.3       20 UNK         0.1400 
    111 CB         2.4427  -19.8046  -53.3921 C.3       20 UNK        -0.1800 
    112 C          1.9480  -21.4713  -55.2773 C.2       20 UNK         0.5000 
    113 O          2.3826  -20.6493  -56.0853 O.2       20 UNK        -0.5000 
    114 N          1.2122  -22.5417  -55.6240 N.am      21 UNK        -0.5000 
    115 CA         0.7207  -22.8794  -56.9673 C.3       21 UNK         0.1400 
    116 CB         1.8868  -23.2358  -57.9132 C.3       21 UNK        -0.1800 
    117 C         -0.2197  -21.7935  -57.5354 C.2       21 UNK         0.5000 
    118 O         -0.1571  -21.4665  -58.7223 O.2       21 UNK        -0.5000 
    119 N         -1.0528  -21.2382  -56.6468 N.am      22 UNK        -0.5000 
    120 CA        -2.0190  -20.1641  -56.9109 C.3       22 UNK         0.1400 
    121 C         -3.1183  -20.5459  -57.9447 C.2       22 UNK         0.5000 
    122 N         -3.7079  -19.5648  -58.6149 N.am      22 UNK        -0.7600 
    123 O         -3.4647  -21.7108  -58.1258 O.2       22 UNK        -0.5000 
    124 C124       -2.6593  -19.6586  -55.5923 C.3       23 UNK        -0.0398 
    125 S125       -1.4320  -19.0115  -54.4028 S.3       23 UNK        -0.2404 
    126 C126       -2.1972  -19.4647  -52.8163 C.3       23 UNK        -0.0205 
    127 H127       -5.1010   -9.5131  -46.4429 H         1 UNK         0.0600 
    128 H128       -4.8354   -9.8192  -44.7236 H         1 UNK         0.0600 
    129 H129       -3.8653   -8.6062  -45.5651 H         1 UNK         0.0600 
    130 H130       -4.2172  -11.0776  -47.7336 H         1 UNK         0.3000 
    131 H131       -1.5726  -11.8933  -47.8194 H         1 UNK         0.0600 
    132 H132       -3.2341  -12.0536  -49.6867 H         1 UNK         0.0800 
    133 H133       -4.0357  -13.3769  -48.8984 H         1 UNK         0.0800 
    134 H134       -3.7139  -15.6344  -49.9542 H         1 UNK         0.0800 
    135 H135       -2.8092  -15.7770  -48.4645 H         1 UNK         0.0800 
    136 H136       -3.3490  -17.3201  -51.5963 H         1 UNK         0.1150 
    137 H137        0.1841  -19.7477  -51.4939 H         1 UNK         0.1150 
    138 H138       -0.2637  -16.4870  -48.7519 H         1 UNK         0.1150 
    139 H139        2.1650  -18.7299  -50.2601 H         1 UNK         0.0800 
    140 H140        1.8947  -17.5750  -48.9906 H         1 UNK         0.0800 
    141 H141        0.9734  -19.0602  -46.0090 H         1 UNK         0.0800 
    142 H142        0.0701  -18.1667  -47.1903 H         1 UNK         0.0800 
    143 H143       -1.2737  -20.3072  -47.6355 H         1 UNK         0.0600 
    144 H144        0.5194  -21.4293  -45.7710 H         1 UNK         0.3000 
    145 H145       -1.3952  -24.1953  -44.7180 H         1 UNK         0.0600 
    146 H146        0.5246  -25.4165  -45.7253 H         1 UNK         0.0600 
    147 H147       -0.5699  -24.8606  -46.9798 H         1 UNK         0.0600 
    148 H148        0.9424  -24.0065  -46.6987 H         1 UNK         0.0600 
    149 H149        1.3321  -23.4800  -44.2776 H         1 UNK         0.3000 
    150 H150        0.7459  -21.6511  -41.2404 H         1 UNK         0.0600 
    151 H151        0.9391  -24.0968  -40.9340 H         1 UNK         0.0600 
    152 H152        2.4794  -23.3030  -40.6472 H         1 UNK         0.0600 
    153 H153        2.2062  -24.1863  -42.1465 H         1 UNK         0.0600 
    154 H154        2.3177  -20.4833  -42.1673 H         1 UNK         0.3000 
    155 H155        5.1790  -21.0673  -43.7848 H         1 UNK         0.0600 
    156 H156        4.1638  -21.0051  -46.0505 H         1 UNK         0.0600 
    157 H157        4.8500  -19.4437  -45.6314 H         1 UNK         0.0600 
    158 H158        3.1093  -19.6881  -45.5624 H         1 UNK         0.0600 
    159 H159        3.5192  -18.6706  -43.3657 H         1 UNK         0.3000 
    160 H160        4.3255  -18.3661  -39.9527 H         1 UNK         0.0600 
    161 H161        5.6761  -16.7054  -42.1493 H         1 UNK         0.0600 
    162 H162        5.4261  -16.2050  -40.4759 H         1 UNK         0.0600 
    163 H163        6.5130  -17.5346  -40.8421 H         1 UNK         0.0600 
    164 H164        3.2508  -16.4444  -41.7354 H         1 UNK         0.3000 
    165 H165        0.0129  -17.7065  -42.1926 H         1 UNK         0.0600 
    166 H166       -0.7726  -15.7222  -40.9424 H         1 UNK         0.0600 
    167 H167       -0.1631  -16.9177  -39.8146 H         1 UNK         0.0600 
    168 H168        0.8159  -15.5095  -40.2116 H         1 UNK         0.0600 
    169 H169        0.8355  -15.1311  -42.7352 H         1 UNK         0.3000 
    170 H170        3.0103  -15.1502  -45.1386 H         1 UNK         0.0600 
    171 H171        1.9935  -16.6543  -46.7870 H         1 UNK         0.0600 
    172 H172        0.3871  -16.0089  -46.4428 H         1 UNK         0.0600 
    173 H173        1.6083  -14.9936  -47.2054 H         1 UNK         0.0600 
    174 H174        0.3244  -13.9396  -45.1068 H         1 UNK         0.3000 
    175 H175        1.4117  -11.2096  -43.0557 H         1 UNK         0.0600 
    176 H176        0.5074  -11.4289  -45.9773 H         1 UNK         0.0600 
    177 H177        0.4344   -9.9840  -44.9717 H         1 UNK         0.0600 
    178 H178        1.9923  -10.6570  -45.4293 H         1 UNK         0.0600 
    179 H179       -1.1291  -11.8111  -44.1639 H         1 UNK         0.3000 
    180 H180       -2.4090  -13.6603  -41.3599 H         1 UNK         0.0600 
    181 H181       -2.5902  -11.2388  -40.8281 H         1 UNK         0.0600 
    182 H182       -2.9427  -10.8690  -42.5109 H         1 UNK         0.0600 
    183 H183       -4.0729  -11.8316  -41.5605 H         1 UNK         0.0600 
    184 H184       -3.3352  -12.7996  -44.0021 H         1 UNK         0.3000 
    185 H185       -2.8868  -15.9453  -45.5319 H         1 UNK         0.0600 
    186 H186       -4.9755  -16.3249  -44.1294 H         1 UNK         0.0600 
    187 H187       -5.5559  -14.7439  -44.6208 H         1 UNK         0.0600 
    188 H188       -5.3130  -16.0131  -45.8242 H         1 UNK         0.0600 
    189 H189       -4.3367  -13.6502  -46.3703 H         1 UNK         0.3000 
    190 H190       -1.5621  -20.3807  -44.1588 H         1 UNK         0.3000 
    191 H191       -3.1860  -18.0238  -43.8542 H         1 UNK         0.0600 
    192 H192       -3.7070  -18.9610  -41.6508 H         1 UNK         0.0600 
    193 H193       -1.9896  -19.1649  -41.9567 H         1 UNK         0.0600 
    194 H194       -3.0865  -20.5384  -42.1129 H         1 UNK         0.0600 
    195 H195       -3.8148  -21.2270  -45.1049 H         1 UNK         0.3000 
    196 H196       -6.7311  -20.5930  -45.4194 H         1 UNK         0.0600 
    197 H197       -7.0523  -23.0538  -45.5300 H         1 UNK         0.0600 
    198 H198       -6.2980  -22.6244  -44.0045 H         1 UNK         0.0600 
    199 H199       -5.3272  -23.3217  -45.3002 H         1 UNK         0.0600 
    200 H200       -3.9527  -20.2093  -46.9688 H         1 UNK         0.3000 
    201 H201       -3.0456  -20.2450  -48.9924 H         1 UNK         0.0600 
    202 H202       -5.0292  -18.8556  -49.5259 H         1 UNK         0.0600 
    203 H203       -5.9299  -20.2883  -50.0141 H         1 UNK         0.0600 
    204 H204       -4.5110  -19.7792  -50.9186 H         1 UNK         0.0600 
    205 H205       -3.9313  -22.9458  -47.7514 H         1 UNK         0.3000 
    206 H206       -4.3539  -25.0791  -48.1097 H         1 UNK         0.0600 
    207 H207       -1.9680  -25.0893  -48.8555 H         1 UNK         0.0600 
    208 H208       -2.9098  -26.3323  -49.6513 H         1 UNK         0.0600 
    209 H209       -2.4964  -24.8714  -50.5263 H         1 UNK         0.0600 
    210 H210       -6.3370  -23.3817  -49.0578 H         1 UNK         0.3000 
    211 H211       -8.1818  -23.2040  -50.2454 H         1 UNK         0.0600 
    212 H212       -7.7931  -26.0949  -51.1846 H         1 UNK         0.0600 
    213 H213       -9.2837  -25.1672  -51.2253 H         1 UNK         0.0600 
    214 H214       -8.5761  -25.6109  -49.6807 H         1 UNK         0.0600 
    215 H215       -5.9769  -22.0941  -51.2429 H         1 UNK         0.3000 
    216 H216       -5.1562  -20.9221  -52.9128 H         1 UNK         0.0600 
    217 H217       -7.4963  -20.4068  -53.5641 H         1 UNK         0.0600 
    218 H218       -7.5320  -21.8177  -54.6205 H         1 UNK         0.0600 
    219 H219       -6.4400  -20.4859  -54.9652 H         1 UNK         0.0600 
    220 H220       -3.6937  -22.9028  -52.4387 H         1 UNK         0.3000 
    221 H221       -2.6277  -23.7456  -55.0570 H         1 UNK         0.0600 
    222 H222       -3.3955  -25.7970  -52.9116 H         1 UNK         0.0600 
    223 H223       -4.1981  -25.5977  -54.4675 H         1 UNK         0.0600 
    224 H224       -2.5325  -26.1492  -54.4037 H         1 UNK         0.0600 
    225 H225       -2.0728  -22.8484  -51.7522 H         1 UNK         0.3000 
    226 H226        0.1565  -24.3059  -51.1041 H         1 UNK         0.0600 
    227 H227       -1.0351  -23.0549  -49.4132 H         1 UNK         0.0600 
    228 H228        0.5990  -22.4484  -49.4220 H         1 UNK         0.0600 
    229 H229       -0.6838  -21.5170  -50.1845 H         1 UNK         0.0600 
    230 H230        0.1921  -21.5330  -53.2323 H         1 UNK         0.3000 
    231 H231        3.1475  -21.8203  -53.5702 H         1 UNK         0.0600 
    232 H232        2.6730  -19.7084  -52.3321 H         1 UNK         0.0600 
    233 H233        3.2810  -19.3748  -53.9414 H         1 UNK         0.0600 
    234 H234        1.5627  -19.1966  -53.6036 H         1 UNK         0.0600 
    235 H235        0.9060  -23.1708  -54.8876 H         1 UNK         0.3000 
    236 H236        0.1099  -23.7759  -56.8506 H         1 UNK         0.0600 
    237 H237        2.5224  -24.0084  -57.4807 H         1 UNK         0.0600 
    238 H238        1.5138  -23.6184  -58.8639 H         1 UNK         0.0600 
    239 H239        2.5124  -22.3706  -58.1337 H         1 UNK         0.0600 
    240 H240       -1.0117  -21.5636  -55.6957 H         1 UNK         0.3000 
    241 H241       -1.4497  -19.3402  -57.3458 H         1 UNK         0.0600 
    242 H242       -4.4291  -19.7944  -59.2813 H         1 UNK         0.3800 
    243 H243       -3.4433  -18.5997  -58.4892 H         1 UNK         0.3800 
    244 H244       -3.3724  -18.8571  -55.7931 H         1 UNK         0.0800 
    245 H245       -3.2285  -20.4618  -55.1250 H         1 UNK         0.0800 
    246 H246       -3.2753  -19.3207  -52.8912 H         1 UNK         0.0800 
    247 H247       -2.0393  -20.5245  -52.6173 H         1 UNK         0.0800 
@<TRIPOS>BOND
     1    1    2 1    
     2    1  127 1    
     3    1  128 1    
     4    1  129 1    
     5    2    3 2    
     6    2    4 am   BACKBONE|DICT|INTERRES
     7    4    5 1    
     8    4  130 1    
     9    5    6 1    
    10    5   65 1    
    11    5  131 1    
    12    6    7 1    
    13    6  132 1    
    14    6  133 1    
    15    7    8 1    
    16    8    9 1    
    17    8  134 1    
    18    8  135 1    
    19    9   10 ar   
    20    9   14 ar   
    21   10   11 ar   
    22   10  136 1    
    23   11   12 ar   
    24   11  126 1    
    25   12   13 ar   
    26   12  137 1    
    27   13   14 ar   
    28   13   15 1    
    29   14  138 1    
    30   15   16 1    
    31   15  139 1    
    32   15  140 1    
    33   16   17 1    
    34   17   18 1    
    35   17  141 1    
    36   17  142 1    
    37   18   19 1    
    38   18   67 1    
    39   18  143 1    
    40   19   20 am   BACKBONE|DICT|INTERRES
    41   19  144 1    
    42   20   21 2    
    43   20   22 1    
    44   22   23 1    
    45   22   24 1    
    46   22  145 1    
    47   23  146 1    
    48   23  147 1    
    49   23  148 1    
    50   24   25 am   BACKBONE|DICT|INTERRES
    51   24  149 1    
    52   25   26 2    
    53   25   27 1    
    54   27   28 1    
    55   27   29 1    
    56   27  150 1    
    57   28  151 1    
    58   28  152 1    
    59   28  153 1    
    60   29   30 am   BACKBONE|DICT|INTERRES
    61   29  154 1    
    62   30   31 2    
    63   30   32 1    
    64   32   33 1    
    65   32   34 1    
    66   32  155 1    
    67   33  156 1    
    68   33  157 1    
    69   33  158 1    
    70   34   35 am   BACKBONE|DICT|INTERRES
    71   34  159 1    
    72   35   36 2    
    73   35   37 1    
    74   37   38 1    
    75   37   39 1    
    76   37  160 1    
    77   38  161 1    
    78   38  162 1    
    79   38  163 1    
    80   39   40 am   BACKBONE|DICT|INTERRES
    81   39  164 1    
    82   40   41 2    
    83   40   42 1    
    84   42   43 1    
    85   42   44 1    
    86   42  165 1    
    87   43  166 1    
    88   43  167 1    
    89   43  168 1    
    90   44   45 am   BACKBONE|DICT|INTERRES
    91   44  169 1    
    92   45   46 2    
    93   45   47 1    
    94   47   48 1    
    95   47   49 1    
    96   47  170 1    
    97   48  171 1    
    98   48  172 1    
    99   48  173 1    
   100   49   50 am   BACKBONE|DICT|INTERRES
   101   49  174 1    
   102   50   51 2    
   103   50   52 1    
   104   52   53 1    
   105   52   54 1    
   106   52  175 1    
   107   53  176 1    
   108   53  177 1    
   109   53  178 1    
   110   54   55 am   BACKBONE|DICT|INTERRES
   111   54  179 1    
   112   55   56 2    
   113   55   57 1    
   114   57   58 1    
   115   57   59 1    
   116   57  180 1    
   117   58  181 1    
   118   58  182 1    
   119   58  183 1    
   120   59   60 am   BACKBONE|DICT|INTERRES
   121   59  184 1    
   122   60   61 2    
   123   60   62 1    
   124   62   63 1    
   125   62   64 1    
   126   62  185 1    
   127   63  186 1    
   128   63  187 1    
   129   63  188 1    
   130   64   65 am   BACKBONE|DICT|INTERRES
   131   64  189 1    
   132   65   66 2    
   133   67   68 2    
   134   67   69 am   BACKBONE|DICT|INTERRES
   135   69   70 1    
   136   69  190 1    
   137   70   71 1    
   138   70   72 1    
   139   70  191 1    
   140   71  192 1    
   141   71  193 1    
   142   71  194 1    
   143   72   73 2    
   144   72   74 am   BACKBONE|DICT|INTERRES
   145   74   75 1    
   146   74  195 1    
   147   75   76 1    
   148   75   77 1    
   149   75  196 1    
   150   76  197 1    
   151   76  198 1    
   152   76  199 1    
   153   77   78 2    
   154   77   79 am   BACKBONE|DICT|INTERRES
   155   79   80 1    
   156   79  200 1    
   157   80   81 1    
   158   80   82 1    
   159   80  201 1    
   160   81  202 1    
   161   81  203 1    
   162   81  204 1    
   163   82   83 2    
   164   82   84 am   BACKBONE|DICT|INTERRES
   165   84   85 1    
   166   84  205 1    
   167   85   86 1    
   168   85   87 1    
   169   85  206 1    
   170   86  207 1    
   171   86  208 1    
   172   86  209 1    
   173   87   88 2    
   174   87   89 am   BACKBONE|DICT|INTERRES
   175   89   90 1    
   176   89  210 1    
   177   90   91 1    
   178   90   92 1    
   179   90  211 1    
   180   91  212 1    
   181   91  213 1    
   182   91  214 1    
   183   92   93 2    
   184   92   94 am   BACKBONE|DICT|INTERRES
   185   94   95 1    
   186   94  215 1    
   187   95   96 1    
   188   95   97 1    
   189   95  216 1    
   190   96  217 1    
   191   96  218 1    
   192   96  219 1    
   193   97   98 2    
   194   97   99 am   BACKBONE|DICT|INTERRES
   195   99  100 1    
   196   99  220 1    
   197  100  101 1    
   198  100  102 1    
   199  100  221 1    
   200  101  222 1    
   201  101  223 1    
   202  101  224 1    
   203  102  103 2    
   204  102  104 am   BACKBONE|DICT|INTERRES
   205  104  105 1    
   206  104  225 1    
   207  105  106 1    
   208  105  107 1    
   209  105  226 1    
   210  106  227 1    
   211  106  228 1    
   212  106  229 1    
   213  107  108 2    
   214  107  109 am   BACKBONE|DICT|INTERRES
   215  109  110 1    
   216  109  230 1    
   217  110  111 1    
   218  110  112 1    
   219  110  231 1    
   220  111  232 1    
   221  111  233 1    
   222  111  234 1    
   223  112  113 2    
   224  112  114 am   BACKBONE|DICT|INTERRES
   225  114  115 1    
   226  114  235 1    
   227  115  116 1    
   228  115  117 1    
   229  115  236 1    
   230  116  237 1    
   231  116  238 1    
   232  116  239 1    
   233  117  118 2    
   234  117  119 am   BACKBONE|DICT|INTERRES
   235  119  120 1    
   236  119  240 1    
   237  120  121 1    
   238  120  124 1    
   239  120  241 1    
   240  121  122 am   BACKBONE|DICT|INTERRES
   241  121  123 2    
   242  122  242 1    
   243  122  243 1    
   244  124  125 1    
   245  124  244 1    
   246  124  245 1    
   247  125  126 1    
   248  126  246 1    
   249  126  247 1    
@<TRIPOS>SUBSTRUCTURE
     1 UNK         1 GROUP             0       ****    0 ROOT    
