@<TRIPOS>MOLECULE
3R540
247   249    1
SMALL
USER_CHARGES


@<TRIPOS>ATOM
      1 CA          5.1764  -20.5469  -44.3567 C.3       0 UNK        -0.1800 
      2 C           4.6735  -19.1128  -44.4445 C.2       0 UNK         0.5000 
      3 O           4.1775  -18.5775  -43.4542 O.2       0 UNK        -0.5000 
      4 N           4.7905  -18.5013  -45.6291 N.am      1 UNK        -0.5000 
      5 CA          4.3484  -17.1359  -45.9225 C.3       1 UNK         0.1400 
      6 C6          4.2442  -16.9118  -47.4466 C.3       23 UNK        -0.0398 
      7 S7          3.1863  -15.5001  -47.9279 S.3       23 UNK        -0.2404 
      8 C8          3.1689  -15.6621  -49.7482 C.3       23 UNK        -0.0205 
      9 C9          2.3545  -16.8672  -50.1963 C.ar      23 UNK        -0.0193 
     10 C10         0.9896  -16.7426  -50.4684 C.ar      23 UNK        -0.1150 
     11 C11         0.2195  -17.8682  -50.7908 C.ar      23 UNK        -0.0193 
     12 C12         0.8252  -19.1287  -50.7906 C.ar      23 UNK        -0.1150 
     13 C13         2.1881  -19.2637  -50.5142 C.ar      23 UNK        -0.0193 
     14 C14         2.9572  -18.1230  -50.2831 C.ar      23 UNK        -0.1150 
     15 C15         2.8122  -20.6431  -50.3608 C.3       23 UNK        -0.0205 
     16 S16         3.5115  -20.9053  -48.6876 S.3       23 UNK        -0.2404 
     17 C17         2.1422  -20.4109  -47.5757 C.3       23 UNK        -0.0398 
     18 CA          1.3245  -21.5995  -47.0273 C.3       11 UNK         0.1400 
     19 N           0.5037  -21.2010  -45.8814 N.am      11 UNK        -0.5000 
     20 C          -0.1725  -22.0476  -45.0932 C.2       10 UNK         0.5000 
     21 O          -0.1278  -23.2720  -45.2084 O.2       10 UNK        -0.5000 
     22 CA         -1.0921  -21.4206  -44.0295 C.3       10 UNK         0.1400 
     23 CB         -0.2892  -20.9939  -42.7916 C.3       10 UNK        -0.1800 
     24 N          -1.8536  -20.2822  -44.5478 N.am      10 UNK        -0.5000 
     25 C          -2.7712  -20.3709  -45.5218 C.2       9 UNK         0.5000 
     26 O          -3.1110  -21.4323  -46.0424 O.2       9 UNK        -0.5000 
     27 CA         -3.3836  -19.0556  -46.0352 C.3       9 UNK         0.1400 
     28 CB         -4.5270  -18.5949  -45.1195 C.3       9 UNK        -0.1800 
     29 N          -2.3984  -17.9833  -46.1822 N.am      9 UNK        -0.5000 
     30 C          -1.3474  -18.0266  -47.0142 C.2       8 UNK         0.5000 
     31 O          -1.1199  -18.9676  -47.7727 O.2       8 UNK        -0.5000 
     32 CA         -0.3513  -16.8546  -46.9438 C.3       8 UNK         0.1400 
     33 CB         -0.8961  -15.6178  -47.6732 C.3       8 UNK        -0.1800 
     34 N          -0.0139  -16.4962  -45.5669 N.am      8 UNK        -0.5000 
     35 C           0.5726  -17.3170  -44.6850 C.2       7 UNK         0.5000 
     36 O           0.9720  -18.4470  -44.9659 O.2       7 UNK        -0.5000 
     37 CA          0.6726  -16.8069  -43.2361 C.3       7 UNK         0.1400 
     38 CB          1.8527  -15.8414  -43.0517 C.3       7 UNK        -0.1800 
     39 N          -0.5585  -16.1392  -42.8175 N.am      7 UNK        -0.5000 
     40 C          -1.7167  -16.7671  -42.5759 C.2       6 UNK         0.5000 
     41 O          -1.8630  -17.9863  -42.6555 O.2       6 UNK        -0.5000 
     42 CA         -2.9196  -15.8750  -42.2180 C.3       6 UNK         0.1400 
     43 CB         -2.9251  -15.5509  -40.7167 C.3       6 UNK        -0.1800 
     44 N          -2.9422  -14.6270  -42.9838 N.am      6 UNK        -0.5000 
     45 C          -3.1579  -14.5595  -44.3049 C.2       5 UNK         0.5000 
     46 O          -3.3842  -15.5412  -45.0099 O.2       5 UNK        -0.5000 
     47 CA         -3.0586  -13.1682  -44.9560 C.3       5 UNK         0.1400 
     48 CB         -4.3969  -12.4231  -44.8430 C.3       5 UNK        -0.1800 
     49 N          -1.9877  -12.3334  -44.4037 N.am      5 UNK        -0.5000 
     50 C          -0.6852  -12.6444  -44.4320 C.2       4 UNK         0.5000 
     51 O          -0.2446  -13.7153  -44.8564 O.2       4 UNK        -0.5000 
     52 CA          0.2797  -11.6030  -43.8377 C.3       4 UNK         0.1400 
     53 CB          0.5284  -11.9027  -42.3514 C.3       4 UNK        -0.1800 
     54 N           1.5662  -11.5825  -44.5317 N.am      4 UNK        -0.5000 
     55 C           1.7642  -11.2526  -45.8137 C.2       3 UNK         0.5000 
     56 O           0.8680  -10.8443  -46.5539 O.2       3 UNK        -0.5000 
     57 CA          3.1926  -11.4028  -46.3827 C.3       3 UNK         0.1400 
     58 CB          3.9350  -10.0526  -46.3740 C.3       3 UNK        -0.1800 
     59 N           4.0112  -12.4652  -45.7747 N.am      3 UNK        -0.5000 
     60 C           4.5055  -12.5508  -44.5292 C.2       2 UNK         0.5000 
     61 O           4.3086  -11.7046  -43.6568 O.2       2 UNK        -0.5000 
     62 CA          5.2920  -13.8316  -44.1978 C.3       2 UNK         0.1400 
     63 CB          5.4221  -14.0886  -42.6835 C.3       2 UNK        -0.1800 
     64 N           4.6476  -14.9738  -44.8401 N.am      2 UNK        -0.5000 
     65 C           5.2584  -16.0879  -45.2515 C.2       1 UNK         0.5000 
     66 O           6.4705  -16.2916  -45.1471 O.2       1 UNK        -0.5000 
     67 C           0.4789  -22.2746  -48.1274 C.2       11 UNK         0.5000 
     68 O           0.8728  -23.3278  -48.6285 O.2       11 UNK        -0.5000 
     69 N          -0.6851  -21.6910  -48.4519 N.am      12 UNK        -0.5000 
     70 CA         -1.6578  -22.2551  -49.3884 C.3       12 UNK         0.1400 
     71 CB         -2.8170  -21.2715  -49.6105 C.3       12 UNK        -0.1800 
     72 C          -2.1764  -23.6291  -48.9311 C.2       12 UNK         0.5000 
     73 O          -2.1711  -24.5656  -49.7275 O.2       12 UNK        -0.5000 
     74 N          -2.5473  -23.7439  -47.6479 N.am      13 UNK        -0.5000 
     75 CA         -2.9851  -24.9906  -47.0194 C.3       13 UNK         0.1400 
     76 CB         -3.4681  -24.7096  -45.5890 C.3       13 UNK        -0.1800 
     77 C          -1.9000  -26.0835  -47.0290 C.2       13 UNK         0.5000 
     78 O          -2.2088  -27.2345  -47.3379 O.2       13 UNK        -0.5000 
     79 N          -0.6448  -25.7038  -46.7471 N.am      14 UNK        -0.5000 
     80 CA          0.5280  -26.5807  -46.8238 C.3       14 UNK         0.1400 
     81 CB          1.7480  -25.8624  -46.2276 C.3       14 UNK        -0.1800 
     82 C           0.8255  -27.0684  -48.2563 C.2       14 UNK         0.5000 
     83 O           1.2491  -28.2108  -48.4343 O.2       14 UNK        -0.5000 
     84 N           0.5580  -26.2121  -49.2508 N.am      15 UNK        -0.5000 
     85 CA          0.6344  -26.5188  -50.6810 C.3       15 UNK         0.1400 
     86 CB          0.8233  -25.2034  -51.4561 C.3       15 UNK        -0.1800 
     87 C          -0.5885  -27.3015  -51.2125 C.2       15 UNK         0.5000 
     88 O          -0.5989  -27.6586  -52.3914 O.2       15 UNK        -0.5000 
     89 N          -1.5890  -27.5489  -50.3524 N.am      16 UNK        -0.5000 
     90 CA         -2.8674  -28.2164  -50.6210 C.3       16 UNK         0.1400 
     91 CB         -2.6527  -29.6845  -51.0460 C.3       16 UNK        -0.1800 
     92 C          -3.7819  -27.4289  -51.5848 C.2       16 UNK         0.5000 
     93 O          -4.5631  -28.0303  -52.3249 O.2       16 UNK        -0.5000 
     94 N          -3.6833  -26.0963  -51.5428 N.am      17 UNK        -0.5000 
     95 CA         -4.5287  -25.1507  -52.2631 C.3       17 UNK         0.1400 
     96 CB         -3.6197  -24.1110  -52.9411 C.3       17 UNK        -0.1800 
     97 C          -5.4902  -24.4585  -51.2818 C.2       17 UNK         0.5000 
     98 O          -5.2929  -24.5125  -50.0651 O.2       17 UNK        -0.5000 
     99 N          -6.5096  -23.7903  -51.8306 N.am      18 UNK        -0.5000 
    100 CA        -7.3836  -22.8915  -51.0803 C.3       18 UNK         0.1400 
    101 CB        -8.7016  -22.7156  -51.8508 C.3       18 UNK        -0.1800 
    102 C         -6.6953  -21.5298  -50.8943 C.2       18 UNK         0.5000 
    103 O         -6.0189  -21.0617  -51.8121 O.2       18 UNK        -0.5000 
    104 N         -6.9291  -20.8778  -49.7484 N.am      19 UNK        -0.5000 
    105 CA        -6.4321  -19.5263  -49.4617 C.3       19 UNK         0.1400 
    106 CB        -6.7240  -19.1798  -47.9951 C.3       19 UNK        -0.1800 
    107 C         -7.0235  -18.4576  -50.4042 C.2       19 UNK         0.5000 
    108 O         -6.3493  -17.4785  -50.7210 O.2       19 UNK        -0.5000 
    109 N         -8.2538  -18.6976  -50.8789 N.am      20 UNK        -0.5000 
    110 CA        -8.9588  -17.8765  -51.8638 C.3       20 UNK         0.1400 
    111 CB       -10.4322  -18.3114  -51.8990 C.3       20 UNK        -0.1800 
    112 C         -8.3481  -17.9349  -53.2800 C.2       20 UNK         0.5000 
    113 O         -8.6250  -17.0452  -54.0848 O.2       20 UNK        -0.5000 
    114 N         -7.5360  -18.9637  -53.5684 N.am      21 UNK        -0.5000 
    115 CA        -6.8438  -19.1356  -54.8483 C.3       21 UNK         0.1400 
    116 CB        -6.5967  -20.6340  -55.0914 C.3       21 UNK        -0.1800 
    117 C         -5.5236  -18.3414  -54.9292 C.2       21 UNK         0.5000 
    118 O         -4.9267  -18.2860  -56.0054 O.2       21 UNK        -0.5000 
    119 N         -5.0802  -17.7566  -53.8073 N.am      22 UNK        -0.5000 
    120 CA        -3.8866  -16.9054  -53.7129 C.3       22 UNK         0.1400 
    121 C         -4.0131  -15.5963  -54.5455 C.2       22 UNK         0.5000 
    122 N         -2.9569  -15.1809  -55.2313 N.am      22 UNK        -0.7600 
    123 O         -5.0505  -14.9371  -54.5465 O.2       22 UNK        -0.5000 
    124 C124       -3.5457  -16.6016  -52.2317 C.3       23 UNK        -0.0398 
    125 S125       -1.7688  -16.2717  -51.9838 S.3       23 UNK        -0.2404 
    126 C126       -1.2780  -17.7676  -51.0657 C.3       23 UNK        -0.0205 
    127 H127        5.9703  -20.6220  -43.6137 H         1 UNK         0.0600 
    128 H128        5.5676  -20.8992  -45.3116 H         1 UNK         0.0600 
    129 H129        4.3637  -21.2096  -44.0588 H         1 UNK         0.0600 
    130 H130        5.2524  -18.9846  -46.3857 H         1 UNK         0.3000 
    131 H131        3.3465  -17.0365  -45.5039 H         1 UNK         0.0600 
    132 H132        5.2287  -16.8114  -47.9075 H         1 UNK         0.0800 
    133 H133        3.7944  -17.8055  -47.8711 H         1 UNK         0.0800 
    134 H134        4.1914  -15.7335  -50.1220 H         1 UNK         0.0800 
    135 H135        2.7494  -14.7517  -50.1788 H         1 UNK         0.0800 
    136 H136        0.5257  -15.7690  -50.4054 H         1 UNK         0.1150 
    137 H137        0.2256  -20.0103  -50.9689 H         1 UNK         0.1150 
    138 H138        4.0126  -18.2290  -50.0763 H         1 UNK         0.1150 
    139 H139        2.0801  -21.4258  -50.5656 H         1 UNK         0.0800 
    140 H140        3.6047  -20.7619  -51.1005 H         1 UNK         0.0800 
    141 H141        1.4903  -19.6736  -48.0427 H         1 UNK         0.0800 
    142 H142        2.6032  -19.8856  -46.7396 H         1 UNK         0.0800 
    143 H143        2.0308  -22.3462  -46.6578 H         1 UNK         0.0600 
    144 H144        0.4433  -20.2053  -45.6882 H         1 UNK         0.3000 
    145 H145       -1.8078  -22.1846  -43.7193 H         1 UNK         0.0600 
    146 H146        0.2603  -21.8383  -42.3738 H         1 UNK         0.0600 
    147 H147        0.4363  -20.2152  -43.0265 H         1 UNK         0.0600 
    148 H148       -0.9455  -20.6136  -42.0086 H         1 UNK         0.0600 
    149 H149       -1.6682  -19.3779  -44.1267 H         1 UNK         0.3000 
    150 H150       -3.8008  -19.2521  -47.0245 H         1 UNK         0.0600 
    151 H151       -5.2764  -19.3788  -45.0041 H         1 UNK         0.0600 
    152 H152       -5.0322  -17.7204  -45.5293 H         1 UNK         0.0600 
    153 H153       -4.1669  -18.3369  -44.1238 H         1 UNK         0.0600 
    154 H154       -2.5533  -17.1469  -45.6260 H         1 UNK         0.3000 
    155 H155        0.5666  -17.1709  -47.4437 H         1 UNK         0.0600 
    156 H156       -1.7716  -15.2070  -47.1722 H         1 UNK         0.0600 
    157 H157       -0.1423  -14.8320  -47.7273 H         1 UNK         0.0600 
    158 H158       -1.1916  -15.8589  -48.6938 H         1 UNK         0.0600 
    159 H159       -0.2651  -15.5575  -45.2666 H         1 UNK         0.3000 
    160 H160        0.8348  -17.6688  -42.5853 H         1 UNK         0.0600 
    161 H161        1.7994  -14.9927  -43.7335 H         1 UNK         0.0600 
    162 H162        2.7981  -16.3517  -43.2259 H         1 UNK         0.0600 
    163 H163        1.8876  -15.4510  -42.0346 H         1 UNK         0.0600 
    164 H164       -0.5410  -15.1309  -42.7907 H         1 UNK         0.3000 
    165 H165       -3.8290  -16.4337  -42.4494 H         1 UNK         0.0600 
    166 H166       -3.8138  -14.9838  -40.4393 H         1 UNK         0.0600 
    167 H167       -2.9249  -16.4647  -40.1209 H         1 UNK         0.0600 
    168 H168       -2.0500  -14.9686  -40.4254 H         1 UNK         0.0600 
    169 H169       -2.7637  -13.7721  -42.4780 H         1 UNK         0.3000 
    170 H170       -2.8437  -13.3177  -46.0158 H         1 UNK         0.0600 
    171 H171       -5.2102  -13.0154  -45.2647 H         1 UNK         0.0600 
    172 H172       -4.6523  -12.2066  -43.8050 H         1 UNK         0.0600 
    173 H173       -4.3699  -11.4786  -45.3868 H         1 UNK         0.0600 
    174 H174       -2.2686  -11.4418  -44.0217 H         1 UNK         0.3000 
    175 H175       -0.1685  -10.6117  -43.9296 H         1 UNK         0.0600 
    176 H176        0.9995  -12.8764  -42.2104 H         1 UNK         0.0600 
    177 H177        1.1767  -11.1506  -41.9013 H         1 UNK         0.0600 
    178 H178       -0.4056  -11.9040  -41.7880 H         1 UNK         0.0600 
    179 H179        2.3835  -11.8424  -43.9918 H         1 UNK         0.3000 
    180 H180        3.0700  -11.6980  -47.4261 H         1 UNK         0.0600 
    181 H181        4.0722   -9.6682  -45.3631 H         1 UNK         0.0600 
    182 H182        3.3781   -9.2999  -46.9334 H         1 UNK         0.0600 
    183 H183        4.9178  -10.1396  -46.8373 H         1 UNK         0.0600 
    184 H184        4.2201  -13.2318  -46.3996 H         1 UNK         0.3000 
    185 H185        6.2918  -13.6978  -44.6158 H         1 UNK         0.0600 
    186 H186        5.9341  -13.2634  -42.1870 H         1 UNK         0.0600 
    187 H187        4.4455  -14.2040  -42.2121 H         1 UNK         0.0600 
    188 H188        5.9983  -14.9920  -42.4832 H         1 UNK         0.0600 
    189 H189        3.6539  -14.8766  -44.9952 H         1 UNK         0.3000 
    190 H190       -0.9196  -20.7924  -48.0353 H         1 UNK         0.3000 
    191 H191       -1.1481  -22.3941  -50.3438 H         1 UNK         0.0600 
    192 H192       -3.3770  -21.0906  -48.6936 H         1 UNK         0.0600 
    193 H193       -3.5190  -21.6591  -50.3500 H         1 UNK         0.0600 
    194 H194       -2.4561  -20.3110  -49.9756 H         1 UNK         0.0600 
    195 H195       -2.5574  -22.9117  -47.0631 H         1 UNK         0.3000 
    196 H196       -3.8340  -25.3644  -47.5959 H         1 UNK         0.0600 
    197 H197       -3.8199  -25.6233  -45.1085 H         1 UNK         0.0600 
    198 H198       -4.2961  -24.0005  -45.5860 H         1 UNK         0.0600 
    199 H199       -2.6726  -24.2965  -44.9687 H         1 UNK         0.0600 
    200 H200       -0.4777  -24.7459  -46.4516 H         1 UNK         0.3000 
    201 H201        0.3230  -27.4620  -46.2127 H         1 UNK         0.0600 
    202 H202        1.5711  -25.5809  -45.1895 H         1 UNK         0.0600 
    203 H203        1.9937  -24.9566  -46.7821 H         1 UNK         0.0600 
    204 H204        2.6278  -26.5067  -46.2449 H         1 UNK         0.0600 
    205 H205        0.2672  -25.2696  -49.0108 H         1 UNK         0.3000 
    206 H206        1.5145  -27.1407  -50.8557 H         1 UNK         0.0600 
    207 H207        1.7033  -24.6626  -51.1071 H         1 UNK         0.0600 
    208 H208        0.9592  -25.3908  -52.5218 H         1 UNK         0.0600 
    209 H209       -0.0378  -24.5441  -51.3472 H         1 UNK         0.0600 
    210 H210       -1.4900  -27.1900  -49.4109 H         1 UNK         0.3000 
    211 H211       -3.3956  -28.2326  -49.6670 H         1 UNK         0.0600 
    212 H212       -2.2006  -29.7602  -52.0350 H         1 UNK         0.0600 
    213 H213       -3.6001  -30.2236  -51.0797 H         1 UNK         0.0600 
    214 H214       -2.0083  -30.2086  -50.3402 H         1 UNK         0.0600 
    215 H215       -3.0657  -25.6720  -50.8516 H         1 UNK         0.3000 
    216 H216       -5.1177  -25.6608  -53.0278 H         1 UNK         0.0600 
    217 H217       -4.2020  -23.3906  -53.5168 H         1 UNK         0.0600 
    218 H218       -2.9220  -24.5889  -53.6291 H         1 UNK         0.0600 
    219 H219       -3.0351  -23.5498  -52.2110 H         1 UNK         0.0600 
    220 H220       -6.5866  -23.7506  -52.8363 H         1 UNK         0.3000 
    221 H221       -7.6045  -23.3242  -50.1021 H         1 UNK         0.0600 
    222 H222       -8.5404  -22.2698  -52.8333 H         1 UNK         0.0600 
    223 H223       -9.2031  -23.6726  -51.9960 H         1 UNK         0.0600 
    224 H224       -9.3906  -22.0686  -51.3065 H         1 UNK         0.0600 
    225 H225       -7.4959  -21.3141  -49.0353 H         1 UNK         0.3000 
    226 H226       -5.3492  -19.5268  -49.6039 H         1 UNK         0.0600 
    227 H227       -6.2681  -19.9054  -47.3215 H         1 UNK         0.0600 
    228 H228       -6.3214  -18.1988  -47.7393 H         1 UNK         0.0600 
    229 H229       -7.7951  -19.1590  -47.7906 H         1 UNK         0.0600 
    230 H230       -8.7323  -19.5268  -50.5603 H         1 UNK         0.3000 
    231 H231       -8.9151  -16.8369  -51.5325 H         1 UNK         0.0600 
    232 H232      -11.0044  -17.7004  -52.5984 H         1 UNK         0.0600 
    233 H233      -10.8994  -18.2040  -50.9199 H         1 UNK         0.0600 
    234 H234      -10.5370  -19.3516  -52.2103 H         1 UNK         0.0600 
    235 H235       -7.3138  -19.6402  -52.8487 H         1 UNK         0.3000 
    236 H236       -7.4895  -18.7732  -55.6510 H         1 UNK         0.0600 
    237 H237       -7.5187  -21.2087  -55.0030 H         1 UNK         0.0600 
    238 H238       -6.2047  -20.8040  -56.0949 H         1 UNK         0.0600 
    239 H239       -5.8722  -21.0456  -54.3892 H         1 UNK         0.0600 
    240 H240       -5.6477  -17.8238  -52.9738 H         1 UNK         0.3000 
    241 H241       -3.0708  -17.4961  -54.1352 H         1 UNK         0.0600 
    242 H242       -2.0887  -15.6938  -55.2211 H         1 UNK         0.3800 
    243 H243       -3.0216  -14.3280  -55.7649 H         1 UNK         0.3800 
    244 H244       -4.1273  -15.7594  -51.8519 H         1 UNK         0.0800 
    245 H245       -3.8212  -17.4488  -51.6025 H         1 UNK         0.0800 
    246 H246       -1.8129  -17.7965  -50.1165 H         1 UNK         0.0800 
    247 H247       -1.6058  -18.6377  -51.6368 H         1 UNK         0.0800 
@<TRIPOS>BOND
     1    1    2 1    
     2    1  127 1    
     3    1  128 1    
     4    1  129 1    
     5    2    3 2    
     6    2    4 am   BACKBONE|DICT|INTERRES
     7    4    5 1    
     8    4  130 1    
     9    5    6 1    
    10    5   65 1    
    11    5  131 1    
    12    6    7 1    
    13    6  132 1    
    14    6  133 1    
    15    7    8 1    
    16    8    9 1    
    17    8  134 1    
    18    8  135 1    
    19    9   10 ar   
    20    9   14 ar   
    21   10   11 ar   
    22   10  136 1    
    23   11   12 ar   
    24   11  126 1    
    25   12   13 ar   
    26   12  137 1    
    27   13   14 ar   
    28   13   15 1    
    29   14  138 1    
    30   15   16 1    
    31   15  139 1    
    32   15  140 1    
    33   16   17 1    
    34   17   18 1    
    35   17  141 1    
    36   17  142 1    
    37   18   19 1    
    38   18   67 1    
    39   18  143 1    
    40   19   20 am   BACKBONE|DICT|INTERRES
    41   19  144 1    
    42   20   21 2    
    43   20   22 1    
    44   22   23 1    
    45   22   24 1    
    46   22  145 1    
    47   23  146 1    
    48   23  147 1    
    49   23  148 1    
    50   24   25 am   BACKBONE|DICT|INTERRES
    51   24  149 1    
    52   25   26 2    
    53   25   27 1    
    54   27   28 1    
    55   27   29 1    
    56   27  150 1    
    57   28  151 1    
    58   28  152 1    
    59   28  153 1    
    60   29   30 am   BACKBONE|DICT|INTERRES
    61   29  154 1    
    62   30   31 2    
    63   30   32 1    
    64   32   33 1    
    65   32   34 1    
    66   32  155 1    
    67   33  156 1    
    68   33  157 1    
    69   33  158 1    
    70   34   35 am   BACKBONE|DICT|INTERRES
    71   34  159 1    
    72   35   36 2    
    73   35   37 1    
    74   37   38 1    
    75   37   39 1    
    76   37  160 1    
    77   38  161 1    
    78   38  162 1    
    79   38  163 1    
    80   39   40 am   BACKBONE|DICT|INTERRES
    81   39  164 1    
    82   40   41 2    
    83   40   42 1    
    84   42   43 1    
    85   42   44 1    
    86   42  165 1    
    87   43  166 1    
    88   43  167 1    
    89   43  168 1    
    90   44   45 am   BACKBONE|DICT|INTERRES
    91   44  169 1    
    92   45   46 2    
    93   45   47 1    
    94   47   48 1    
    95   47   49 1    
    96   47  170 1    
    97   48  171 1    
    98   48  172 1    
    99   48  173 1    
   100   49   50 am   BACKBONE|DICT|INTERRES
   101   49  174 1    
   102   50   51 2    
   103   50   52 1    
   104   52   53 1    
   105   52   54 1    
   106   52  175 1    
   107   53  176 1    
   108   53  177 1    
   109   53  178 1    
   110   54   55 am   BACKBONE|DICT|INTERRES
   111   54  179 1    
   112   55   56 2    
   113   55   57 1    
   114   57   58 1    
   115   57   59 1    
   116   57  180 1    
   117   58  181 1    
   118   58  182 1    
   119   58  183 1    
   120   59   60 am   BACKBONE|DICT|INTERRES
   121   59  184 1    
   122   60   61 2    
   123   60   62 1    
   124   62   63 1    
   125   62   64 1    
   126   62  185 1    
   127   63  186 1    
   128   63  187 1    
   129   63  188 1    
   130   64   65 am   BACKBONE|DICT|INTERRES
   131   64  189 1    
   132   65   66 2    
   133   67   68 2    
   134   67   69 am   BACKBONE|DICT|INTERRES
   135   69   70 1    
   136   69  190 1    
   137   70   71 1    
   138   70   72 1    
   139   70  191 1    
   140   71  192 1    
   141   71  193 1    
   142   71  194 1    
   143   72   73 2    
   144   72   74 am   BACKBONE|DICT|INTERRES
   145   74   75 1    
   146   74  195 1    
   147   75   76 1    
   148   75   77 1    
   149   75  196 1    
   150   76  197 1    
   151   76  198 1    
   152   76  199 1    
   153   77   78 2    
   154   77   79 am   BACKBONE|DICT|INTERRES
   155   79   80 1    
   156   79  200 1    
   157   80   81 1    
   158   80   82 1    
   159   80  201 1    
   160   81  202 1    
   161   81  203 1    
   162   81  204 1    
   163   82   83 2    
   164   82   84 am   BACKBONE|DICT|INTERRES
   165   84   85 1    
   166   84  205 1    
   167   85   86 1    
   168   85   87 1    
   169   85  206 1    
   170   86  207 1    
   171   86  208 1    
   172   86  209 1    
   173   87   88 2    
   174   87   89 am   BACKBONE|DICT|INTERRES
   175   89   90 1    
   176   89  210 1    
   177   90   91 1    
   178   90   92 1    
   179   90  211 1    
   180   91  212 1    
   181   91  213 1    
   182   91  214 1    
   183   92   93 2    
   184   92   94 am   BACKBONE|DICT|INTERRES
   185   94   95 1    
   186   94  215 1    
   187   95   96 1    
   188   95   97 1    
   189   95  216 1    
   190   96  217 1    
   191   96  218 1    
   192   96  219 1    
   193   97   98 2    
   194   97   99 am   BACKBONE|DICT|INTERRES
   195   99  100 1    
   196   99  220 1    
   197  100  101 1    
   198  100  102 1    
   199  100  221 1    
   200  101  222 1    
   201  101  223 1    
   202  101  224 1    
   203  102  103 2    
   204  102  104 am   BACKBONE|DICT|INTERRES
   205  104  105 1    
   206  104  225 1    
   207  105  106 1    
   208  105  107 1    
   209  105  226 1    
   210  106  227 1    
   211  106  228 1    
   212  106  229 1    
   213  107  108 2    
   214  107  109 am   BACKBONE|DICT|INTERRES
   215  109  110 1    
   216  109  230 1    
   217  110  111 1    
   218  110  112 1    
   219  110  231 1    
   220  111  232 1    
   221  111  233 1    
   222  111  234 1    
   223  112  113 2    
   224  112  114 am   BACKBONE|DICT|INTERRES
   225  114  115 1    
   226  114  235 1    
   227  115  116 1    
   228  115  117 1    
   229  115  236 1    
   230  116  237 1    
   231  116  238 1    
   232  116  239 1    
   233  117  118 2    
   234  117  119 am   BACKBONE|DICT|INTERRES
   235  119  120 1    
   236  119  240 1    
   237  120  121 1    
   238  120  124 1    
   239  120  241 1    
   240  121  122 am   BACKBONE|DICT|INTERRES
   241  121  123 2    
   242  122  242 1    
   243  122  243 1    
   244  124  125 1    
   245  124  244 1    
   246  124  245 1    
   247  125  126 1    
   248  126  246 1    
   249  126  247 1    
@<TRIPOS>SUBSTRUCTURE
     1 UNK         1 GROUP             0       ****    0 ROOT    
