@<TRIPOS>MOLECULE
3R540
247   249    1
SMALL
USER_CHARGES


@<TRIPOS>ATOM
      1 CA         -1.2158  -12.8139  -45.8601 C.3       0 UNK        -0.1800 
      2 C          -0.3415  -12.2041  -46.9439 C.2       0 UNK         0.5000 
      3 O          -0.7315  -11.2111  -47.5583 O.2       0 UNK        -0.5000 
      4 N           0.8385  -12.7909  -47.1795 N.am      1 UNK        -0.5000 
      5 CA          1.8408  -12.2963  -48.1279 C.3       1 UNK         0.1400 
      6 C6          2.8271  -13.4058  -48.5678 C.3       23 UNK        -0.0398 
      7 S7          2.0248  -14.6201  -49.6652 S.3       23 UNK        -0.2404 
      8 C8          1.6424  -15.9650  -48.5040 C.3       23 UNK        -0.0205 
      9 C9          0.7636  -17.0139  -49.1656 C.ar      23 UNK        -0.0193 
     10 C10        -0.6122  -16.7992  -49.2880 C.ar      23 UNK        -0.1150 
     11 C11        -1.4352  -17.7697  -49.8659 C.ar      23 UNK        -0.0193 
     12 C12        -0.8661  -18.9483  -50.3556 C.ar      23 UNK        -0.1150 
     13 C13         0.5101  -19.1748  -50.2432 C.ar      23 UNK        -0.0193 
     14 C14         1.3181  -18.2041  -49.6427 C.ar      23 UNK        -0.1150 
     15 C15         1.1337  -20.4653  -50.7631 C.3       23 UNK        -0.0205 
     16 S16         0.4176  -21.9731  -50.0287 S.3       23 UNK        -0.2404 
     17 C17         0.3600  -21.5557  -48.2543 C.3       23 UNK        -0.0398 
     18 CA         -0.0492  -22.7453  -47.3573 C.3       11 UNK         0.1400 
     19 N           0.1948  -22.4465  -45.9455 N.am      11 UNK        -0.5000 
     20 C           0.1193  -23.3372  -44.9483 C.2       10 UNK         0.5000 
     21 O          -0.1470  -24.5265  -45.1124 O.2       10 UNK        -0.5000 
     22 CA          0.3268  -22.8008  -43.5224 C.3       10 UNK         0.1400 
     23 CB          1.8177  -22.5677  -43.2370 C.3       10 UNK        -0.1800 
     24 N          -0.4268  -21.5715  -43.2748 N.am      10 UNK        -0.5000 
     25 C          -1.7650  -21.4876  -43.3027 C.2       9 UNK         0.5000 
     26 O          -2.5065  -22.4510  -43.4984 O.2       9 UNK        -0.5000 
     27 CA         -2.3777  -20.0866  -43.1257 C.3       9 UNK         0.1400 
     28 CB         -2.3916  -19.6792  -41.6450 C.3       9 UNK        -0.1800 
     29 N          -1.6909  -19.0612  -43.9125 N.am      9 UNK        -0.5000 
     30 C          -1.6093  -19.0552  -45.2506 C.2       8 UNK         0.5000 
     31 O          -2.1242  -19.9060  -45.9730 O.2       8 UNK        -0.5000 
     32 CA         -0.7618  -17.9454  -45.8919 C.3       8 UNK         0.1400 
     33 CB         -1.5262  -16.6146  -45.9286 C.3       8 UNK        -0.1800 
     34 N           0.5256  -17.7672  -45.2225 N.am      8 UNK        -0.5000 
     35 C           1.4740  -18.7133  -45.1591 C.2       7 UNK         0.5000 
     36 O           1.3864  -19.8151  -45.7003 O.2       7 UNK        -0.5000 
     37 CA          2.7034  -18.3942  -44.2961 C.3       7 UNK         0.1400 
     38 CB          3.6994  -17.5203  -45.0727 C.3       7 UNK        -0.1800 
     39 N           2.3280  -17.7414  -43.0407 N.am      7 UNK        -0.5000 
     40 C           1.6529  -18.3481  -42.0521 C.2       6 UNK         0.5000 
     41 O           1.3110  -19.5297  -42.0822 O.2       6 UNK        -0.5000 
     42 CA          1.2540  -17.4784  -40.8463 C.3       6 UNK         0.1400 
     43 CB          2.4105  -17.3837  -39.8403 C.3       6 UNK        -0.1800 
     44 N           0.8374  -16.1311  -41.2357 N.am      6 UNK        -0.5000 
     45 C          -0.2479  -15.8521  -41.9721 C.2       5 UNK         0.5000 
     46 O          -1.0396  -16.7043  -42.3723 O.2       5 UNK        -0.5000 
     47 CA         -0.4519  -14.3791  -42.3705 C.3       5 UNK         0.1400 
     48 CB         -1.2635  -13.6336  -41.3019 C.3       5 UNK        -0.1800 
     49 N           0.8123  -13.6749  -42.5976 N.am      5 UNK        -0.5000 
     50 C           1.7002  -13.9708  -43.5543 C.2       4 UNK         0.5000 
     51 O           1.5038  -14.8208  -44.4271 O.2       4 UNK        -0.5000 
     52 CA          3.0219  -13.1807  -43.5071 C.3       4 UNK         0.1400 
     53 CB          4.0990  -13.7693  -44.4326 C.3       4 UNK        -0.1800 
     54 N           2.8220  -11.7724  -43.8450 N.am      4 UNK        -0.5000 
     55 C           2.3620  -10.8353  -43.0002 C.2       3 UNK         0.5000 
     56 O           2.0068  -11.0933  -41.8485 O.2       3 UNK        -0.5000 
     57 CA          2.2827   -9.3775  -43.4951 C.3       3 UNK         0.1400 
     58 CB          3.2071   -8.4594  -42.6765 C.3       3 UNK        -0.1800 
     59 N           2.6161   -9.2574  -44.9125 N.am      3 UNK        -0.5000 
     60 C           2.0498   -8.4214  -45.7861 C.2       2 UNK         0.5000 
     61 O           1.2029   -7.5796  -45.4846 O.2       2 UNK        -0.5000 
     62 CA          2.4823   -8.5784  -47.2571 C.3       2 UNK         0.1400 
     63 CB          3.9784   -8.2649  -47.4604 C.3       2 UNK        -0.1800 
     64 N           2.1132   -9.8850  -47.8180 N.am      2 UNK        -0.5000 
     65 C           2.5655  -11.1018  -47.4825 C.2       1 UNK         0.5000 
     66 O           3.4529  -11.3068  -46.6507 O.2       1 UNK        -0.5000 
     67 C          -1.5052  -23.1981  -47.6076 C.2       11 UNK         0.5000 
     68 O          -1.7201  -24.1802  -48.3202 O.2       11 UNK        -0.5000 
     69 N          -2.4801  -22.5130  -46.9932 N.am      12 UNK        -0.5000 
     70 CA         -3.9012  -22.8629  -47.0421 C.3       12 UNK         0.1400 
     71 CB         -4.7316  -21.7800  -46.3386 C.3       12 UNK        -0.1800 
     72 C          -4.2002  -24.2530  -46.4524 C.2       12 UNK         0.5000 
     73 O          -5.0254  -24.9784  -47.0066 O.2       12 UNK        -0.5000 
     74 N          -3.5113  -24.6063  -45.3606 N.am      13 UNK        -0.5000 
     75 CA         -3.6203  -25.9065  -44.7073 C.3       13 UNK         0.1400 
     76 CB         -3.0698  -25.8049  -43.2755 C.3       13 UNK        -0.1800 
     77 C          -2.9128  -27.0274  -45.4908 C.2       13 UNK         0.5000 
     78 O          -3.5290  -28.0587  -45.7622 O.2       13 UNK        -0.5000 
     79 N          -1.6267  -26.8266  -45.8065 N.am      14 UNK        -0.5000 
     80 CA         -0.7416  -27.8767  -46.3120 C.3       14 UNK         0.1400 
     81 CB          0.7047  -27.5548  -45.9040 C.3       14 UNK        -0.1800 
     82 C          -0.8218  -28.0877  -47.8319 C.2       14 UNK         0.5000 
     83 O          -0.6951  -29.2276  -48.2817 O.2       14 UNK        -0.5000 
     84 N          -0.9926  -27.0016  -48.5955 N.am      15 UNK        -0.5000 
     85 CA         -0.8958  -26.9966  -50.0585 C.3       15 UNK         0.1400 
     86 CB          0.2503  -26.0534  -50.4671 C.3       15 UNK        -0.1800 
     87 C          -2.2107  -26.5814  -50.7390 C.2       15 UNK         0.5000 
     88 O          -2.2247  -26.4208  -51.9601 O.2       15 UNK        -0.5000 
     89 N          -3.2800  -26.3726  -49.9547 N.am      16 UNK        -0.5000 
     90 CA         -4.5918  -25.8656  -50.3814 C.3       16 UNK         0.1400 
     91 CB         -5.3235  -26.9103  -51.2502 C.3       16 UNK        -0.1800 
     92 C          -4.4995  -24.4768  -51.0543 C.2       16 UNK         0.5000 
     93 O          -5.2231  -24.2039  -52.0117 O.2       16 UNK        -0.5000 
     94 N          -3.5686  -23.6495  -50.5545 N.am      17 UNK        -0.5000 
     95 CA         -3.1691  -22.3225  -51.0386 C.3       17 UNK         0.1400 
     96 CB         -4.3598  -21.3456  -51.0920 C.3       17 UNK        -0.1800 
     97 C          -2.3562  -22.3456  -52.3522 C.2       17 UNK         0.5000 
     98 O          -2.0204  -21.2795  -52.8666 O.2       17 UNK        -0.5000 
     99 N          -2.0201  -23.5456  -52.8544 N.am      18 UNK        -0.5000 
    100 CA        -1.1584  -23.8425  -54.0073 C.3       18 UNK         0.1400 
    101 CB         0.2865  -23.3813  -53.7255 C.3       18 UNK        -0.1800 
    102 C         -1.6688  -23.3317  -55.3747 C.2       18 UNK         0.5000 
    103 O         -0.9525  -23.4576  -56.3696 O.2       18 UNK        -0.5000 
    104 N         -2.8888  -22.7891  -55.4202 N.am      19 UNK        -0.5000 
    105 CA        -3.5395  -22.1880  -56.5778 C.3       19 UNK         0.1400 
    106 CB        -2.8605  -20.8493  -56.9340 C.3       19 UNK        -0.1800 
    107 C         -5.0186  -21.9642  -56.2347 C.2       19 UNK         0.5000 
    108 O         -5.4014  -22.0484  -55.0649 O.2       19 UNK        -0.5000 
    109 N         -5.8240  -21.6363  -57.2510 N.am      20 UNK        -0.5000 
    110 CA        -7.2416  -21.2853  -57.1251 C.3       20 UNK         0.1400 
    111 CB        -7.9527  -21.6284  -58.4472 C.3       20 UNK        -0.1800 
    112 C         -7.4359  -19.8089  -56.7077 C.2       20 UNK         0.5000 
    113 O         -8.2109  -19.0832  -57.3341 O.2       20 UNK        -0.5000 
    114 N         -6.7151  -19.3820  -55.6665 N.am      21 UNK        -0.5000 
    115 CA        -6.7257  -18.0389  -55.0998 C.3       21 UNK         0.1400 
    116 CB        -5.8357  -17.1054  -55.9402 C.3       21 UNK        -0.1800 
    117 C         -6.2253  -18.1158  -53.6511 C.2       21 UNK         0.5000 
    118 O         -5.4485  -19.0153  -53.3300 O.2       21 UNK        -0.5000 
    119 N         -6.6905  -17.1740  -52.8211 N.am      22 UNK        -0.5000 
    120 CA        -6.3664  -16.9599  -51.3952 C.3       22 UNK         0.1400 
    121 C         -6.5674  -18.1522  -50.4070 C.2       22 UNK         0.5000 
    122 N         -7.2041  -19.2467  -50.8016 N.am      22 UNK        -0.7600 
    123 O         -6.1960  -18.0608  -49.2403 O.2       22 UNK        -0.5000 
    124 C124       -5.0559  -16.1506  -51.1656 C.3       23 UNK        -0.0398 
    125 S125       -3.4776  -16.9825  -51.5678 S.3       23 UNK        -0.2404 
    126 C126       -2.9395  -17.5555  -49.9259 C.3       23 UNK        -0.0205 
    127 H127       -2.2069  -13.0381  -46.2543 H         1 UNK         0.0600 
    128 H128       -1.3234  -12.1195  -45.0269 H         1 UNK         0.0600 
    129 H129       -0.7857  -13.7379  -45.4804 H         1 UNK         0.0600 
    130 H130        1.1189  -13.5795  -46.6130 H         1 UNK         0.3000 
    131 H131        1.3311  -11.9356  -49.0245 H         1 UNK         0.0600 
    132 H132        3.6600  -12.9738  -49.1257 H         1 UNK         0.0800 
    133 H133        3.2698  -13.9130  -47.7104 H         1 UNK         0.0800 
    134 H134        2.5711  -16.4118  -48.1456 H         1 UNK         0.0800 
    135 H135        1.1344  -15.5674  -47.6255 H         1 UNK         0.0800 
    136 H136       -1.0433  -15.8798  -48.9177 H         1 UNK         0.1150 
    137 H137       -1.4973  -19.6957  -50.8131 H         1 UNK         0.1150 
    138 H138        2.3816  -18.3725  -49.5476 H         1 UNK         0.1150 
    139 H139        1.0031  -20.5085  -51.8452 H         1 UNK         0.0800 
    140 H140        2.2096  -20.4732  -50.5827 H         1 UNK         0.0800 
    141 H141       -0.3137  -20.7119  -48.0954 H         1 UNK         0.0800 
    142 H142        1.3550  -21.2077  -47.9737 H         1 UNK         0.0800 
    143 H143        0.5951  -23.5895  -47.6127 H         1 UNK         0.0600 
    144 H144        0.4483  -21.4862  -45.7273 H         1 UNK         0.3000 
    145 H145       -0.0364  -23.5602  -42.8269 H         1 UNK         0.0600 
    146 H146        1.9782  -22.2779  -42.1985 H         1 UNK         0.0600 
    147 H147        2.3964  -23.4750  -43.4146 H         1 UNK         0.0600 
    148 H148        2.2323  -21.7828  -43.8702 H         1 UNK         0.0600 
    149 H149        0.1167  -20.7401  -43.0621 H         1 UNK         0.3000 
    150 H150       -3.4115  -20.1317  -43.4740 H         1 UNK         0.0600 
    151 H151       -2.9160  -20.4202  -41.0405 H         1 UNK         0.0600 
    152 H152       -2.8998  -18.7251  -41.5040 H         1 UNK         0.0600 
    153 H153       -1.3823  -19.5819  -41.2444 H         1 UNK         0.0600 
    154 H154       -1.2738  -18.2936  -43.3925 H         1 UNK         0.3000 
    155 H155       -0.5577  -18.2528  -46.9183 H         1 UNK         0.0600 
    156 H156       -1.7486  -16.2441  -44.9283 H         1 UNK         0.0600 
    157 H157       -0.9534  -15.8501  -46.4499 H         1 UNK         0.0600 
    158 H158       -2.4741  -16.7256  -46.4566 H         1 UNK         0.0600 
    159 H159        0.6877  -16.8826  -44.7574 H         1 UNK         0.3000 
    160 H160        3.1979  -19.3371  -44.0529 H         1 UNK         0.0600 
    161 H161        3.2531  -16.5774  -45.3885 H         1 UNK         0.0600 
    162 H162        4.0418  -18.0324  -45.9727 H         1 UNK         0.0600 
    163 H163        4.5809  -17.2954  -44.4725 H         1 UNK         0.0600 
    164 H164        2.5326  -16.7572  -42.9592 H         1 UNK         0.3000 
    165 H165        0.4095  -17.9629  -40.3516 H         1 UNK         0.0600 
    166 H166        2.1118  -16.8355  -38.9467 H         1 UNK         0.0600 
    167 H167        2.7300  -18.3762  -39.5194 H         1 UNK         0.0600 
    168 H168        3.2791  -16.8816  -40.2683 H         1 UNK         0.0600 
    169 H169        1.4284  -15.3674  -40.9431 H         1 UNK         0.3000 
    170 H170       -1.0240  -14.3687  -43.2983 H         1 UNK         0.0600 
    171 H171       -2.2200  -14.1267  -41.1234 H         1 UNK         0.0600 
    172 H172       -0.7329  -13.5893  -40.3500 H         1 UNK         0.0600 
    173 H173       -1.4787  -12.6114  -41.6140 H         1 UNK         0.0600 
    174 H174        1.0371  -12.9128  -41.9666 H         1 UNK         0.3000 
    175 H175        3.4054  -13.2460  -42.4866 H         1 UNK         0.0600 
    176 H176        5.0180  -13.1845  -44.3907 H         1 UNK         0.0600 
    177 H177        3.7705  -13.7986  -45.4702 H         1 UNK         0.0600 
    178 H178        4.3516  -14.7867  -44.1354 H         1 UNK         0.0600 
    179 H179        3.0512  -11.5256  -44.8014 H         1 UNK         0.3000 
    180 H180        1.2495   -9.0601  -43.3395 H         1 UNK         0.0600 
    181 H181        4.2550   -8.7349  -42.8000 H         1 UNK         0.0600 
    182 H182        2.9746   -8.5135  -41.6122 H         1 UNK         0.0600 
    183 H183        3.0964   -7.4179  -42.9786 H         1 UNK         0.0600 
    184 H184        3.2811   -9.9254  -45.2866 H         1 UNK         0.3000 
    185 H185        1.9187   -7.8399  -47.8296 H         1 UNK         0.0600 
    186 H186        4.2137   -7.2603  -47.1070 H         1 UNK         0.0600 
    187 H187        4.6275   -8.9563  -46.9232 H         1 UNK         0.0600 
    188 H188        4.2473   -8.3084  -48.5158 H         1 UNK         0.0600 
    189 H189        1.3225   -9.8540  -48.4482 H         1 UNK         0.3000 
    190 H190       -2.2422  -21.6772  -46.4626 H         1 UNK         0.3000 
    191 H191       -4.2062  -22.8776  -48.0878 H         1 UNK         0.0600 
    192 H192       -4.6071  -20.8120  -46.8245 H         1 UNK         0.0600 
    193 H193       -5.7947  -22.0219  -46.3666 H         1 UNK         0.0600 
    194 H194       -4.4464  -21.6694  -45.2924 H         1 UNK         0.0600 
    195 H195       -2.8848  -23.9306  -44.9366 H         1 UNK         0.3000 
    196 H196       -4.6784  -26.1677  -44.6364 H         1 UNK         0.0600 
    197 H197       -3.1386  -26.7637  -42.7603 H         1 UNK         0.0600 
    198 H198       -3.6338  -25.0789  -42.6895 H         1 UNK         0.0600 
    199 H199       -2.0233  -25.4984  -43.2634 H         1 UNK         0.0600 
    200 H200       -1.1824  -25.9451  -45.5534 H         1 UNK         0.3000 
    201 H201       -1.0129  -28.8209  -45.8345 H         1 UNK         0.0600 
    202 H202        0.7947  -27.4429  -44.8233 H         1 UNK         0.0600 
    203 H203        1.0578  -26.6322  -46.3666 H         1 UNK         0.0600 
    204 H204        1.3833  -28.3533  -46.2065 H         1 UNK         0.0600 
    205 H205       -1.1267  -26.0943  -48.1601 H         1 UNK         0.3000 
    206 H206       -0.6576  -27.9927  -50.4358 H         1 UNK         0.0600 
    207 H207        1.1884  -26.3446  -49.9947 H         1 UNK         0.0600 
    208 H208        0.4125  -26.0734  -51.5454 H         1 UNK         0.0600 
    209 H209        0.0415  -25.0208  -50.1878 H         1 UNK         0.0600 
    210 H210       -3.1629  -26.5112  -48.9608 H         1 UNK         0.3000 
    211 H211       -5.1832  -25.7266  -49.4773 H         1 UNK         0.0600 
    212 H212       -4.8297  -27.0586  -52.2110 H         1 UNK         0.0600 
    213 H213       -6.3483  -26.5985  -51.4552 H         1 UNK         0.0600 
    214 H214       -5.3742  -27.8754  -50.7463 H         1 UNK         0.0600 
    215 H215       -2.9967  -24.0041  -49.7921 H         1 UNK         0.3000 
    216 H216       -2.4894  -21.9378  -50.2791 H         1 UNK         0.0600 
    217 H217       -4.0188  -20.3279  -51.2853 H         1 UNK         0.0600 
    218 H218       -4.9043  -21.3284  -50.1483 H         1 UNK         0.0600 
    219 H219       -5.0623  -21.5983  -51.8864 H         1 UNK         0.0600 
    220 H220       -2.3596  -24.3694  -52.3710 H         1 UNK         0.3000 
    221 H221       -1.1428  -24.9301  -54.0874 H         1 UNK         0.0600 
    222 H222        0.3637  -22.2943  -53.6894 H         1 UNK         0.0600 
    223 H223        0.6477  -23.7734  -52.7747 H         1 UNK         0.0600 
    224 H224        0.9700  -23.7314  -54.4996 H         1 UNK         0.0600 
    225 H225       -3.4391  -22.7373  -54.5709 H         1 UNK         0.3000 
    226 H226       -3.4769  -22.8775  -57.4218 H         1 UNK         0.0600 
    227 H227       -1.8149  -20.9891  -57.2075 H         1 UNK         0.0600 
    228 H228       -3.3491  -20.3686  -57.7821 H         1 UNK         0.0600 
    229 H229       -2.8952  -20.1511  -56.0962 H         1 UNK         0.0600 
    230 H230       -5.4290  -21.5510  -58.1766 H         1 UNK         0.3000 
    231 H231       -7.6924  -21.8985  -56.3419 H         1 UNK         0.0600 
    232 H232       -7.5654  -21.0374  -59.2781 H         1 UNK         0.0600 
    233 H233       -9.0244  -21.4375  -58.3777 H         1 UNK         0.0600 
    234 H234       -7.8297  -22.6820  -58.6987 H         1 UNK         0.0600 
    235 H235       -6.1286  -20.0440  -55.1652 H         1 UNK         0.3000 
    236 H236       -7.7507  -17.6617  -55.0952 H         1 UNK         0.0600 
    237 H237       -6.2035  -17.0189  -56.9627 H         1 UNK         0.0600 
    238 H238       -5.8132  -16.1002  -55.5179 H         1 UNK         0.0600 
    239 H239       -4.8075  -17.4673  -55.9836 H         1 UNK         0.0600 
    240 H240       -7.3444  -16.5043  -53.2007 H         1 UNK         0.3000 
    241 H241       -7.1611  -16.2827  -51.0801 H         1 UNK         0.0600 
    242 H242       -7.4825  -19.3548  -51.7630 H         1 UNK         0.3800 
    243 H243       -7.3491  -19.9975  -50.1468 H         1 UNK         0.3800 
    244 H244       -5.0956  -15.2463  -51.7739 H         1 UNK         0.0800 
    245 H245       -5.0203  -15.7869  -50.1379 H         1 UNK         0.0800 
    246 H246       -3.4546  -18.4857  -49.6820 H         1 UNK         0.0800 
    247 H247       -3.2356  -16.8361  -49.1615 H         1 UNK         0.0800 
@<TRIPOS>BOND
     1    1    2 1    
     2    1  127 1    
     3    1  128 1    
     4    1  129 1    
     5    2    3 2    
     6    2    4 am   BACKBONE|DICT|INTERRES
     7    4    5 1    
     8    4  130 1    
     9    5    6 1    
    10    5   65 1    
    11    5  131 1    
    12    6    7 1    
    13    6  132 1    
    14    6  133 1    
    15    7    8 1    
    16    8    9 1    
    17    8  134 1    
    18    8  135 1    
    19    9   10 ar   
    20    9   14 ar   
    21   10   11 ar   
    22   10  136 1    
    23   11   12 ar   
    24   11  126 1    
    25   12   13 ar   
    26   12  137 1    
    27   13   14 ar   
    28   13   15 1    
    29   14  138 1    
    30   15   16 1    
    31   15  139 1    
    32   15  140 1    
    33   16   17 1    
    34   17   18 1    
    35   17  141 1    
    36   17  142 1    
    37   18   19 1    
    38   18   67 1    
    39   18  143 1    
    40   19   20 am   BACKBONE|DICT|INTERRES
    41   19  144 1    
    42   20   21 2    
    43   20   22 1    
    44   22   23 1    
    45   22   24 1    
    46   22  145 1    
    47   23  146 1    
    48   23  147 1    
    49   23  148 1    
    50   24   25 am   BACKBONE|DICT|INTERRES
    51   24  149 1    
    52   25   26 2    
    53   25   27 1    
    54   27   28 1    
    55   27   29 1    
    56   27  150 1    
    57   28  151 1    
    58   28  152 1    
    59   28  153 1    
    60   29   30 am   BACKBONE|DICT|INTERRES
    61   29  154 1    
    62   30   31 2    
    63   30   32 1    
    64   32   33 1    
    65   32   34 1    
    66   32  155 1    
    67   33  156 1    
    68   33  157 1    
    69   33  158 1    
    70   34   35 am   BACKBONE|DICT|INTERRES
    71   34  159 1    
    72   35   36 2    
    73   35   37 1    
    74   37   38 1    
    75   37   39 1    
    76   37  160 1    
    77   38  161 1    
    78   38  162 1    
    79   38  163 1    
    80   39   40 am   BACKBONE|DICT|INTERRES
    81   39  164 1    
    82   40   41 2    
    83   40   42 1    
    84   42   43 1    
    85   42   44 1    
    86   42  165 1    
    87   43  166 1    
    88   43  167 1    
    89   43  168 1    
    90   44   45 am   BACKBONE|DICT|INTERRES
    91   44  169 1    
    92   45   46 2    
    93   45   47 1    
    94   47   48 1    
    95   47   49 1    
    96   47  170 1    
    97   48  171 1    
    98   48  172 1    
    99   48  173 1    
   100   49   50 am   BACKBONE|DICT|INTERRES
   101   49  174 1    
   102   50   51 2    
   103   50   52 1    
   104   52   53 1    
   105   52   54 1    
   106   52  175 1    
   107   53  176 1    
   108   53  177 1    
   109   53  178 1    
   110   54   55 am   BACKBONE|DICT|INTERRES
   111   54  179 1    
   112   55   56 2    
   113   55   57 1    
   114   57   58 1    
   115   57   59 1    
   116   57  180 1    
   117   58  181 1    
   118   58  182 1    
   119   58  183 1    
   120   59   60 am   BACKBONE|DICT|INTERRES
   121   59  184 1    
   122   60   61 2    
   123   60   62 1    
   124   62   63 1    
   125   62   64 1    
   126   62  185 1    
   127   63  186 1    
   128   63  187 1    
   129   63  188 1    
   130   64   65 am   BACKBONE|DICT|INTERRES
   131   64  189 1    
   132   65   66 2    
   133   67   68 2    
   134   67   69 am   BACKBONE|DICT|INTERRES
   135   69   70 1    
   136   69  190 1    
   137   70   71 1    
   138   70   72 1    
   139   70  191 1    
   140   71  192 1    
   141   71  193 1    
   142   71  194 1    
   143   72   73 2    
   144   72   74 am   BACKBONE|DICT|INTERRES
   145   74   75 1    
   146   74  195 1    
   147   75   76 1    
   148   75   77 1    
   149   75  196 1    
   150   76  197 1    
   151   76  198 1    
   152   76  199 1    
   153   77   78 2    
   154   77   79 am   BACKBONE|DICT|INTERRES
   155   79   80 1    
   156   79  200 1    
   157   80   81 1    
   158   80   82 1    
   159   80  201 1    
   160   81  202 1    
   161   81  203 1    
   162   81  204 1    
   163   82   83 2    
   164   82   84 am   BACKBONE|DICT|INTERRES
   165   84   85 1    
   166   84  205 1    
   167   85   86 1    
   168   85   87 1    
   169   85  206 1    
   170   86  207 1    
   171   86  208 1    
   172   86  209 1    
   173   87   88 2    
   174   87   89 am   BACKBONE|DICT|INTERRES
   175   89   90 1    
   176   89  210 1    
   177   90   91 1    
   178   90   92 1    
   179   90  211 1    
   180   91  212 1    
   181   91  213 1    
   182   91  214 1    
   183   92   93 2    
   184   92   94 am   BACKBONE|DICT|INTERRES
   185   94   95 1    
   186   94  215 1    
   187   95   96 1    
   188   95   97 1    
   189   95  216 1    
   190   96  217 1    
   191   96  218 1    
   192   96  219 1    
   193   97   98 2    
   194   97   99 am   BACKBONE|DICT|INTERRES
   195   99  100 1    
   196   99  220 1    
   197  100  101 1    
   198  100  102 1    
   199  100  221 1    
   200  101  222 1    
   201  101  223 1    
   202  101  224 1    
   203  102  103 2    
   204  102  104 am   BACKBONE|DICT|INTERRES
   205  104  105 1    
   206  104  225 1    
   207  105  106 1    
   208  105  107 1    
   209  105  226 1    
   210  106  227 1    
   211  106  228 1    
   212  106  229 1    
   213  107  108 2    
   214  107  109 am   BACKBONE|DICT|INTERRES
   215  109  110 1    
   216  109  230 1    
   217  110  111 1    
   218  110  112 1    
   219  110  231 1    
   220  111  232 1    
   221  111  233 1    
   222  111  234 1    
   223  112  113 2    
   224  112  114 am   BACKBONE|DICT|INTERRES
   225  114  115 1    
   226  114  235 1    
   227  115  116 1    
   228  115  117 1    
   229  115  236 1    
   230  116  237 1    
   231  116  238 1    
   232  116  239 1    
   233  117  118 2    
   234  117  119 am   BACKBONE|DICT|INTERRES
   235  119  120 1    
   236  119  240 1    
   237  120  121 1    
   238  120  124 1    
   239  120  241 1    
   240  121  122 am   BACKBONE|DICT|INTERRES
   241  121  123 2    
   242  122  242 1    
   243  122  243 1    
   244  124  125 1    
   245  124  244 1    
   246  124  245 1    
   247  125  126 1    
   248  126  246 1    
   249  126  247 1    
@<TRIPOS>SUBSTRUCTURE
     1 UNK         1 GROUP             0       ****    0 ROOT    
