@<TRIPOS>MOLECULE
3R540
247   249    1
SMALL
USER_CHARGES


@<TRIPOS>ATOM
      1 CA         -0.6359  -10.4457  -49.5600 C.3       0 UNK        -0.1800 
      2 C           0.6274  -11.2902  -49.6468 C.2       0 UNK         0.5000 
      3 O           1.7255  -10.7420  -49.7423 O.2       0 UNK        -0.5000 
      4 N           0.4757  -12.6206  -49.6128 N.am      1 UNK        -0.5000 
      5 CA          1.5716  -13.5989  -49.6776 C.3       1 UNK         0.1400 
      6 C6          1.0496  -15.0252  -49.9679 C.3       23 UNK        -0.0398 
      7 S7          0.3250  -15.1453  -51.6382 S.3       23 UNK        -0.2404 
      8 C8          1.5750  -16.1506  -52.5026 C.3       23 UNK        -0.0205 
      9 C9          1.4663  -17.6163  -52.1137 C.ar      23 UNK        -0.0193 
     10 C10         0.4550  -18.4035  -52.6672 C.ar      23 UNK        -0.1150 
     11 C11         0.3041  -19.7381  -52.2869 C.ar      23 UNK        -0.0193 
     12 C12         1.1818  -20.2915  -51.3511 C.ar      23 UNK        -0.1150 
     13 C13         2.2047  -19.5154  -50.7949 C.ar      23 UNK        -0.0193 
     14 C14         2.3503  -18.1821  -51.1900 C.ar      23 UNK        -0.1150 
     15 C15         3.1331  -20.1091  -49.7441 C.3       23 UNK        -0.0205 
     16 S16         2.8517  -19.4072  -48.0818 S.3       23 UNK        -0.2404 
     17 C17         1.0946  -19.8029  -47.8032 C.3       23 UNK        -0.0398 
     18 CA          0.8896  -21.2401  -47.2564 C.3       11 UNK         0.1400 
     19 N           0.7878  -21.2658  -45.7936 N.am      11 UNK        -0.5000 
     20 C           0.6975  -22.3744  -45.0453 C.2       10 UNK         0.5000 
     21 O           0.7781  -23.5149  -45.4995 O.2       10 UNK        -0.5000 
     22 CA          0.4048  -22.1792  -43.5463 C.3       10 UNK         0.1400 
     23 CB          1.6926  -21.8695  -42.7694 C.3       10 UNK        -0.1800 
     24 N          -0.5959  -21.1373  -43.3015 N.am      10 UNK        -0.5000 
     25 C          -1.8703  -21.2050  -43.7144 C.2       9 UNK         0.5000 
     26 O          -2.3453  -22.1815  -44.2906 O.2       9 UNK        -0.5000 
     27 CA         -2.7562  -19.9667  -43.4930 C.3       9 UNK         0.1400 
     28 CB         -3.3260  -19.9518  -42.0672 C.3       9 UNK        -0.1800 
     29 N          -2.0552  -18.7119  -43.7642 N.am      9 UNK        -0.5000 
     30 C          -1.5839  -18.3434  -44.9643 C.2       8 UNK         0.5000 
     31 O          -1.7376  -19.0060  -45.9913 O.2       8 UNK        -0.5000 
     32 CA         -0.7445  -17.0504  -45.0108 C.3       8 UNK         0.1400 
     33 CB         -1.6386  -15.8025  -45.0383 C.3       8 UNK        -0.1800 
     34 N           0.1950  -16.9597  -43.8913 N.am      8 UNK        -0.5000 
     35 C           1.2040  -17.8193  -43.6876 C.2       7 UNK         0.5000 
     36 O           1.4870  -18.7341  -44.4608 O.2       7 UNK        -0.5000 
     37 CA          1.9872  -17.6721  -42.3721 C.3       7 UNK         0.1400 
     38 CB          3.0764  -16.5983  -42.4867 C.3       7 UNK        -0.1800 
     39 N           1.1071  -17.3620  -41.2459 N.am      7 UNK        -0.5000 
     40 C           0.2615  -18.2413  -40.6912 C.2       6 UNK         0.5000 
     41 O           0.1638  -19.4132  -41.0520 O.2       6 UNK        -0.5000 
     42 CA         -0.6547  -17.7131  -39.5724 C.3       6 UNK         0.1400 
     43 CB          0.0706  -17.7461  -38.2190 C.3       6 UNK        -0.1800 
     44 N          -1.1373  -16.3558  -39.8306 N.am      6 UNK        -0.5000 
     45 C          -1.9563  -16.0188  -40.8373 C.2       5 UNK         0.5000 
     46 O          -2.4203  -16.8268  -41.6393 O.2       5 UNK        -0.5000 
     47 CA         -2.2688  -14.5211  -41.0060 C.3       5 UNK         0.1400 
     48 CB         -3.4993  -14.1291  -40.1750 C.3       5 UNK        -0.1800 
     49 N          -1.1415  -13.6578  -40.6453 N.am      5 UNK        -0.5000 
     50 C           0.0340  -13.6411  -41.2858 C.2       4 UNK         0.5000 
     51 O           0.3027  -14.3639  -42.2495 O.2       4 UNK        -0.5000 
     52 CA          1.1073  -12.7036  -40.7156 C.3       4 UNK         0.1400 
     53 CB          2.1899  -13.5093  -39.9804 C.3       4 UNK        -0.1800 
     54 N           1.7248  -11.9401  -41.7939 N.am      4 UNK        -0.5000 
     55 C           1.2624  -10.7721  -42.2586 C.2       3 UNK         0.5000 
     56 O           0.2954  -10.1780  -41.7797 O.2       3 UNK        -0.5000 
     57 CA          2.0067  -10.1641  -43.4621 C.3       3 UNK         0.1400 
     58 CB          3.1373   -9.2393  -42.9851 C.3       3 UNK        -0.1800 
     59 N           2.5639  -11.1866  -44.3504 N.am      3 UNK        -0.5000 
     60 C           1.8353  -11.9025  -45.2147 C.2       2 UNK         0.5000 
     61 O           0.6229  -11.7497  -45.3894 O.2       2 UNK        -0.5000 
     62 CA          2.5871  -12.9748  -46.0114 C.3       2 UNK         0.1400 
     63 CB          2.6527  -14.2979  -45.2319 C.3       2 UNK        -0.1800 
     64 N           1.8930  -13.1720  -47.2756 N.am      2 UNK        -0.5000 
     65 C           2.4555  -13.5958  -48.4119 C.2       1 UNK         0.5000 
     66 O           3.6287  -13.9623  -48.4955 O.2       1 UNK        -0.5000 
     67 C          -0.3250  -21.9138  -47.9273 C.2       11 UNK         0.5000 
     68 O          -0.1414  -22.7532  -48.8099 O.2       11 UNK        -0.5000 
     69 N          -1.5370  -21.5604  -47.4776 N.am      12 UNK        -0.5000 
     70 CA         -2.7899  -22.1460  -47.9538 C.3       12 UNK         0.1400 
     71 CB         -3.9773  -21.3560  -47.3832 C.3       12 UNK        -0.1800 
     72 C          -2.9081  -23.6489  -47.6315 C.2       12 UNK         0.5000 
     73 O          -3.3215  -24.4270  -48.4904 O.2       12 UNK        -0.5000 
     74 N          -2.4997  -24.0457  -46.4186 N.am      13 UNK        -0.5000 
     75 CA         -2.4488  -25.4395  -45.9748 C.3       13 UNK         0.1400 
     76 CB         -2.1272  -25.4947  -44.4740 C.3       13 UNK        -0.1800 
     77 C          -1.4483  -26.2886  -46.7807 C.2       13 UNK         0.5000 
     78 O          -1.7659  -27.4275  -47.1242 O.2       13 UNK        -0.5000 
     79 N          -0.2780  -25.7139  -47.0936 N.am      14 UNK        -0.5000 
     80 CA          0.7541  -26.3294  -47.9293 C.3       14 UNK         0.1400 
     81 CB          2.0470  -25.5037  -47.8446 C.3       14 UNK        -0.1800 
     82 C           0.3093  -26.5004  -49.3936 C.2       14 UNK         0.5000 
     83 O           0.5789  -27.5433  -49.9911 O.2       14 UNK        -0.5000 
     84 N          -0.3782  -25.4867  -49.9376 N.am      15 UNK        -0.5000 
     85 CA         -0.9561  -25.5064  -51.2832 C.3       15 UNK         0.1400 
     86 CB         -1.3151  -24.0707  -51.6902 C.3       15 UNK        -0.1800 
     87 C          -2.1925  -26.4185  -51.4044 C.2       15 UNK         0.5000 
     88 O          -2.4791  -26.9000  -52.5008 O.2       15 UNK        -0.5000 
     89 N          -2.9007  -26.6189  -50.2833 N.am      16 UNK        -0.5000 
     90 CA         -4.1861  -27.3091  -50.1401 C.3       16 UNK         0.1400 
     91 CB         -4.0618  -28.8061  -50.4919 C.3       16 UNK        -0.1800 
     92 C          -5.3187  -26.5872  -50.9018 C.2       16 UNK         0.5000 
     93 O          -6.1955  -27.2333  -51.4791 O.2       16 UNK        -0.5000 
     94 N          -5.2702  -25.2511  -50.8890 N.am      17 UNK        -0.5000 
     95 CA         -6.1712  -24.3351  -51.5796 C.3       17 UNK         0.1400 
     96 CB         -5.8760  -24.3456  -53.0915 C.3       17 UNK        -0.1800 
     97 C          -5.9549  -22.9300  -51.0039 C.2       17 UNK         0.5000 
     98 O          -4.9362  -22.6910  -50.3543 O.2       17 UNK        -0.5000 
     99 N          -6.8930  -22.0121  -51.2690 N.am      18 UNK        -0.5000 
    100 CA        -6.7853  -20.5975  -50.9000 C.3       18 UNK         0.1400 
    101 CB        -8.0702  -19.8704  -51.3243 C.3       18 UNK        -0.1800 
    102 C         -5.5604  -19.9300  -51.5524 C.2       18 UNK         0.5000 
    103 O         -5.2494  -20.2402  -52.7048 O.2       18 UNK        -0.5000 
    104 N         -4.9075  -19.0116  -50.8271 N.am      19 UNK        -0.5000 
    105 CA        -3.6636  -18.3497  -51.2417 C.3       19 UNK         0.1400 
    106 CB        -3.1476  -17.4654  -50.0960 C.3       19 UNK        -0.1800 
    107 C         -3.7770  -17.5411  -52.5516 C.2       19 UNK         0.5000 
    108 O         -2.7928  -17.4182  -53.2787 O.2       19 UNK        -0.5000 
    109 N         -4.9818  -17.0352  -52.8455 N.am      20 UNK        -0.5000 
    110 CA        -5.3064  -16.3332  -54.0876 C.3       20 UNK         0.1400 
    111 CB        -6.5988  -15.5297  -53.8732 C.3       20 UNK        -0.1800 
    112 C         -5.4543  -17.2692  -55.3061 C.2       20 UNK         0.5000 
    113 O         -5.3432  -16.7946  -56.4374 O.2       20 UNK        -0.5000 
    114 N         -5.7222  -18.5604  -55.0668 N.am      21 UNK        -0.5000 
    115 CA        -5.9353  -19.5744  -56.0985 C.3       21 UNK         0.1400 
    116 CB        -7.1475  -20.4402  -55.7128 C.3       21 UNK        -0.1800 
    117 C         -4.6810  -20.4416  -56.2827 C.2       21 UNK         0.5000 
    118 O         -4.1992  -20.5854  -57.4064 O.2       21 UNK        -0.5000 
    119 N         -4.1764  -20.9962  -55.1727 N.am      22 UNK        -0.5000 
    120 CA        -2.9962  -21.8725  -55.0882 C.3       22 UNK         0.1400 
    121 C         -3.1354  -23.2643  -55.7826 C.2       22 UNK         0.5000 
    122 N         -4.3304  -23.6970  -56.1661 N.am      22 UNK        -0.7600 
    123 O         -2.1531  -23.9797  -55.9556 O.2       22 UNK        -0.5000 
    124 C124       -1.6838  -21.1235  -55.4665 C.3       23 UNK        -0.0398 
    125 S125       -0.3046  -21.4988  -54.3325 S.3       23 UNK        -0.2404 
    126 C126       -0.8309  -20.5632  -52.8641 C.3       23 UNK        -0.0205 
    127 H127       -1.5331  -11.0625  -49.5010 H         1 UNK         0.0600 
    128 H128       -0.7209   -9.8055  -50.4381 H         1 UNK         0.0600 
    129 H129       -0.6014   -9.8104  -48.6748 H         1 UNK         0.0600 
    130 H130       -0.4545  -13.0105  -49.5591 H         1 UNK         0.3000 
    131 H131        2.2239  -13.3068  -50.5039 H         1 UNK         0.0600 
    132 H132        1.8527  -15.7564  -49.8719 H         1 UNK         0.0800 
    133 H133        0.2930  -15.3172  -49.2375 H         1 UNK         0.0800 
    134 H134        2.5738  -15.7627  -52.2959 H         1 UNK         0.0800 
    135 H135        1.4250  -16.0506  -53.5785 H         1 UNK         0.0800 
    136 H136       -0.2299  -17.9671  -53.3806 H         1 UNK         0.1150 
    137 H137        1.0566  -21.3213  -51.0454 H         1 UNK         0.1150 
    138 H138        3.1359  -17.5808  -50.7545 H         1 UNK         0.1150 
    139 H139        3.0194  -21.1933  -49.6977 H         1 UNK         0.0800 
    140 H140        4.1678  -19.9235  -50.0352 H         1 UNK         0.0800 
    141 H141        0.5442  -19.6227  -48.7271 H         1 UNK         0.0800 
    142 H142        0.6970  -19.0657  -47.1065 H         1 UNK         0.0800 
    143 H143        1.7547  -21.8509  -47.5232 H         1 UNK         0.0600 
    144 H144        0.7769  -20.3647  -45.3251 H         1 UNK         0.3000 
    145 H145        0.0020  -23.1188  -43.1634 H         1 UNK         0.0600 
    146 H146        1.4993  -21.7956  -41.6991 H         1 UNK         0.0600 
    147 H147        2.4319  -22.6585  -42.9123 H         1 UNK         0.0600 
    148 H148        2.1468  -20.9338  -43.0934 H         1 UNK         0.0600 
    149 H149       -0.2931  -20.3291  -42.7678 H         1 UNK         0.3000 
    150 H150       -3.5948  -20.0325  -44.1890 H         1 UNK         0.0600 
    151 H151       -3.8704  -20.8728  -41.8547 H         1 UNK         0.0600 
    152 H152       -4.0219  -19.1241  -41.9299 H         1 UNK         0.0600 
    153 H153       -2.5394  -19.8552  -41.3192 H         1 UNK         0.0600 
    154 H154       -1.9446  -18.0774  -42.9777 H         1 UNK         0.3000 
    155 H155       -0.1609  -17.0642  -45.9334 H         1 UNK         0.0600 
    156 H156       -2.2572  -15.7286  -44.1442 H         1 UNK         0.0600 
    157 H157       -2.3075  -15.8228  -45.8995 H         1 UNK         0.0600 
    158 H158       -1.0428  -14.8918  -45.1088 H         1 UNK         0.0600 
    159 H159        0.0511  -16.2077  -43.2264 H         1 UNK         0.3000 
    160 H160        2.4795  -18.6261  -42.1722 H         1 UNK         0.0600 
    161 H161        2.6455  -15.6061  -42.6072 H         1 UNK         0.0600 
    162 H162        3.7240  -16.7853  -43.3443 H         1 UNK         0.0600 
    163 H163        3.7077  -16.5824  -41.5982 H         1 UNK         0.0600 
    164 H164        1.0908  -16.4040  -40.9301 H         1 UNK         0.3000 
    165 H165       -1.5215  -18.3745  -39.5118 H         1 UNK         0.0600 
    166 H166       -0.5942  -17.4483  -37.4081 H         1 UNK         0.0600 
    167 H167        0.4273  -18.7518  -37.9925 H         1 UNK         0.0600 
    168 H168        0.9348  -17.0806  -38.2070 H         1 UNK         0.0600 
    169 H169       -0.8068  -15.6277  -39.2152 H         1 UNK         0.3000 
    170 H170       -2.4990  -14.3484  -42.0593 H         1 UNK         0.0600 
    171 H171       -4.3603  -14.7447  -40.4393 H         1 UNK         0.0600 
    172 H172       -3.3217  -14.2545  -39.1062 H         1 UNK         0.0600 
    173 H173       -3.7789  -13.0900  -40.3501 H         1 UNK         0.0600 
    174 H174       -1.2836  -13.0366  -39.8617 H         1 UNK         0.3000 
    175 H175        0.6478  -12.0203  -39.9979 H         1 UNK         0.0600 
    176 H176        2.7124  -14.1941  -40.6482 H         1 UNK         0.0600 
    177 H177        2.9337  -12.8488  -39.5343 H         1 UNK         0.0600 
    178 H178        1.7577  -14.1020  -39.1731 H         1 UNK         0.0600 
    179 H179        2.4873  -12.3852  -42.2813 H         1 UNK         0.3000 
    180 H180        1.2915   -9.5609  -44.0258 H         1 UNK         0.0600 
    181 H181        3.8948   -9.7846  -42.4207 H         1 UNK         0.0600 
    182 H182        2.7497   -8.4516  -42.3376 H         1 UNK         0.0600 
    183 H183        3.6304   -8.7527  -43.8269 H         1 UNK         0.0600 
    184 H184        3.5562  -11.3596  -44.2755 H         1 UNK         0.3000 
    185 H185        3.5995  -12.6151  -46.2085 H         1 UNK         0.0600 
    186 H186        3.1374  -15.0831  -45.8122 H         1 UNK         0.0600 
    187 H187        3.2289  -14.1699  -44.3160 H         1 UNK         0.0600 
    188 H188        1.6588  -14.6508  -44.9537 H         1 UNK         0.0600 
    189 H189        0.9376  -12.8371  -47.2830 H         1 UNK         0.3000 
    190 H190       -1.6091  -20.8310  -46.7745 H         1 UNK         0.3000 
    191 H191       -2.8020  -22.0391  -49.0398 H         1 UNK         0.0600 
    192 H192       -4.0055  -21.3982  -46.2947 H         1 UNK         0.0600 
    193 H193       -4.9231  -21.7548  -47.7516 H         1 UNK         0.0600 
    194 H194       -3.9291  -20.3074  -47.6775 H         1 UNK         0.0600 
    195 H195       -2.2312  -23.3396  -45.7372 H         1 UNK         0.3000 
    196 H196       -3.4415  -25.8694  -46.1231 H         1 UNK         0.0600 
    197 H197       -2.1141  -26.5244  -44.1149 H         1 UNK         0.0600 
    198 H198       -2.8741  -24.9559  -43.8908 H         1 UNK         0.0600 
    199 H199       -1.1529  -25.0580  -44.2548 H         1 UNK         0.0600 
    200 H200       -0.0690  -24.7931  -46.7182 H         1 UNK         0.3000 
    201 H201        0.9616  -27.3233  -47.5275 H         1 UNK         0.0600 
    202 H202        2.4132  -25.4506  -46.8192 H         1 UNK         0.0600 
    203 H203        1.8987  -24.4832  -48.1987 H         1 UNK         0.0600 
    204 H204        2.8369  -25.9504  -48.4496 H         1 UNK         0.0600 
    205 H205       -0.5011  -24.6336  -49.4000 H         1 UNK         0.3000 
    206 H206       -0.1999  -25.8779  -51.9778 H         1 UNK         0.0600 
    207 H207       -0.4314  -23.4333  -51.6735 H         1 UNK         0.0600 
    208 H208       -1.7218  -24.0391  -52.7019 H         1 UNK         0.0600 
    209 H209       -2.0586  -23.6344  -51.0214 H         1 UNK         0.0600 
    210 H210       -2.6105  -26.0989  -49.4626 H         1 UNK         0.3000 
    211 H211       -4.4434  -27.2422  -49.0820 H         1 UNK         0.0600 
    212 H212       -3.8770  -28.9615  -51.5550 H         1 UNK         0.0600 
    213 H213       -4.9770  -29.3424  -50.2390 H         1 UNK         0.0600 
    214 H214       -3.2482  -29.2735  -49.9370 H         1 UNK         0.0600 
    215 H215       -4.5569  -24.7839  -50.3347 H         1 UNK         0.3000 
    216 H216       -7.2041  -24.6360  -51.3946 H         1 UNK         0.0600 
    217 H217       -6.5049  -23.6319  -53.6247 H         1 UNK         0.0600 
    218 H218       -6.0598  -25.3266  -53.5294 H         1 UNK         0.0600 
    219 H219       -4.8368  -24.0819  -53.2911 H         1 UNK         0.0600 
    220 H220       -7.6895  -22.2708  -51.8320 H         1 UNK         0.3000 
    221 H221       -6.6849  -20.5380  -49.8142 H         1 UNK         0.0600 
    222 H222       -8.2195  -19.9139  -52.4042 H         1 UNK         0.0600 
    223 H223       -8.9473  -20.3070  -50.8462 H         1 UNK         0.0600 
    224 H224       -8.0376  -18.8178  -51.0399 H         1 UNK         0.0600 
    225 H225       -5.2385  -18.7965  -49.8978 H         1 UNK         0.3000 
    226 H226       -2.9267  -19.1358  -51.4060 H         1 UNK         0.0600 
    227 H227       -2.9626  -18.0522  -49.1956 H         1 UNK         0.0600 
    228 H228       -2.2050  -16.9872  -50.3677 H         1 UNK         0.0600 
    229 H229       -3.8570  -16.6759  -49.8457 H         1 UNK         0.0600 
    230 H230       -5.7365  -17.1793  -52.1913 H         1 UNK         0.3000 
    231 H231       -4.5011  -15.6296  -54.3095 H         1 UNK         0.0600 
    232 H232       -6.4879  -14.8133  -53.0590 H         1 UNK         0.0600 
    233 H233       -7.4425  -16.1798  -53.6376 H         1 UNK         0.0600 
    234 H234       -6.8606  -14.9638  -54.7683 H         1 UNK         0.0600 
    235 H235       -5.7155  -18.8920  -54.1093 H         1 UNK         0.3000 
    236 H236       -6.1589  -19.1011  -57.0569 H         1 UNK         0.0600 
    237 H237       -7.3299  -21.2123  -56.4613 H         1 UNK         0.0600 
    238 H238       -7.0078  -20.9385  -54.7528 H         1 UNK         0.0600 
    239 H239       -8.0523  -19.8362  -55.6436 H         1 UNK         0.0600 
    240 H240       -4.6326  -20.7993  -54.2833 H         1 UNK         0.3000 
    241 H241       -2.9523  -22.1185  -54.0269 H         1 UNK         0.0600 
    242 H242       -4.4103  -24.5998  -56.6064 H         1 UNK         0.3800 
    243 H243       -5.1490  -23.1263  -56.0374 H         1 UNK         0.3800 
    244 H244       -1.8321  -20.0424  -55.4511 H         1 UNK         0.0800 
    245 H245       -1.3780  -21.3514  -56.4889 H         1 UNK         0.0800 
    246 H246       -1.2221  -21.2455  -52.1095 H         1 UNK         0.0800 
    247 H247       -1.6584  -19.9052  -53.1268 H         1 UNK         0.0800 
@<TRIPOS>BOND
     1    1    2 1    
     2    1  127 1    
     3    1  128 1    
     4    1  129 1    
     5    2    3 2    
     6    2    4 am   BACKBONE|DICT|INTERRES
     7    4    5 1    
     8    4  130 1    
     9    5    6 1    
    10    5   65 1    
    11    5  131 1    
    12    6    7 1    
    13    6  132 1    
    14    6  133 1    
    15    7    8 1    
    16    8    9 1    
    17    8  134 1    
    18    8  135 1    
    19    9   10 ar   
    20    9   14 ar   
    21   10   11 ar   
    22   10  136 1    
    23   11   12 ar   
    24   11  126 1    
    25   12   13 ar   
    26   12  137 1    
    27   13   14 ar   
    28   13   15 1    
    29   14  138 1    
    30   15   16 1    
    31   15  139 1    
    32   15  140 1    
    33   16   17 1    
    34   17   18 1    
    35   17  141 1    
    36   17  142 1    
    37   18   19 1    
    38   18   67 1    
    39   18  143 1    
    40   19   20 am   BACKBONE|DICT|INTERRES
    41   19  144 1    
    42   20   21 2    
    43   20   22 1    
    44   22   23 1    
    45   22   24 1    
    46   22  145 1    
    47   23  146 1    
    48   23  147 1    
    49   23  148 1    
    50   24   25 am   BACKBONE|DICT|INTERRES
    51   24  149 1    
    52   25   26 2    
    53   25   27 1    
    54   27   28 1    
    55   27   29 1    
    56   27  150 1    
    57   28  151 1    
    58   28  152 1    
    59   28  153 1    
    60   29   30 am   BACKBONE|DICT|INTERRES
    61   29  154 1    
    62   30   31 2    
    63   30   32 1    
    64   32   33 1    
    65   32   34 1    
    66   32  155 1    
    67   33  156 1    
    68   33  157 1    
    69   33  158 1    
    70   34   35 am   BACKBONE|DICT|INTERRES
    71   34  159 1    
    72   35   36 2    
    73   35   37 1    
    74   37   38 1    
    75   37   39 1    
    76   37  160 1    
    77   38  161 1    
    78   38  162 1    
    79   38  163 1    
    80   39   40 am   BACKBONE|DICT|INTERRES
    81   39  164 1    
    82   40   41 2    
    83   40   42 1    
    84   42   43 1    
    85   42   44 1    
    86   42  165 1    
    87   43  166 1    
    88   43  167 1    
    89   43  168 1    
    90   44   45 am   BACKBONE|DICT|INTERRES
    91   44  169 1    
    92   45   46 2    
    93   45   47 1    
    94   47   48 1    
    95   47   49 1    
    96   47  170 1    
    97   48  171 1    
    98   48  172 1    
    99   48  173 1    
   100   49   50 am   BACKBONE|DICT|INTERRES
   101   49  174 1    
   102   50   51 2    
   103   50   52 1    
   104   52   53 1    
   105   52   54 1    
   106   52  175 1    
   107   53  176 1    
   108   53  177 1    
   109   53  178 1    
   110   54   55 am   BACKBONE|DICT|INTERRES
   111   54  179 1    
   112   55   56 2    
   113   55   57 1    
   114   57   58 1    
   115   57   59 1    
   116   57  180 1    
   117   58  181 1    
   118   58  182 1    
   119   58  183 1    
   120   59   60 am   BACKBONE|DICT|INTERRES
   121   59  184 1    
   122   60   61 2    
   123   60   62 1    
   124   62   63 1    
   125   62   64 1    
   126   62  185 1    
   127   63  186 1    
   128   63  187 1    
   129   63  188 1    
   130   64   65 am   BACKBONE|DICT|INTERRES
   131   64  189 1    
   132   65   66 2    
   133   67   68 2    
   134   67   69 am   BACKBONE|DICT|INTERRES
   135   69   70 1    
   136   69  190 1    
   137   70   71 1    
   138   70   72 1    
   139   70  191 1    
   140   71  192 1    
   141   71  193 1    
   142   71  194 1    
   143   72   73 2    
   144   72   74 am   BACKBONE|DICT|INTERRES
   145   74   75 1    
   146   74  195 1    
   147   75   76 1    
   148   75   77 1    
   149   75  196 1    
   150   76  197 1    
   151   76  198 1    
   152   76  199 1    
   153   77   78 2    
   154   77   79 am   BACKBONE|DICT|INTERRES
   155   79   80 1    
   156   79  200 1    
   157   80   81 1    
   158   80   82 1    
   159   80  201 1    
   160   81  202 1    
   161   81  203 1    
   162   81  204 1    
   163   82   83 2    
   164   82   84 am   BACKBONE|DICT|INTERRES
   165   84   85 1    
   166   84  205 1    
   167   85   86 1    
   168   85   87 1    
   169   85  206 1    
   170   86  207 1    
   171   86  208 1    
   172   86  209 1    
   173   87   88 2    
   174   87   89 am   BACKBONE|DICT|INTERRES
   175   89   90 1    
   176   89  210 1    
   177   90   91 1    
   178   90   92 1    
   179   90  211 1    
   180   91  212 1    
   181   91  213 1    
   182   91  214 1    
   183   92   93 2    
   184   92   94 am   BACKBONE|DICT|INTERRES
   185   94   95 1    
   186   94  215 1    
   187   95   96 1    
   188   95   97 1    
   189   95  216 1    
   190   96  217 1    
   191   96  218 1    
   192   96  219 1    
   193   97   98 2    
   194   97   99 am   BACKBONE|DICT|INTERRES
   195   99  100 1    
   196   99  220 1    
   197  100  101 1    
   198  100  102 1    
   199  100  221 1    
   200  101  222 1    
   201  101  223 1    
   202  101  224 1    
   203  102  103 2    
   204  102  104 am   BACKBONE|DICT|INTERRES
   205  104  105 1    
   206  104  225 1    
   207  105  106 1    
   208  105  107 1    
   209  105  226 1    
   210  106  227 1    
   211  106  228 1    
   212  106  229 1    
   213  107  108 2    
   214  107  109 am   BACKBONE|DICT|INTERRES
   215  109  110 1    
   216  109  230 1    
   217  110  111 1    
   218  110  112 1    
   219  110  231 1    
   220  111  232 1    
   221  111  233 1    
   222  111  234 1    
   223  112  113 2    
   224  112  114 am   BACKBONE|DICT|INTERRES
   225  114  115 1    
   226  114  235 1    
   227  115  116 1    
   228  115  117 1    
   229  115  236 1    
   230  116  237 1    
   231  116  238 1    
   232  116  239 1    
   233  117  118 2    
   234  117  119 am   BACKBONE|DICT|INTERRES
   235  119  120 1    
   236  119  240 1    
   237  120  121 1    
   238  120  124 1    
   239  120  241 1    
   240  121  122 am   BACKBONE|DICT|INTERRES
   241  121  123 2    
   242  122  242 1    
   243  122  243 1    
   244  124  125 1    
   245  124  244 1    
   246  124  245 1    
   247  125  126 1    
   248  126  246 1    
   249  126  247 1    
@<TRIPOS>SUBSTRUCTURE
     1 UNK         1 GROUP             0       ****    0 ROOT    
