@<TRIPOS>MOLECULE
3R540
247   249    1
SMALL
USER_CHARGES


@<TRIPOS>ATOM
      1 CA          1.8117  -12.4914  -48.1762 C.3       0 UNK        -0.1800 
      2 C           0.4292  -12.8806  -47.6758 C.2       0 UNK         0.5000 
      3 O           0.3186  -13.4818  -46.6078 O.2       0 UNK        -0.5000 
      4 N          -0.6188  -12.5096  -48.4236 N.am      1 UNK        -0.5000 
      5 CA         -2.0274  -12.8983  -48.2322 C.3       1 UNK         0.1400 
      6 C6         -2.9348  -12.3632  -49.3683 C.3       23 UNK        -0.0398 
      7 S7         -2.3112  -12.7102  -51.0476 S.3       23 UNK        -0.2404 
      8 C8         -3.2359  -14.2130  -51.4958 C.3       23 UNK        -0.0205 
      9 C9         -2.5561  -15.4835  -51.0057 C.ar      23 UNK        -0.0193 
     10 C10        -1.3164  -15.8526  -51.5346 C.ar      23 UNK        -0.1150 
     11 C11        -0.7178  -17.0636  -51.1770 C.ar      23 UNK        -0.0193 
     12 C12        -1.3628  -17.9001  -50.2615 C.ar      23 UNK        -0.1150 
     13 C13        -2.6011  -17.5422  -49.7193 C.ar      23 UNK        -0.0193 
     14 C14        -3.1886  -16.3264  -50.0862 C.ar      23 UNK        -0.1150 
     15 C15        -3.3224  -18.4995  -48.7830 C.3       23 UNK        -0.0205 
     16 S16        -2.5097  -18.5731  -47.1615 S.3       23 UNK        -0.2404 
     17 C17        -3.4472  -19.9054  -46.3435 C.3       23 UNK        -0.0398 
     18 CA         -2.8159  -21.3138  -46.4947 C.3       11 UNK         0.1400 
     19 N          -1.3605  -21.3279  -46.3121 N.am      11 UNK        -0.5000 
     20 C          -0.5639  -22.3895  -46.4918 C.2       10 UNK         0.5000 
     21 O          -0.9891  -23.5024  -46.8048 O.2       10 UNK        -0.5000 
     22 CA          0.9436  -22.2045  -46.2339 C.3       10 UNK         0.1400 
     23 CB          1.8080  -23.0057  -47.2293 C.3       10 UNK        -0.1800 
     24 N           1.3832  -20.8066  -46.1466 N.am      10 UNK        -0.5000 
     25 C           1.4522  -19.8926  -47.1298 C.2       9 UNK         0.5000 
     26 O           1.0954  -20.1048  -48.2870 O.2       9 UNK        -0.5000 
     27 CA          2.0129  -18.4991  -46.7672 C.3       9 UNK         0.1400 
     28 CB          0.9569  -17.4066  -46.9898 C.3       9 UNK        -0.1800 
     29 N           2.5099  -18.4258  -45.3890 N.am      9 UNK        -0.5000 
     30 C           3.7108  -18.8748  -44.9982 C.2       8 UNK         0.5000 
     31 O           4.5700  -19.2905  -45.7757 O.2       8 UNK        -0.5000 
     32 CA          3.9847  -18.9134  -43.4841 C.3       8 UNK         0.1400 
     33 CB          4.8337  -17.7141  -43.0347 C.3       8 UNK        -0.1800 
     34 N           2.7681  -18.9887  -42.6687 N.am      8 UNK        -0.5000 
     35 C           2.0233  -20.0932  -42.5281 C.2       7 UNK         0.5000 
     36 O           2.2038  -21.1196  -43.1830 O.2       7 UNK        -0.5000 
     37 CA          0.9047  -20.0499  -41.4733 C.3       7 UNK         0.1400 
     38 CB          1.4542  -19.6888  -40.0826 C.3       7 UNK        -0.1800 
     39 N          -0.1774  -19.1308  -41.8174 N.am      7 UNK        -0.5000 
     40 C          -1.1232  -19.3762  -42.7328 C.2       6 UNK         0.5000 
     41 O          -1.1207  -20.3591  -43.4735 O.2       6 UNK        -0.5000 
     42 CA         -2.2932  -18.3771  -42.8272 C.3       6 UNK         0.1400 
     43 CB         -3.5763  -19.0073  -42.2661 C.3       6 UNK        -0.1800 
     44 N          -2.0438  -17.1201  -42.1134 N.am      6 UNK        -0.5000 
     45 C          -1.4272  -16.0272  -42.5853 C.2       5 UNK         0.5000 
     46 O          -1.2823  -15.0259  -41.8839 O.2       5 UNK        -0.5000 
     47 CA         -0.9303  -16.0069  -44.0498 C.3       5 UNK         0.1400 
     48 CB         -2.0471  -15.5333  -44.9889 C.3       5 UNK        -0.1800 
     49 N           0.2290  -15.1430  -44.2470 N.am      5 UNK        -0.5000 
     50 C           1.4287  -15.3280  -43.6847 C.2       4 UNK         0.5000 
     51 O           1.6973  -16.2921  -42.9670 O.2       4 UNK        -0.5000 
     52 CA          2.5094  -14.2755  -43.9789 C.3       4 UNK         0.1400 
     53 CB          3.3345  -14.6714  -45.2146 C.3       4 UNK        -0.1800 
     54 N           1.9248  -12.9522  -44.2056 N.am      4 UNK        -0.5000 
     55 C           2.0322  -11.9173  -43.3629 C.2       3 UNK         0.5000 
     56 O           2.6376  -11.9637  -42.2912 O.2       3 UNK        -0.5000 
     57 CA          1.3667  -10.5960  -43.7903 C.3       3 UNK         0.1400 
     58 CB          2.3197   -9.7775  -44.6754 C.3       3 UNK        -0.1800 
     59 N           0.0977  -10.7810  -44.4967 N.am      3 UNK        -0.5000 
     60 C          -1.0579  -11.1056  -43.8958 C.2       2 UNK         0.5000 
     61 O          -1.1571  -11.3158  -42.6871 O.2       2 UNK        -0.5000 
     62 CA         -2.3179  -11.1973  -44.7754 C.3       2 UNK         0.1400 
     63 CB         -3.0817   -9.8632  -44.7794 C.3       2 UNK        -0.1800 
     64 N          -1.9927  -11.5765  -46.1499 N.am      2 UNK        -0.5000 
     65 C          -2.6389  -12.5021  -46.8676 C.2       1 UNK         0.5000 
     66 O          -3.6840  -13.0406  -46.5011 O.2       1 UNK        -0.5000 
     67 C          -3.5225  -22.3040  -45.5486 C.2       11 UNK         0.5000 
     68 O          -4.4502  -22.9908  -45.9746 O.2       11 UNK        -0.5000 
     69 N          -3.0483  -22.3773  -44.2968 N.am      12 UNK        -0.5000 
     70 CA         -3.5488  -23.2911  -43.2694 C.3       12 UNK         0.1400 
     71 CB         -2.9583  -22.8917  -41.9076 C.3       12 UNK        -0.1800 
     72 C          -3.2349  -24.7678  -43.5717 C.2       12 UNK         0.5000 
     73 O          -4.0471  -25.6378  -43.2569 O.2       12 UNK        -0.5000 
     74 N          -2.0658  -25.0209  -44.1741 N.am      13 UNK        -0.5000 
     75 CA         -1.5921  -26.3565  -44.5331 C.3       13 UNK         0.1400 
     76 CB         -0.0642  -26.3245  -44.6984 C.3       13 UNK        -0.1800 
     77 C          -2.2680  -26.8818  -45.8099 C.2       13 UNK         0.5000 
     78 O          -2.6743  -28.0434  -45.8542 O.2       13 UNK        -0.5000 
     79 N          -2.3765  -26.0130  -46.8224 N.am      14 UNK        -0.5000 
     80 CA         -2.9289  -26.3325  -48.1380 C.3       14 UNK         0.1400 
     81 CB         -2.3310  -25.3519  -49.1554 C.3       14 UNK        -0.1800 
     82 C          -4.4671  -26.2787  -48.1963 C.2       14 UNK         0.5000 
     83 O          -5.0347  -26.7045  -49.2016 O.2       14 UNK        -0.5000 
     84 N          -5.1087  -25.7273  -47.1549 N.am      15 UNK        -0.5000 
     85 CA         -6.5418  -25.4234  -47.0599 C.3       15 UNK         0.1400 
     86 CB         -7.3949  -26.7091  -47.0812 C.3       15 UNK        -0.1800 
     87 C          -6.9572  -24.3881  -48.1255 C.2       15 UNK         0.5000 
     88 O          -7.8361  -24.6439  -48.9492 O.2       15 UNK        -0.5000 
     89 N          -6.2507  -23.2498  -48.1036 N.am      16 UNK        -0.5000 
     90 CA         -6.3447  -22.0719  -48.9758 C.3       16 UNK         0.1400 
     91 CB         -7.7662  -21.4780  -48.9782 C.3       16 UNK        -0.1800 
     92 C          -5.8120  -22.2677  -50.4099 C.2       16 UNK         0.5000 
     93 O          -5.5743  -21.2690  -51.0902 O.2       16 UNK        -0.5000 
     94 N          -5.5691  -23.5155  -50.8407 N.am      17 UNK        -0.5000 
     95 CA         -5.0747  -23.8672  -52.1797 C.3       17 UNK         0.1400 
     96 CB         -5.1300  -25.3903  -52.3620 C.3       17 UNK        -0.1800 
     97 C          -3.6636  -23.3320  -52.4990 C.2       17 UNK         0.5000 
     98 O          -3.2949  -23.2487  -53.6720 O.2       17 UNK        -0.5000 
     99 N          -2.9191  -22.9191  -51.4624 N.am      18 UNK        -0.5000 
    100 CA        -1.6337  -22.2281  -51.5659 C.3       18 UNK         0.1400 
    101 CB        -1.0743  -21.9546  -50.1637 C.3       18 UNK        -0.1800 
    102 C         -1.7047  -20.9197  -52.3758 C.2       18 UNK         0.5000 
    103 O         -0.7140  -20.5631  -53.0096 O.2       18 UNK        -0.5000 
    104 N         -2.8808  -20.2705  -52.3891 N.am      19 UNK        -0.5000 
    105 CA        -3.1727  -19.0718  -53.1781 C.3       19 UNK         0.1400 
    106 CB        -4.5615  -18.5417  -52.7911 C.3       19 UNK        -0.1800 
    107 C         -3.0897  -19.2982  -54.6995 C.2       19 UNK         0.5000 
    108 O         -2.7902  -18.3560  -55.4333 O.2       19 UNK        -0.5000 
    109 N         -3.3457  -20.5353  -55.1482 N.am      20 UNK        -0.5000 
    110 CA        -3.1378  -20.9544  -56.5317 C.3       20 UNK         0.1400 
    111 CB        -4.0845  -22.1169  -56.8689 C.3       20 UNK        -0.1800 
    112 C         -1.6712  -21.3528  -56.7654 C.2       20 UNK         0.5000 
    113 O         -1.1002  -20.9858  -57.7931 O.2       20 UNK        -0.5000 
    114 N         -1.0833  -22.0790  -55.8020 N.am      21 UNK        -0.5000 
    115 CA         0.2839  -22.6038  -55.8584 C.3       21 UNK         0.1400 
    116 CB         0.5442  -23.5032  -54.6412 C.3       21 UNK        -0.1800 
    117 C          1.3691  -21.5157  -55.9682 C.2       21 UNK         0.5000 
    118 O          2.3352  -21.7081  -56.7079 O.2       21 UNK        -0.5000 
    119 N          1.1862  -20.3917  -55.2615 N.am      22 UNK        -0.5000 
    120 CA         2.0545  -19.2052  -55.3590 C.3       22 UNK         0.1400 
    121 C          1.8373  -18.3307  -56.6331 C.2       22 UNK         0.5000 
    122 N          0.8982  -18.6451  -57.5189 N.am      22 UNK        -0.7600 
    123 O          2.5549  -17.3548  -56.8367 O.2       22 UNK        -0.5000 
    124 C124        2.0676  -18.3716  -54.0492 C.3       23 UNK        -0.0398 
    125 S125        0.4686  -17.6014  -53.6255 S.3       23 UNK        -0.2404 
    126 C126        0.6013  -17.4849  -51.8097 C.3       23 UNK        -0.0205 
    127 H127        1.7588  -11.8328  -49.0432 H         1 UNK         0.0600 
    128 H128        2.3684  -13.3847  -48.4589 H         1 UNK         0.0600 
    129 H129        2.3675  -11.9789  -47.3917 H         1 UNK         0.0600 
    130 H130       -0.4431  -12.0109  -49.2848 H         1 UNK         0.3000 
    131 H131       -2.0514  -13.9894  -48.2726 H         1 UNK         0.0600 
    132 H132       -3.9448  -12.7657  -49.2729 H         1 UNK         0.0800 
    133 H133       -3.0385  -11.2796  -49.2853 H         1 UNK         0.0800 
    134 H134       -3.3060  -14.2607  -52.5834 H         1 UNK         0.0800 
    135 H135       -4.2628  -14.1476  -51.1338 H         1 UNK         0.0800 
    136 H136       -0.8314  -15.2103  -52.2562 H         1 UNK         0.1150 
    137 H137       -0.9130  -18.8434  -49.9837 H         1 UNK         0.1150 
    138 H138       -4.1540  -16.0540  -49.6837 H         1 UNK         0.1150 
    139 H139       -4.3633  -18.2001  -48.6519 H         1 UNK         0.0800 
    140 H140       -3.3396  -19.4936  -49.2313 H         1 UNK         0.0800 
    141 H141       -4.4712  -19.9064  -46.7207 H         1 UNK         0.0800 
    142 H142       -3.5257  -19.6341  -45.2916 H         1 UNK         0.0800 
    143 H143       -3.0053  -21.6546  -47.5142 H         1 UNK         0.0600 
    144 H144       -0.9389  -20.4594  -46.0185 H         1 UNK         0.3000 
    145 H145        1.1195  -22.6269  -45.2439 H         1 UNK         0.0600 
    146 H146        2.8704  -22.8719  -47.0261 H         1 UNK         0.0600 
    147 H147        1.5979  -24.0736  -47.1594 H         1 UNK         0.0600 
    148 H148        1.6213  -22.7072  -48.2611 H         1 UNK         0.0600 
    149 H149        1.7031  -20.5336  -45.2255 H         1 UNK         0.3000 
    150 H150        2.8402  -18.2997  -47.4513 H         1 UNK         0.0600 
    151 H151        0.6221  -17.3899  -48.0277 H         1 UNK         0.0600 
    152 H152        1.3475  -16.4159  -46.7636 H         1 UNK         0.0600 
    153 H153        0.0787  -17.5723  -46.3719 H         1 UNK         0.0600 
    154 H154        1.8765  -18.0842  -44.6798 H         1 UNK         0.3000 
    155 H155        4.5708  -19.8156  -43.2950 H         1 UNK         0.0600 
    156 H156        4.2915  -16.7740  -43.1179 H         1 UNK         0.0600 
    157 H157        5.7387  -17.6259  -43.6372 H         1 UNK         0.0600 
    158 H158        5.1464  -17.8246  -41.9963 H         1 UNK         0.0600 
    159 H159        2.4940  -18.1383  -42.1908 H         1 UNK         0.3000 
    160 H160        0.4860  -21.0569  -41.4064 H         1 UNK         0.0600 
    161 H161        1.8154  -18.6606  -40.0389 H         1 UNK         0.0600 
    162 H162        2.2839  -20.3414  -39.8078 H         1 UNK         0.0600 
    163 H163        0.6865  -19.8036  -39.3171 H         1 UNK         0.0600 
    164 H164       -0.2438  -18.2832  -41.2730 H         1 UNK         0.3000 
    165 H165       -2.4718  -18.1792  -43.8825 H         1 UNK         0.0600 
    166 H166       -4.4193  -18.3204  -42.3447 H         1 UNK         0.0600 
    167 H167       -3.8470  -19.9075  -42.8183 H         1 UNK         0.0600 
    168 H168       -3.4660  -19.2839  -41.2168 H         1 UNK         0.0600 
    169 H169       -2.3809  -17.0936  -41.1621 H         1 UNK         0.3000 
    170 H170       -0.6152  -17.0073  -44.3389 H         1 UNK         0.0600 
    171 H171       -2.9232  -16.1793  -44.9374 H         1 UNK         0.0600 
    172 H172       -2.3723  -14.5277  -44.7241 H         1 UNK         0.0600 
    173 H173       -1.7154  -15.5209  -46.0277 H         1 UNK         0.0600 
    174 H174        0.1101  -14.3711  -44.8935 H         1 UNK         0.3000 
    175 H175        3.1823  -14.2605  -43.1192 H         1 UNK         0.0600 
    176 H176        2.7395  -14.6405  -46.1264 H         1 UNK         0.0600 
    177 H177        4.1803  -13.9974  -45.3499 H         1 UNK         0.0600 
    178 H178        3.7356  -15.6803  -45.1225 H         1 UNK         0.0600 
    179 H179        1.3784  -12.8474  -45.0529 H         1 UNK         0.3000 
    180 H180        1.1744  -10.0166  -42.8844 H         1 UNK         0.0600 
    181 H181        1.8950   -8.8029  -44.9168 H         1 UNK         0.0600 
    182 H182        2.5426  -10.2888  -45.6121 H         1 UNK         0.0600 
    183 H183        3.2680   -9.5994  -44.1664 H         1 UNK         0.0600 
    184 H184        0.1073  -10.5790  -45.4823 H         1 UNK         0.3000 
    185 H185       -2.9563  -11.9585  -44.3214 H         1 UNK         0.0600 
    186 H186       -4.0141   -9.9467  -45.3380 H         1 UNK         0.0600 
    187 H187       -3.3372   -9.5552  -43.7647 H         1 UNK         0.0600 
    188 H188       -2.4920   -9.0634  -45.2287 H         1 UNK         0.0600 
    189 H189       -1.1492  -11.1961  -46.5477 H         1 UNK         0.3000 
    190 H190       -2.2791  -21.7658  -44.0331 H         1 UNK         0.3000 
    191 H191       -4.6346  -23.1859  -43.2179 H         1 UNK         0.0600 
    192 H192       -3.2881  -23.5730  -41.1222 H         1 UNK         0.0600 
    193 H193       -3.2732  -21.8909  -41.6162 H         1 UNK         0.0600 
    194 H194       -1.8677  -22.9079  -41.9211 H         1 UNK         0.0600 
    195 H195       -1.4813  -24.2424  -44.4396 H         1 UNK         0.3000 
    196 H196       -1.8288  -27.0448  -43.7186 H         1 UNK         0.0600 
    197 H197        0.2445  -25.6437  -45.4925 H         1 UNK         0.0600 
    198 H198        0.4250  -26.0079  -43.7772 H         1 UNK         0.0600 
    199 H199        0.3212  -27.3140  -44.9472 H         1 UNK         0.0600 
    200 H200       -1.9729  -25.0842  -46.7187 H         1 UNK         0.3000 
    201 H201       -2.6223  -27.3428  -48.4167 H         1 UNK         0.0600 
    202 H202       -2.6524  -24.3312  -48.9481 H         1 UNK         0.0600 
    203 H203       -2.6364  -25.6001  -50.1717 H         1 UNK         0.0600 
    204 H204       -1.2412  -25.3722  -49.1321 H         1 UNK         0.0600 
    205 H205       -4.5388  -25.3651  -46.4023 H         1 UNK         0.3000 
    206 H206       -6.6921  -24.9478  -46.0894 H         1 UNK         0.0600 
    207 H207       -7.0734  -27.4066  -46.3078 H         1 UNK         0.0600 
    208 H208       -8.4447  -26.4792  -46.8960 H         1 UNK         0.0600 
    209 H209       -7.3409  -27.2242  -48.0404 H         1 UNK         0.0600 
    210 H210       -5.5508  -23.1758  -47.3659 H         1 UNK         0.3000 
    211 H211       -5.6890  -21.3288  -48.5204 H         1 UNK         0.0600 
    212 H212       -7.7873  -20.5236  -49.5058 H         1 UNK         0.0600 
    213 H213       -8.1195  -21.2949  -47.9635 H         1 UNK         0.0600 
    214 H214       -8.4828  -22.1348  -49.4717 H         1 UNK         0.0600 
    215 H215       -5.8113  -24.2858  -50.2321 H         1 UNK         0.3000 
    216 H216       -5.7550  -23.4172  -52.9054 H         1 UNK         0.0600 
    217 H217       -4.4422  -25.9029  -51.6905 H         1 UNK         0.0600 
    218 H218       -4.8597  -25.6707  -53.3808 H         1 UNK         0.0600 
    219 H219       -6.1322  -25.7761  -52.1741 H         1 UNK         0.0600 
    220 H220       -3.3095  -23.0170  -50.5388 H         1 UNK         0.3000 
    221 H221       -0.9462  -22.9011  -52.0783 H         1 UNK         0.0600 
    222 H222       -0.8876  -22.8784  -49.6188 H         1 UNK         0.0600 
    223 H223       -1.7460  -21.3363  -49.5691 H         1 UNK         0.0600 
    224 H224       -0.1208  -21.4295  -50.2282 H         1 UNK         0.0600 
    225 H225       -3.6572  -20.6543  -51.8631 H         1 UNK         0.3000 
    226 H226       -2.4334  -18.3133  -52.9237 H         1 UNK         0.0600 
    227 H227       -5.3491  -19.2472  -53.0584 H         1 UNK         0.0600 
    228 H228       -4.6315  -18.3558  -51.7198 H         1 UNK         0.0600 
    229 H229       -4.7742  -17.6003  -53.2989 H         1 UNK         0.0600 
    230 H230       -3.5588  -21.2654  -54.4801 H         1 UNK         0.3000 
    231 H231       -3.3760  -20.1266  -57.2031 H         1 UNK         0.0600 
    232 H232       -3.8854  -22.9973  -56.2577 H         1 UNK         0.0600 
    233 H233       -3.9766  -22.4137  -57.9128 H         1 UNK         0.0600 
    234 H234       -5.1260  -21.8329  -56.7178 H         1 UNK         0.0600 
    235 H235       -1.6315  -22.3324  -54.9910 H         1 UNK         0.3000 
    236 H236        0.3484  -23.2250  -56.7541 H         1 UNK         0.0600 
    237 H237       -0.2464  -24.2427  -54.5110 H         1 UNK         0.0600 
    238 H238        1.4831  -24.0458  -54.7573 H         1 UNK         0.0600 
    239 H239        0.6217  -22.9208  -53.7239 H         1 UNK         0.0600 
    240 H240        0.3891  -20.3194  -54.6344 H         1 UNK         0.3000 
    241 H241        3.0745  -19.5785  -55.4680 H         1 UNK         0.0600 
    242 H242        0.7823  -18.0692  -58.3374 H         1 UNK         0.3800 
    243 H243        0.3098  -19.4596  -57.3960 H         1 UNK         0.3800 
    244 H244        2.8220  -17.5853  -54.1053 H         1 UNK         0.0800 
    245 H245        2.3763  -19.0165  -53.2256 H         1 UNK         0.0800 
    246 H246        1.3763  -16.7645  -51.5454 H         1 UNK         0.0800 
    247 H247        0.9173  -18.4507  -51.4115 H         1 UNK         0.0800 
@<TRIPOS>BOND
     1    1    2 1    
     2    1  127 1    
     3    1  128 1    
     4    1  129 1    
     5    2    3 2    
     6    2    4 am   BACKBONE|DICT|INTERRES
     7    4    5 1    
     8    4  130 1    
     9    5    6 1    
    10    5   65 1    
    11    5  131 1    
    12    6    7 1    
    13    6  132 1    
    14    6  133 1    
    15    7    8 1    
    16    8    9 1    
    17    8  134 1    
    18    8  135 1    
    19    9   10 ar   
    20    9   14 ar   
    21   10   11 ar   
    22   10  136 1    
    23   11   12 ar   
    24   11  126 1    
    25   12   13 ar   
    26   12  137 1    
    27   13   14 ar   
    28   13   15 1    
    29   14  138 1    
    30   15   16 1    
    31   15  139 1    
    32   15  140 1    
    33   16   17 1    
    34   17   18 1    
    35   17  141 1    
    36   17  142 1    
    37   18   19 1    
    38   18   67 1    
    39   18  143 1    
    40   19   20 am   BACKBONE|DICT|INTERRES
    41   19  144 1    
    42   20   21 2    
    43   20   22 1    
    44   22   23 1    
    45   22   24 1    
    46   22  145 1    
    47   23  146 1    
    48   23  147 1    
    49   23  148 1    
    50   24   25 am   BACKBONE|DICT|INTERRES
    51   24  149 1    
    52   25   26 2    
    53   25   27 1    
    54   27   28 1    
    55   27   29 1    
    56   27  150 1    
    57   28  151 1    
    58   28  152 1    
    59   28  153 1    
    60   29   30 am   BACKBONE|DICT|INTERRES
    61   29  154 1    
    62   30   31 2    
    63   30   32 1    
    64   32   33 1    
    65   32   34 1    
    66   32  155 1    
    67   33  156 1    
    68   33  157 1    
    69   33  158 1    
    70   34   35 am   BACKBONE|DICT|INTERRES
    71   34  159 1    
    72   35   36 2    
    73   35   37 1    
    74   37   38 1    
    75   37   39 1    
    76   37  160 1    
    77   38  161 1    
    78   38  162 1    
    79   38  163 1    
    80   39   40 am   BACKBONE|DICT|INTERRES
    81   39  164 1    
    82   40   41 2    
    83   40   42 1    
    84   42   43 1    
    85   42   44 1    
    86   42  165 1    
    87   43  166 1    
    88   43  167 1    
    89   43  168 1    
    90   44   45 am   BACKBONE|DICT|INTERRES
    91   44  169 1    
    92   45   46 2    
    93   45   47 1    
    94   47   48 1    
    95   47   49 1    
    96   47  170 1    
    97   48  171 1    
    98   48  172 1    
    99   48  173 1    
   100   49   50 am   BACKBONE|DICT|INTERRES
   101   49  174 1    
   102   50   51 2    
   103   50   52 1    
   104   52   53 1    
   105   52   54 1    
   106   52  175 1    
   107   53  176 1    
   108   53  177 1    
   109   53  178 1    
   110   54   55 am   BACKBONE|DICT|INTERRES
   111   54  179 1    
   112   55   56 2    
   113   55   57 1    
   114   57   58 1    
   115   57   59 1    
   116   57  180 1    
   117   58  181 1    
   118   58  182 1    
   119   58  183 1    
   120   59   60 am   BACKBONE|DICT|INTERRES
   121   59  184 1    
   122   60   61 2    
   123   60   62 1    
   124   62   63 1    
   125   62   64 1    
   126   62  185 1    
   127   63  186 1    
   128   63  187 1    
   129   63  188 1    
   130   64   65 am   BACKBONE|DICT|INTERRES
   131   64  189 1    
   132   65   66 2    
   133   67   68 2    
   134   67   69 am   BACKBONE|DICT|INTERRES
   135   69   70 1    
   136   69  190 1    
   137   70   71 1    
   138   70   72 1    
   139   70  191 1    
   140   71  192 1    
   141   71  193 1    
   142   71  194 1    
   143   72   73 2    
   144   72   74 am   BACKBONE|DICT|INTERRES
   145   74   75 1    
   146   74  195 1    
   147   75   76 1    
   148   75   77 1    
   149   75  196 1    
   150   76  197 1    
   151   76  198 1    
   152   76  199 1    
   153   77   78 2    
   154   77   79 am   BACKBONE|DICT|INTERRES
   155   79   80 1    
   156   79  200 1    
   157   80   81 1    
   158   80   82 1    
   159   80  201 1    
   160   81  202 1    
   161   81  203 1    
   162   81  204 1    
   163   82   83 2    
   164   82   84 am   BACKBONE|DICT|INTERRES
   165   84   85 1    
   166   84  205 1    
   167   85   86 1    
   168   85   87 1    
   169   85  206 1    
   170   86  207 1    
   171   86  208 1    
   172   86  209 1    
   173   87   88 2    
   174   87   89 am   BACKBONE|DICT|INTERRES
   175   89   90 1    
   176   89  210 1    
   177   90   91 1    
   178   90   92 1    
   179   90  211 1    
   180   91  212 1    
   181   91  213 1    
   182   91  214 1    
   183   92   93 2    
   184   92   94 am   BACKBONE|DICT|INTERRES
   185   94   95 1    
   186   94  215 1    
   187   95   96 1    
   188   95   97 1    
   189   95  216 1    
   190   96  217 1    
   191   96  218 1    
   192   96  219 1    
   193   97   98 2    
   194   97   99 am   BACKBONE|DICT|INTERRES
   195   99  100 1    
   196   99  220 1    
   197  100  101 1    
   198  100  102 1    
   199  100  221 1    
   200  101  222 1    
   201  101  223 1    
   202  101  224 1    
   203  102  103 2    
   204  102  104 am   BACKBONE|DICT|INTERRES
   205  104  105 1    
   206  104  225 1    
   207  105  106 1    
   208  105  107 1    
   209  105  226 1    
   210  106  227 1    
   211  106  228 1    
   212  106  229 1    
   213  107  108 2    
   214  107  109 am   BACKBONE|DICT|INTERRES
   215  109  110 1    
   216  109  230 1    
   217  110  111 1    
   218  110  112 1    
   219  110  231 1    
   220  111  232 1    
   221  111  233 1    
   222  111  234 1    
   223  112  113 2    
   224  112  114 am   BACKBONE|DICT|INTERRES
   225  114  115 1    
   226  114  235 1    
   227  115  116 1    
   228  115  117 1    
   229  115  236 1    
   230  116  237 1    
   231  116  238 1    
   232  116  239 1    
   233  117  118 2    
   234  117  119 am   BACKBONE|DICT|INTERRES
   235  119  120 1    
   236  119  240 1    
   237  120  121 1    
   238  120  124 1    
   239  120  241 1    
   240  121  122 am   BACKBONE|DICT|INTERRES
   241  121  123 2    
   242  122  242 1    
   243  122  243 1    
   244  124  125 1    
   245  124  244 1    
   246  124  245 1    
   247  125  126 1    
   248  126  246 1    
   249  126  247 1    
@<TRIPOS>SUBSTRUCTURE
     1 UNK         1 GROUP             0       ****    0 ROOT    
