@<TRIPOS>MOLECULE
3R540
247   249    1
SMALL
USER_CHARGES


@<TRIPOS>ATOM
      1 CA         -0.9363  -18.3462  -47.2419 C.3       0 UNK        -0.1800 
      2 C           0.2289  -17.4542  -47.6270 C.2       0 UNK         0.5000 
      3 O           1.0728  -17.1559  -46.7849 O.2       0 UNK        -0.5000 
      4 N           0.2874  -17.0280  -48.8938 N.am      1 UNK        -0.5000 
      5 CA          1.3586  -16.2086  -49.4709 C.3       1 UNK         0.1400 
      6 C6          2.7311  -16.9488  -49.4523 C.3       23 UNK        -0.0398 
      7 S7          3.7492  -16.6747  -50.9426 S.3       23 UNK        -0.2404 
      8 C8          2.7959  -17.4312  -52.3132 C.3       23 UNK        -0.0205 
      9 C9          1.9434  -18.6320  -51.9156 C.ar      23 UNK        -0.0193 
     10 C10         0.5592  -18.5992  -52.1150 C.ar      23 UNK        -0.1150 
     11 C11        -0.2391  -19.6827  -51.7411 C.ar      23 UNK        -0.0193 
     12 C12         0.3524  -20.7944  -51.1396 C.ar      23 UNK        -0.1150 
     13 C13         1.7335  -20.8435  -50.9347 C.ar      23 UNK        -0.0193 
     14 C14         2.5279  -19.7708  -51.3507 C.ar      23 UNK        -0.1150 
     15 C15         2.3621  -22.0590  -50.2692 C.3       23 UNK        -0.0205 
     16 S16         3.0650  -21.6891  -48.6266 S.3       23 UNK        -0.2404 
     17 C17         1.6327  -21.0697  -47.6782 C.3       23 UNK        -0.0398 
     18 CA          0.7671  -22.2054  -47.0621 C.3       11 UNK         0.1400 
     19 N           0.5449  -22.0421  -45.6194 N.am      11 UNK        -0.5000 
     20 C          -0.0317  -22.9694  -44.8360 C.2       10 UNK         0.5000 
     21 O          -0.3892  -24.0724  -45.2506 O.2       10 UNK        -0.5000 
     22 CA         -0.3030  -22.6092  -43.3595 C.3       10 UNK         0.1400 
     23 CB          0.7965  -23.1899  -42.4587 C.3       10 UNK        -0.1800 
     24 N          -0.4223  -21.1735  -43.0980 N.am      10 UNK        -0.5000 
     25 C          -1.3058  -20.3453  -43.6716 C.2       9 UNK         0.5000 
     26 O          -2.1830  -20.7212  -44.4493 O.2       9 UNK        -0.5000 
     27 CA         -1.1477  -18.8374  -43.3839 C.3       9 UNK         0.1400 
     28 CB         -2.1156  -18.4014  -42.2742 C.3       9 UNK        -0.1800 
     29 N           0.2070  -18.3848  -43.0355 N.am      9 UNK        -0.5000 
     30 C           1.3499  -18.6389  -43.6945 C.2       8 UNK         0.5000 
     31 O           1.4273  -19.4122  -44.6487 O.2       8 UNK        -0.5000 
     32 CA          2.6253  -17.9312  -43.1987 C.3       8 UNK         0.1400 
     33 CB          3.2384  -17.0626  -44.3093 C.3       8 UNK        -0.1800 
     34 N           2.3846  -17.0779  -42.0346 N.am      8 UNK        -0.5000 
     35 C           2.5774  -17.4283  -40.7561 C.2       7 UNK         0.5000 
     36 O           2.9020  -18.5638  -40.4058 O.2       7 UNK        -0.5000 
     37 CA          2.3664  -16.3164  -39.7011 C.3       7 UNK         0.1400 
     38 CB          3.1212  -16.5840  -38.3827 C.3       7 UNK        -0.1800 
     39 N           2.6677  -14.9744  -40.2170 N.am      7 UNK        -0.5000 
     40 C           3.8389  -14.5286  -40.7014 C.2       6 UNK         0.5000 
     41 O           4.8879  -15.1720  -40.6524 O.2       6 UNK        -0.5000 
     42 CA          3.8365  -13.1543  -41.4006 C.3       6 UNK         0.1400 
     43 CB          4.3575  -13.2892  -42.8391 C.3       6 UNK        -0.1800 
     44 N           2.4947  -12.5725  -41.4619 N.am      6 UNK        -0.5000 
     45 C           2.0787  -11.5090  -40.7621 C.2       5 UNK         0.5000 
     46 O           2.8036  -10.8522  -40.0141 O.2       5 UNK        -0.5000 
     47 CA          0.5908  -11.1243  -40.9018 C.3       5 UNK         0.1400 
     48 CB          0.4150  -10.0522  -41.9879 C.3       5 UNK        -0.1800 
     49 N          -0.2829  -12.2594  -41.2109 N.am      5 UNK        -0.5000 
     50 C          -0.4712  -13.3275  -40.4232 C.2       4 UNK         0.5000 
     51 O           0.0462  -13.4581  -39.3145 O.2       4 UNK        -0.5000 
     52 CA         -1.3271  -14.4762  -40.9877 C.3       4 UNK         0.1400 
     53 CB         -2.7653  -14.3883  -40.4569 C.3       4 UNK        -0.1800 
     54 N          -1.3630  -14.5487  -42.4511 N.am      4 UNK        -0.5000 
     55 C          -0.3095  -14.7255  -43.2603 C.2       3 UNK         0.5000 
     56 O           0.8551  -14.7875  -42.8549 O.2       3 UNK        -0.5000 
     57 CA         -0.6277  -14.9216  -44.7562 C.3       3 UNK         0.1400 
     58 CB         -1.8996  -14.1817  -45.2260 C.3       3 UNK        -0.1800 
     59 N           0.4973  -14.6187  -45.6394 N.am      3 UNK        -0.5000 
     60 C           1.0908  -13.4355  -45.8550 C.2       2 UNK         0.5000 
     61 O           0.7971  -12.4003  -45.2556 O.2       2 UNK        -0.5000 
     62 CA          2.1827  -13.3926  -46.9483 C.3       2 UNK         0.1400 
     63 CB          3.5792  -13.2384  -46.3302 C.3       2 UNK        -0.1800 
     64 N           2.1815  -14.5864  -47.7974 N.am      2 UNK        -0.5000 
     65 C           1.3639  -14.7955  -48.8389 C.2       1 UNK         0.5000 
     66 O           0.5925  -13.9406  -49.2766 O.2       1 UNK        -0.5000 
     67 C          -0.5577  -22.3768  -47.8372 C.2       11 UNK         0.5000 
     68 O          -0.6056  -23.1677  -48.7779 O.2       11 UNK        -0.5000 
     69 N          -1.6217  -21.6789  -47.4065 N.am      12 UNK        -0.5000 
     70 CA         -2.9552  -21.7794  -48.0034 C.3       12 UNK         0.1400 
     71 CB         -3.8718  -20.6746  -47.4555 C.3       12 UNK        -0.1800 
     72 C          -3.5875  -23.1585  -47.7689 C.2       12 UNK         0.5000 
     73 O          -4.2106  -23.6988  -48.6814 O.2       12 UNK        -0.5000 
     74 N          -3.3807  -23.7138  -46.5666 N.am      13 UNK        -0.5000 
     75 CA         -3.8104  -25.0598  -46.1934 C.3       13 UNK         0.1400 
     76 CB         -3.6851  -25.2420  -44.6730 C.3       13 UNK        -0.1800 
     77 C          -3.0243  -26.1437  -46.9510 C.2       13 UNK         0.5000 
     78 O          -3.6314  -27.0955  -47.4411 O.2       13 UNK        -0.5000 
     79 N          -1.7021  -25.9559  -47.0773 N.am      14 UNK        -0.5000 
     80 CA         -0.8006  -26.8302  -47.8323 C.3       14 UNK         0.1400 
     81 CB          0.6534  -26.3936  -47.5968 C.3       14 UNK        -0.1800 
     82 C          -1.1221  -26.8669  -49.3390 C.2       14 UNK         0.5000 
     83 O          -1.1013  -27.9412  -49.9403 O.2       14 UNK        -0.5000 
     84 N          -1.4495  -25.7001  -49.9099 N.am      15 UNK        -0.5000 
     85 CA         -1.8885  -25.5398  -51.2973 C.3       15 UNK         0.1400 
     86 CB         -1.6492  -24.0820  -51.7243 C.3       15 UNK        -0.1800 
     87 C          -3.3642  -25.9239  -51.5265 C.2       15 UNK         0.5000 
     88 O          -3.8015  -25.9351  -52.6767 O.2       15 UNK        -0.5000 
     89 N          -4.1208  -26.1750  -50.4461 N.am      16 UNK        -0.5000 
     90 CA         -5.5655  -26.4439  -50.4078 C.3       16 UNK         0.1400 
     91 CB         -5.8676  -27.8324  -51.0069 C.3       16 UNK        -0.1800 
     92 C          -6.4090  -25.3178  -51.0502 C.2       16 UNK         0.5000 
     93 O          -7.4570  -25.5855  -51.6404 O.2       16 UNK        -0.5000 
     94 N          -5.9005  -24.0802  -50.9503 N.am      17 UNK        -0.5000 
     95 CA         -6.3807  -22.8415  -51.5698 C.3       17 UNK         0.1400 
     96 CB         -7.7077  -22.3959  -50.9249 C.3       17 UNK        -0.1800 
     97 C          -6.4560  -22.8765  -53.1153 C.2       17 UNK         0.5000 
     98 O          -7.1337  -22.0345  -53.7057 O.2       17 UNK        -0.5000 
     99 N          -5.7519  -23.8171  -53.7632 N.am      18 UNK        -0.5000 
    100 CA        -5.7748  -24.0403  -55.2121 C.3       18 UNK         0.1400 
    101 CB        -5.5021  -25.5289  -55.4936 C.3       18 UNK        -0.1800 
    102 C         -4.8113  -23.1039  -55.9731 C.2       18 UNK         0.5000 
    103 O         -4.0550  -23.5567  -56.8348 O.2       18 UNK        -0.5000 
    104 N         -4.8568  -21.8097  -55.6470 N.am      19 UNK        -0.5000 
    105 CA        -4.0909  -20.7395  -56.2718 C.3       19 UNK         0.1400 
    106 CB        -2.6649  -20.7012  -55.6965 C.3       19 UNK        -0.1800 
    107 C         -4.8239  -19.4213  -56.0065 C.2       19 UNK         0.5000 
    108 O         -5.3803  -19.2473  -54.9192 O.2       19 UNK        -0.5000 
    109 N         -4.7879  -18.5011  -56.9784 N.am      20 UNK        -0.5000 
    110 CA        -5.4916  -17.2114  -56.9483 C.3       20 UNK         0.1400 
    111 CB        -5.3134  -16.5153  -58.3064 C.3       20 UNK        -0.1800 
    112 C         -5.0649  -16.2712  -55.8021 C.2       20 UNK         0.5000 
    113 O         -5.8488  -15.4119  -55.3979 O.2       20 UNK        -0.5000 
    114 N         -3.8423  -16.4625  -55.2903 N.am      21 UNK        -0.5000 
    115 CA        -3.2971  -15.7532  -54.1339 C.3       21 UNK         0.1400 
    116 CB        -1.7728  -15.9476  -54.1157 C.3       21 UNK        -0.1800 
    117 C         -3.9150  -16.1914  -52.7892 C.2       21 UNK         0.5000 
    118 O         -3.8335  -15.4270  -51.8268 O.2       21 UNK        -0.5000 
    119 N         -4.5022  -17.3953  -52.7375 N.am      22 UNK        -0.5000 
    120 CA        -5.1053  -17.9859  -51.5301 C.3       22 UNK         0.1400 
    121 C         -6.6254  -18.2657  -51.6814 C.2       22 UNK         0.5000 
    122 N         -7.1389  -18.5425  -52.8724 N.am      22 UNK        -0.7600 
    123 O         -7.3565  -18.2220  -50.6961 O.2       22 UNK        -0.5000 
    124 C124       -4.3668  -19.2754  -51.0950 C.3       23 UNK        -0.0398 
    125 S125       -2.6409  -18.9630  -50.5915 S.3       23 UNK        -0.2404 
    126 C126       -1.7364  -19.6665  -51.9973 C.3       23 UNK        -0.0205 
    127 H127       -1.2734  -18.9288  -48.0960 H         1 UNK         0.0600 
    128 H128       -1.7686  -17.7502  -46.8684 H         1 UNK         0.0600 
    129 H129       -0.6312  -19.0452  -46.4649 H         1 UNK         0.0600 
    130 H130       -0.4506  -17.2878  -49.5340 H         1 UNK         0.3000 
    131 H131        1.0614  -16.0671  -50.5105 H         1 UNK         0.0600 
    132 H132        3.3350  -16.7047  -48.5792 H         1 UNK         0.0800 
    133 H133        2.5781  -18.0227  -49.3533 H         1 UNK         0.0800 
    134 H134        2.1720  -16.6550  -52.7591 H         1 UNK         0.0800 
    135 H135        3.4928  -17.7385  -53.0939 H         1 UNK         0.0800 
    136 H136        0.1011  -17.7292  -52.5613 H         1 UNK         0.1150 
    137 H137       -0.2681  -21.6231  -50.8337 H         1 UNK         0.1150 
    138 H138        3.5974  -19.8040  -51.1961 H         1 UNK         0.1150 
    139 H139        1.6390  -22.8702  -50.1754 H         1 UNK         0.0800 
    140 H140        3.1577  -22.4394  -50.9111 H         1 UNK         0.0800 
    141 H141        2.0545  -20.4436  -46.8928 H         1 UNK         0.0800 
    142 H142        1.0531  -20.3807  -48.2944 H         1 UNK         0.0800 
    143 H143        1.3077  -23.1481  -47.1674 H         1 UNK         0.0600 
    144 H144        0.8233  -21.1529  -45.2110 H         1 UNK         0.3000 
    145 H145       -1.2526  -23.0726  -43.0843 H         1 UNK         0.0600 
    146 H146        0.5703  -23.0284  -41.4046 H         1 UNK         0.0600 
    147 H147        0.8961  -24.2661  -42.6070 H         1 UNK         0.0600 
    148 H148        1.7670  -22.7380  -42.6683 H         1 UNK         0.0600 
    149 H149        0.2766  -20.7678  -42.4935 H         1 UNK         0.3000 
    150 H150       -1.4309  -18.3135  -44.2974 H         1 UNK         0.0600 
    151 H151       -3.1383  -18.7036  -42.5044 H         1 UNK         0.0600 
    152 H152       -2.1210  -17.3188  -42.1541 H         1 UNK         0.0600 
    153 H153       -1.8506  -18.8452  -41.3137 H         1 UNK         0.0600 
    154 H154        0.2751  -17.7636  -42.2440 H         1 UNK         0.3000 
    155 H155        3.3462  -18.7106  -42.9445 H         1 UNK         0.0600 
    156 H156        4.1812  -16.6202  -43.9871 H         1 UNK         0.0600 
    157 H157        2.5711  -16.2507  -44.5970 H         1 UNK         0.0600 
    158 H158        3.4440  -17.6512  -45.2044 H         1 UNK         0.0600 
    159 H159        2.0622  -16.1354  -42.2388 H         1 UNK         0.3000 
    160 H160        1.3000  -16.3186  -39.4723 H         1 UNK         0.0600 
    161 H161        4.1965  -16.6714  -38.5400 H         1 UNK         0.0600 
    162 H162        2.7834  -17.5120  -37.9201 H         1 UNK         0.0600 
    163 H163        2.9510  -15.7838  -37.6625 H         1 UNK         0.0600 
    164 H164        1.8803  -14.3412  -40.2579 H         1 UNK         0.3000 
    165 H165        4.5177  -12.5064  -40.8457 H         1 UNK         0.0600 
    166 H166        3.7279  -13.9628  -43.4209 H         1 UNK         0.0600 
    167 H167        4.3764  -12.3224  -43.3418 H         1 UNK         0.0600 
    168 H168        5.3734  -13.6852  -42.8600 H         1 UNK         0.0600 
    169 H169        1.8296  -13.0591  -42.0532 H         1 UNK         0.3000 
    170 H170        0.2684  -10.7041  -39.9470 H         1 UNK         0.0600 
    171 H171        1.0358   -9.1795  -41.7806 H         1 UNK         0.0600 
    172 H172        0.6956  -10.4289  -42.9727 H         1 UNK         0.0600 
    173 H173       -0.6184   -9.7092  -42.0410 H         1 UNK         0.0600 
    174 H174       -0.7326  -12.2490  -42.1148 H         1 UNK         0.3000 
    175 H175       -0.8895  -15.4091  -40.6268 H         1 UNK         0.0600 
    176 H176       -3.2717  -13.4910  -40.8148 H         1 UNK         0.0600 
    177 H177       -3.3539  -15.2528  -40.7647 H         1 UNK         0.0600 
    178 H178       -2.7794  -14.3605  -39.3664 H         1 UNK         0.0600 
    179 H179       -2.2801  -14.4973  -42.8706 H         1 UNK         0.3000 
    180 H180       -0.8083  -15.9896  -44.8779 H         1 UNK         0.0600 
    181 H181       -1.8464  -13.1118  -45.0211 H         1 UNK         0.0600 
    182 H182       -2.7946  -14.5704  -44.7393 H         1 UNK         0.0600 
    183 H183       -2.0481  -14.3056  -46.2990 H         1 UNK         0.0600 
    184 H184        0.8541  -15.4240  -46.1477 H         1 UNK         0.3000 
    185 H185        1.9876  -12.5138  -47.5663 H         1 UNK         0.0600 
    186 H186        4.3359  -13.0970  -47.1021 H         1 UNK         0.0600 
    187 H187        3.6225  -12.3696  -45.6727 H         1 UNK         0.0600 
    188 H188        3.8591  -14.1158  -45.7472 H         1 UNK         0.0600 
    189 H189        2.7382  -15.3618  -47.4681 H         1 UNK         0.3000 
    190 H190       -1.5404  -21.1139  -46.5710 H         1 UNK         0.3000 
    191 H191       -2.8556  -21.6382  -49.0816 H         1 UNK         0.0600 
    192 H192       -3.4818  -19.6825  -47.6759 H         1 UNK         0.0600 
    193 H193       -4.8635  -20.7358  -47.9056 H         1 UNK         0.0600 
    194 H194       -4.0013  -20.7524  -46.3761 H         1 UNK         0.0600 
    195 H195       -2.8353  -23.2029  -45.8878 H         1 UNK         0.3000 
    196 H196       -4.8643  -25.1637  -46.4603 H         1 UNK         0.0600 
    197 H197       -4.0439  -26.2262  -44.3696 H         1 UNK         0.0600 
    198 H198       -4.2782  -24.5008  -44.1371 H         1 UNK         0.0600 
    199 H199       -2.6527  -25.1528  -44.3349 H         1 UNK         0.0600 
    200 H200       -1.2754  -25.1680  -46.5983 H         1 UNK         0.3000 
    201 H201       -0.9187  -27.8430  -47.4420 H         1 UNK         0.0600 
    202 H202        0.9011  -26.3996  -46.5352 H         1 UNK         0.0600 
    203 H203        0.8393  -25.3898  -47.9783 H         1 UNK         0.0600 
    204 H204        1.3486  -27.0680  -48.0980 H         1 UNK         0.0600 
    205 H205       -1.3685  -24.8474  -49.3622 H         1 UNK         0.3000 
    206 H206       -1.2820  -26.1850  -51.9360 H         1 UNK         0.0600 
    207 H207       -0.5938  -23.8223  -51.6440 H         1 UNK         0.0600 
    208 H208       -1.9433  -23.9180  -52.7619 H         1 UNK         0.0600 
    209 H209       -2.2167  -23.3841  -51.1071 H         1 UNK         0.0600 
    210 H210       -3.6727  -26.1182  -49.5411 H         1 UNK         0.3000 
    211 H211       -5.8428  -26.4675  -49.3530 H         1 UNK         0.0600 
    212 H212       -5.6659  -27.8629  -52.0781 H         1 UNK         0.0600 
    213 H213       -6.9142  -28.1028  -50.8625 H         1 UNK         0.0600 
    214 H214       -5.2653  -28.6055  -50.5296 H         1 UNK         0.0600 
    215 H215       -5.0813  -23.9779  -50.3559 H         1 UNK         0.3000 
    216 H216       -5.6326  -22.0864  -51.3286 H         1 UNK         0.0600 
    217 H217       -7.6212  -22.3490  -49.8393 H         1 UNK         0.0600 
    218 H218       -8.5233  -23.0773  -51.1686 H         1 UNK         0.0600 
    219 H219       -7.9970  -21.4014  -51.2673 H         1 UNK         0.0600 
    220 H220       -5.1840  -24.4646  -53.2272 H         1 UNK         0.3000 
    221 H221       -6.7792  -23.8238  -55.5816 H         1 UNK         0.0600 
    222 H222       -4.4807  -25.8076  -55.2335 H         1 UNK         0.0600 
    223 H223       -6.1788  -26.1694  -54.9274 H         1 UNK         0.0600 
    224 H224       -5.6447  -25.7595  -56.5499 H         1 UNK         0.0600 
    225 H225       -5.5405  -21.5019  -54.9610 H         1 UNK         0.3000 
    226 H226       -4.0481  -20.9074  -57.3500 H         1 UNK         0.0600 
    227 H227       -2.1156  -21.6107  -55.9399 H         1 UNK         0.0600 
    228 H228       -2.0974  -19.8617  -56.0997 H         1 UNK         0.0600 
    229 H229       -2.6788  -20.6031  -54.6118 H         1 UNK         0.0600 
    230 H230       -4.2907  -18.7137  -57.8316 H         1 UNK         0.3000 
    231 H231       -6.5543  -17.4214  -56.8099 H         1 UNK         0.0600 
    232 H232       -5.8480  -15.5647  -58.3326 H         1 UNK         0.0600 
    233 H233       -5.7048  -17.1277  -59.1190 H         1 UNK         0.0600 
    234 H234       -4.2635  -16.3073  -58.5165 H         1 UNK         0.0600 
    235 H235       -3.2635  -17.1812  -55.6981 H         1 UNK         0.3000 
    236 H236       -3.5025  -14.6873  -54.2533 H         1 UNK         0.0600 
    237 H237       -1.3101  -15.5047  -54.9977 H         1 UNK         0.0600 
    238 H238       -1.3235  -15.4737  -53.2417 H         1 UNK         0.0600 
    239 H239       -1.5057  -17.0037  -54.0941 H         1 UNK         0.0600 
    240 H240       -4.5847  -17.9418  -53.5859 H         1 UNK         0.3000 
    241 H241       -5.0269  -17.2798  -50.7012 H         1 UNK         0.0600 
    242 H242       -8.1268  -18.7202  -52.9515 H         1 UNK         0.3800 
    243 H243       -6.5403  -18.6952  -53.6809 H         1 UNK         0.3800 
    244 H244       -4.3941  -20.0160  -51.8959 H         1 UNK         0.0800 
    245 H245       -4.8698  -19.7328  -50.2415 H         1 UNK         0.0800 
    246 H246       -2.0868  -20.6827  -52.1847 H         1 UNK         0.0800 
    247 H247       -1.9593  -19.0874  -52.8936 H         1 UNK         0.0800 
@<TRIPOS>BOND
     1    1    2 1    
     2    1  127 1    
     3    1  128 1    
     4    1  129 1    
     5    2    3 2    
     6    2    4 am   BACKBONE|DICT|INTERRES
     7    4    5 1    
     8    4  130 1    
     9    5    6 1    
    10    5   65 1    
    11    5  131 1    
    12    6    7 1    
    13    6  132 1    
    14    6  133 1    
    15    7    8 1    
    16    8    9 1    
    17    8  134 1    
    18    8  135 1    
    19    9   10 ar   
    20    9   14 ar   
    21   10   11 ar   
    22   10  136 1    
    23   11   12 ar   
    24   11  126 1    
    25   12   13 ar   
    26   12  137 1    
    27   13   14 ar   
    28   13   15 1    
    29   14  138 1    
    30   15   16 1    
    31   15  139 1    
    32   15  140 1    
    33   16   17 1    
    34   17   18 1    
    35   17  141 1    
    36   17  142 1    
    37   18   19 1    
    38   18   67 1    
    39   18  143 1    
    40   19   20 am   BACKBONE|DICT|INTERRES
    41   19  144 1    
    42   20   21 2    
    43   20   22 1    
    44   22   23 1    
    45   22   24 1    
    46   22  145 1    
    47   23  146 1    
    48   23  147 1    
    49   23  148 1    
    50   24   25 am   BACKBONE|DICT|INTERRES
    51   24  149 1    
    52   25   26 2    
    53   25   27 1    
    54   27   28 1    
    55   27   29 1    
    56   27  150 1    
    57   28  151 1    
    58   28  152 1    
    59   28  153 1    
    60   29   30 am   BACKBONE|DICT|INTERRES
    61   29  154 1    
    62   30   31 2    
    63   30   32 1    
    64   32   33 1    
    65   32   34 1    
    66   32  155 1    
    67   33  156 1    
    68   33  157 1    
    69   33  158 1    
    70   34   35 am   BACKBONE|DICT|INTERRES
    71   34  159 1    
    72   35   36 2    
    73   35   37 1    
    74   37   38 1    
    75   37   39 1    
    76   37  160 1    
    77   38  161 1    
    78   38  162 1    
    79   38  163 1    
    80   39   40 am   BACKBONE|DICT|INTERRES
    81   39  164 1    
    82   40   41 2    
    83   40   42 1    
    84   42   43 1    
    85   42   44 1    
    86   42  165 1    
    87   43  166 1    
    88   43  167 1    
    89   43  168 1    
    90   44   45 am   BACKBONE|DICT|INTERRES
    91   44  169 1    
    92   45   46 2    
    93   45   47 1    
    94   47   48 1    
    95   47   49 1    
    96   47  170 1    
    97   48  171 1    
    98   48  172 1    
    99   48  173 1    
   100   49   50 am   BACKBONE|DICT|INTERRES
   101   49  174 1    
   102   50   51 2    
   103   50   52 1    
   104   52   53 1    
   105   52   54 1    
   106   52  175 1    
   107   53  176 1    
   108   53  177 1    
   109   53  178 1    
   110   54   55 am   BACKBONE|DICT|INTERRES
   111   54  179 1    
   112   55   56 2    
   113   55   57 1    
   114   57   58 1    
   115   57   59 1    
   116   57  180 1    
   117   58  181 1    
   118   58  182 1    
   119   58  183 1    
   120   59   60 am   BACKBONE|DICT|INTERRES
   121   59  184 1    
   122   60   61 2    
   123   60   62 1    
   124   62   63 1    
   125   62   64 1    
   126   62  185 1    
   127   63  186 1    
   128   63  187 1    
   129   63  188 1    
   130   64   65 am   BACKBONE|DICT|INTERRES
   131   64  189 1    
   132   65   66 2    
   133   67   68 2    
   134   67   69 am   BACKBONE|DICT|INTERRES
   135   69   70 1    
   136   69  190 1    
   137   70   71 1    
   138   70   72 1    
   139   70  191 1    
   140   71  192 1    
   141   71  193 1    
   142   71  194 1    
   143   72   73 2    
   144   72   74 am   BACKBONE|DICT|INTERRES
   145   74   75 1    
   146   74  195 1    
   147   75   76 1    
   148   75   77 1    
   149   75  196 1    
   150   76  197 1    
   151   76  198 1    
   152   76  199 1    
   153   77   78 2    
   154   77   79 am   BACKBONE|DICT|INTERRES
   155   79   80 1    
   156   79  200 1    
   157   80   81 1    
   158   80   82 1    
   159   80  201 1    
   160   81  202 1    
   161   81  203 1    
   162   81  204 1    
   163   82   83 2    
   164   82   84 am   BACKBONE|DICT|INTERRES
   165   84   85 1    
   166   84  205 1    
   167   85   86 1    
   168   85   87 1    
   169   85  206 1    
   170   86  207 1    
   171   86  208 1    
   172   86  209 1    
   173   87   88 2    
   174   87   89 am   BACKBONE|DICT|INTERRES
   175   89   90 1    
   176   89  210 1    
   177   90   91 1    
   178   90   92 1    
   179   90  211 1    
   180   91  212 1    
   181   91  213 1    
   182   91  214 1    
   183   92   93 2    
   184   92   94 am   BACKBONE|DICT|INTERRES
   185   94   95 1    
   186   94  215 1    
   187   95   96 1    
   188   95   97 1    
   189   95  216 1    
   190   96  217 1    
   191   96  218 1    
   192   96  219 1    
   193   97   98 2    
   194   97   99 am   BACKBONE|DICT|INTERRES
   195   99  100 1    
   196   99  220 1    
   197  100  101 1    
   198  100  102 1    
   199  100  221 1    
   200  101  222 1    
   201  101  223 1    
   202  101  224 1    
   203  102  103 2    
   204  102  104 am   BACKBONE|DICT|INTERRES
   205  104  105 1    
   206  104  225 1    
   207  105  106 1    
   208  105  107 1    
   209  105  226 1    
   210  106  227 1    
   211  106  228 1    
   212  106  229 1    
   213  107  108 2    
   214  107  109 am   BACKBONE|DICT|INTERRES
   215  109  110 1    
   216  109  230 1    
   217  110  111 1    
   218  110  112 1    
   219  110  231 1    
   220  111  232 1    
   221  111  233 1    
   222  111  234 1    
   223  112  113 2    
   224  112  114 am   BACKBONE|DICT|INTERRES
   225  114  115 1    
   226  114  235 1    
   227  115  116 1    
   228  115  117 1    
   229  115  236 1    
   230  116  237 1    
   231  116  238 1    
   232  116  239 1    
   233  117  118 2    
   234  117  119 am   BACKBONE|DICT|INTERRES
   235  119  120 1    
   236  119  240 1    
   237  120  121 1    
   238  120  124 1    
   239  120  241 1    
   240  121  122 am   BACKBONE|DICT|INTERRES
   241  121  123 2    
   242  122  242 1    
   243  122  243 1    
   244  124  125 1    
   245  124  244 1    
   246  124  245 1    
   247  125  126 1    
   248  126  246 1    
   249  126  247 1    
@<TRIPOS>SUBSTRUCTURE
     1 UNK         1 GROUP             0       ****    0 ROOT    
