@<TRIPOS>MOLECULE
3R540
247   249    1
SMALL
USER_CHARGES


@<TRIPOS>ATOM
      1 CA          3.4217  -12.0542  -52.1956 C.3       0 UNK        -0.1800 
      2 C           3.2724  -12.0541  -50.6812 C.2       0 UNK         0.5000 
      3 O           3.6957  -11.1048  -50.0203 O.2       0 UNK        -0.5000 
      4 N           2.6556  -13.1039  -50.1261 N.am      1 UNK        -0.5000 
      5 CA          2.4306  -13.3080  -48.6887 C.3       1 UNK         0.1400 
      6 C6          2.3337  -14.8127  -48.3214 C.3       23 UNK        -0.0398 
      7 S7          3.8407  -15.7605  -48.7307 S.3       23 UNK        -0.2404 
      8 C8          3.4265  -16.5003  -50.3440 C.3       23 UNK        -0.0205 
      9 C9          2.4932  -17.6968  -50.2252 C.ar      23 UNK        -0.0193 
     10 C10         1.1125  -17.5353  -50.3722 C.ar      23 UNK        -0.1150 
     11 C11         0.2556  -18.6390  -50.3222 C.ar      23 UNK        -0.0193 
     12 C12         0.7909  -19.9121  -50.1092 C.ar      23 UNK        -0.1150 
     13 C13         2.1695  -20.0887  -49.9573 C.ar      23 UNK        -0.0193 
     14 C14         3.0153  -18.9771  -50.0179 C.ar      23 UNK        -0.1150 
     15 C15         2.7424  -21.4849  -49.7526 C.3       23 UNK        -0.0205 
     16 S16         3.4856  -21.7243  -48.1036 S.3       23 UNK        -0.2404 
     17 C17         2.1188  -21.2979  -46.9716 C.3       23 UNK        -0.0398 
     18 CA          1.2915  -22.5158  -46.4952 C.3       11 UNK         0.1400 
     19 N           0.5590  -22.2135  -45.2641 N.am      11 UNK        -0.5000 
     20 C          -0.1473  -23.0933  -44.5413 C.2       10 UNK         0.5000 
     21 O          -0.1990  -24.2987  -44.7878 O.2       10 UNK        -0.5000 
     22 CA         -0.9805  -22.5143  -43.3818 C.3       10 UNK         0.1400 
     23 CB         -0.1082  -22.2779  -42.1402 C.3       10 UNK        -0.1800 
     24 N          -1.6639  -21.2721  -43.7546 N.am      10 UNK        -0.5000 
     25 C          -2.6305  -21.1997  -44.6813 C.2       9 UNK         0.5000 
     26 O          -3.0878  -22.1843  -45.2598 O.2       9 UNK        -0.5000 
     27 CA         -3.1482  -19.8005  -45.0614 C.3       9 UNK         0.1400 
     28 CB         -4.2270  -19.3268  -44.0773 C.3       9 UNK        -0.1800 
     29 N          -2.0850  -18.8003  -45.1481 N.am      9 UNK        -0.5000 
     30 C          -1.0953  -18.8185  -46.0523 C.2       8 UNK         0.5000 
     31 O          -0.9985  -19.6638  -46.9390 O.2       8 UNK        -0.5000 
     32 CA          0.0017  -17.7483  -45.9051 C.3       8 UNK         0.1400 
     33 CB         -0.4730  -16.4039  -46.4758 C.3       8 UNK        -0.1800 
     34 N           0.4227  -17.5811  -44.5119 N.am      8 UNK        -0.5000 
     35 C           0.9761  -18.5486  -43.7652 C.2       7 UNK         0.5000 
     36 O           1.2561  -19.6663  -44.1940 O.2       7 UNK        -0.5000 
     37 CA          1.1950  -18.2426  -42.2751 C.3       7 UNK         0.1400 
     38 CB          2.5337  -17.5247  -42.0470 C.3       7 UNK        -0.1800 
     39 N           0.0951  -17.4503  -41.7260 N.am      7 UNK        -0.5000 
     40 C          -1.1296  -17.9380  -41.4801 C.2       6 UNK         0.5000 
     41 O          -1.4365  -19.1194  -41.6412 O.2       6 UNK        -0.5000 
     42 CA         -2.2001  -16.9307  -41.0177 C.3       6 UNK         0.1400 
     43 CB         -2.1206  -16.7152  -39.4992 C.3       6 UNK        -0.1800 
     44 N          -2.0902  -15.6386  -41.6979 N.am      6 UNK        -0.5000 
     45 C          -2.3199  -15.4527  -43.0055 C.2       5 UNK         0.5000 
     46 O          -2.7150  -16.3429  -43.7567 O.2       5 UNK        -0.5000 
     47 CA         -2.0103  -14.0566  -43.5837 C.3       5 UNK         0.1400 
     48 CB         -3.2640  -13.1707  -43.5525 C.3       5 UNK        -0.1800 
     49 N          -0.9071  -13.3564  -42.9163 N.am      5 UNK        -0.5000 
     50 C           0.3454  -13.8208  -42.8042 C.2       4 UNK         0.5000 
     51 O           0.6986  -14.9250  -43.2203 O.2       4 UNK        -0.5000 
     52 CA          1.3521  -12.8807  -42.1107 C.3       4 UNK         0.1400 
     53 CB          2.7418  -13.5221  -41.9114 C.3       4 UNK        -0.1800 
     54 N           1.4594  -11.5906  -42.8023 N.am      4 UNK        -0.5000 
     55 C           1.8474  -11.3915  -44.0700 C.2       3 UNK         0.5000 
     56 O           2.2404  -12.2825  -44.8277 O.2       3 UNK        -0.5000 
     57 CA          1.8180   -9.9366  -44.5678 C.3       3 UNK         0.1400 
     58 CB          3.1788   -9.2598  -44.3418 C.3       3 UNK        -0.1800 
     59 N           1.5098   -9.9178  -45.9940 N.am      3 UNK        -0.5000 
     60 C           0.2741   -9.9767  -46.5064 C.2       2 UNK         0.5000 
     61 O          -0.7548   -9.8630  -45.8389 O.2       2 UNK        -0.5000 
     62 CA          0.1815  -10.2440  -48.0195 C.3       2 UNK         0.1400 
     63 CB          0.3145   -8.9376  -48.8168 C.3       2 UNK        -0.1800 
     64 N           1.2063  -11.1899  -48.4654 N.am      2 UNK        -0.5000 
     65 C           1.1986  -12.5050  -48.2075 C.2       1 UNK         0.5000 
     66 O           0.2621  -13.0762  -47.6467 O.2       1 UNK        -0.5000 
     67 C           0.3438  -23.0327  -47.5967 C.2       11 UNK         0.5000 
     68 O           0.6375  -24.0527  -48.2195 O.2       11 UNK        -0.5000 
     69 N          -0.7971  -22.3524  -47.7831 N.am      12 UNK        -0.5000 
     70 CA         -1.8585  -22.7434  -48.7083 C.3       12 UNK         0.1400 
     71 CB         -2.9631  -21.6793  -48.7286 C.3       12 UNK        -0.1800 
     72 C          -2.4460  -24.1236  -48.3784 C.2       12 UNK         0.5000 
     73 O          -2.5667  -24.9499  -49.2790 O.2       12 UNK        -0.5000 
     74 N          -2.7466  -24.3706  -47.0961 N.am      13 UNK        -0.5000 
     75 CA         -3.2436  -25.6523  -46.5941 C.3       13 UNK         0.1400 
     76 CB         -3.5982  -25.5238  -45.1053 C.3       13 UNK        -0.1800 
     77 C          -2.2583  -26.8127  -46.8288 C.2       13 UNK         0.5000 
     78 O          -2.6854  -27.8915  -47.2410 O.2       13 UNK        -0.5000 
     79 N          -0.9594  -26.5590  -46.6134 N.am      14 UNK        -0.5000 
     80 CA          0.1271  -27.5001  -46.8952 C.3       14 UNK         0.1400 
     81 CB          1.4329  -26.9715  -46.2824 C.3       14 UNK        -0.1800 
     82 C           0.3014  -27.7837  -48.4012 C.2       14 UNK         0.5000 
     83 O           0.5635  -28.9263  -48.7783 O.2       14 UNK        -0.5000 
     84 N           0.1286  -26.7483  -49.2332 N.am      15 UNK        -0.5000 
     85 CA          0.1815  -26.8196  -50.6958 C.3       15 UNK         0.1400 
     86 CB          0.4337  -25.4056  -51.2460 C.3       15 UNK        -0.1800 
     87 C          -1.0843  -27.4257  -51.3399 C.2       15 UNK         0.5000 
     88 O          -1.0584  -27.7239  -52.5347 O.2       15 UNK        -0.5000 
     89 N          -2.1625  -27.5738  -50.5554 N.am      16 UNK        -0.5000 
     90 CA         -3.5197  -27.9640  -50.9554 C.3       16 UNK         0.1400 
     91 CB         -3.5515  -29.4041  -51.5089 C.3       16 UNK        -0.1800 
     92 C          -4.1773  -26.9267  -51.8938 C.2       16 UNK         0.5000 
     93 O          -4.8656  -27.2919  -52.8490 O.2       16 UNK        -0.5000 
     94 N          -3.9443  -25.6462  -51.5916 N.am      17 UNK        -0.5000 
     95 CA         -4.4772  -24.4713  -52.2723 C.3       17 UNK         0.1400 
     96 CB         -3.2856  -23.6065  -52.7192 C.3       17 UNK        -0.1800 
     97 C          -5.3897  -23.6812  -51.3159 C.2       17 UNK         0.5000 
     98 O          -5.4959  -24.0164  -50.1332 O.2       17 UNK        -0.5000 
     99 N          -6.0205  -22.6252  -51.8397 N.am      18 UNK        -0.5000 
    100 CA        -6.7567  -21.6378  -51.0517 C.3       18 UNK         0.1400 
    101 CB        -7.9692  -21.1575  -51.8629 C.3       18 UNK        -0.1800 
    102 C         -5.8330  -20.4531  -50.7307 C.2       18 UNK         0.5000 
    103 O         -4.9257  -20.1582  -51.5089 O.2       18 UNK        -0.5000 
    104 N         -6.0995  -19.7524  -49.6220 N.am      19 UNK        -0.5000 
    105 CA        -5.3388  -18.5671  -49.2043 C.3       19 UNK         0.1400 
    106 CB        -5.7378  -18.1972  -47.7675 C.3       19 UNK        -0.1800 
    107 C         -5.5143  -17.3567  -50.1479 C.2       19 UNK         0.5000 
    108 O         -4.6536  -16.4778  -50.1732 O.2       19 UNK        -0.5000 
    109 N         -6.6209  -17.3389  -50.9033 N.am      20 UNK        -0.5000 
    110 CA        -6.9552  -16.3176  -51.8968 C.3       20 UNK         0.1400 
    111 CB        -8.4672  -16.0476  -51.8156 C.3       20 UNK        -0.1800 
    112 C         -6.5581  -16.7185  -53.3336 C.2       20 UNK         0.5000 
    113 O         -6.7198  -15.9037  -54.2434 O.2       20 UNK        -0.5000 
    114 N         -6.0699  -17.9498  -53.5333 N.am      21 UNK        -0.5000 
    115 CA        -5.7024  -18.5059  -54.8344 C.3       21 UNK         0.1400 
    116 CB        -6.9412  -19.1009  -55.5324 C.3       21 UNK        -0.1800 
    117 C         -4.5734  -19.5212  -54.6184 C.2       21 UNK         0.5000 
    118 O         -4.7831  -20.7293  -54.7479 O.2       21 UNK        -0.5000 
    119 N         -3.4164  -18.9881  -54.2126 N.am      22 UNK        -0.5000 
    120 CA        -2.2025  -19.7206  -53.8265 C.3       22 UNK         0.1400 
    121 C         -1.6288  -20.6317  -54.9492 C.2       22 UNK         0.5000 
    122 N         -0.9883  -21.7367  -54.5915 N.am      22 UNK        -0.7600 
    123 O         -1.7089  -20.3201  -56.1358 O.2       22 UNK        -0.5000 
    124 C124       -1.1022  -18.7505  -53.3227 C.3       23 UNK        -0.0398 
    125 S125       -1.6814  -17.5840  -52.0391 S.3       23 UNK        -0.2404 
    126 C126       -1.2469  -18.4638  -50.5051 C.3       23 UNK        -0.0205 
    127 H127        2.9118  -11.1907  -52.6229 H         1 UNK         0.0600 
    128 H128        3.0016  -12.9546  -52.6446 H         1 UNK         0.0600 
    129 H129        4.4757  -11.9987  -52.4679 H         1 UNK         0.0600 
    130 H130        2.2879  -13.8258  -50.7272 H         1 UNK         0.3000 
    131 H131        3.2876  -12.9036  -48.1452 H         1 UNK         0.0600 
    132 H132        2.1924  -14.9156  -47.2446 H         1 UNK         0.0800 
    133 H133        1.4617  -15.2724  -48.7844 H         1 UNK         0.0800 
    134 H134        2.9956  -15.7473  -51.0037 H         1 UNK         0.0800 
    135 H135        4.3542  -16.8158  -50.8240 H         1 UNK         0.0800 
    136 H136        0.7001  -16.5528  -50.5515 H         1 UNK         0.1150 
    137 H137        0.1334  -20.7683  -50.0663 H         1 UNK         0.1150 
    138 H138        4.0826  -19.1113  -49.9092 H         1 UNK         0.1150 
    139 H139        1.9785  -22.2458  -49.9174 H         1 UNK         0.0800 
    140 H140        3.5087  -21.6645  -50.5078 H         1 UNK         0.0800 
    141 H141        1.4832  -20.5222  -47.3978 H         1 UNK         0.0800 
    142 H142        2.5969  -20.8313  -46.1102 H         1 UNK         0.0800 
    143 H143        1.9839  -23.3247  -46.2525 H         1 UNK         0.0600 
    144 H144        0.5904  -21.2464  -44.9509 H         1 UNK         0.3000 
    145 H145       -1.7439  -23.2506  -43.1217 H         1 UNK         0.0600 
    146 H146        0.3705  -23.2039  -41.8195 H         1 UNK         0.0600 
    147 H147        0.6808  -21.5511  -42.3317 H         1 UNK         0.0600 
    148 H148       -0.7040  -21.9122  -41.3037 H         1 UNK         0.0600 
    149 H149       -1.3771  -20.4264  -43.2746 H         1 UNK         0.3000 
    150 H150       -3.6042  -19.8803  -46.0495 H         1 UNK         0.0600 
    151 H151       -5.0416  -20.0491  -44.0128 H         1 UNK         0.0600 
    152 H152       -4.6585  -18.3772  -44.3948 H         1 UNK         0.0600 
    153 H153       -3.8250  -19.1921  -43.0729 H         1 UNK         0.0600 
    154 H154       -2.1320  -18.0279  -44.4897 H         1 UNK         0.3000 
    155 H155        0.8744  -18.0726  -46.4762 H         1 UNK         0.0600 
    156 H156       -1.4503  -16.1179  -46.0888 H         1 UNK         0.0600 
    157 H157        0.2219  -15.5997  -46.2370 H         1 UNK         0.0600 
    158 H158       -0.5586  -16.4552  -47.5619 H         1 UNK         0.0600 
    159 H159        0.2790  -16.6700  -44.0879 H         1 UNK         0.3000 
    160 H160        1.2319  -19.1929  -41.7384 H         1 UNK         0.0600 
    161 H161        2.6017  -16.5957  -42.6123 H         1 UNK         0.0600 
    162 H162        3.3665  -18.1550  -42.3611 H         1 UNK         0.0600 
    163 H163        2.6831  -17.2900  -40.9931 H         1 UNK         0.0600 
    164 H164        0.2489  -16.4537  -41.6603 H         1 UNK         0.3000 
    165 H165       -3.1788  -17.3556  -41.2510 H         1 UNK         0.0600 
    166 H166       -2.9219  -16.0632  -39.1511 H         1 UNK         0.0600 
    167 H167       -2.2183  -17.6617  -38.9658 H         1 UNK         0.0600 
    168 H168       -1.1706  -16.2681  -39.2035 H         1 UNK         0.0600 
    169 H169       -1.7736  -14.8543  -41.1474 H         1 UNK         0.3000 
    170 H170       -1.7195  -14.1940  -44.6268 H         1 UNK         0.0600 
    171 H171       -4.0969  -13.6546  -44.0645 H         1 UNK         0.0600 
    172 H172       -3.5834  -12.9604  -42.5311 H         1 UNK         0.0600 
    173 H173       -3.0864  -12.2185  -44.0532 H         1 UNK         0.0600 
    174 H174       -1.1127  -12.4343  -42.5602 H         1 UNK         0.3000 
    175 H175        0.9475  -12.6701  -41.1196 H         1 UNK         0.0600 
    176 H176        3.1961  -13.8195  -42.8570 H         1 UNK         0.0600 
    177 H177        3.4253  -12.8349  -41.4131 H         1 UNK         0.0600 
    178 H178        2.6703  -14.4154  -41.2901 H         1 UNK         0.0600 
    179 H179        1.1666  -10.7872  -42.2635 H         1 UNK         0.3000 
    180 H180        1.0542   -9.3805  -44.0198 H         1 UNK         0.0600 
    181 H181        3.9818   -9.7842  -44.8616 H         1 UNK         0.0600 
    182 H182        3.4332   -9.2390  -43.2814 H         1 UNK         0.0600 
    183 H183        3.1690   -8.2281  -44.6939 H         1 UNK         0.0600 
    184 H184        2.2870  -10.0799  -46.6167 H         1 UNK         0.3000 
    185 H185       -0.8014  -10.6727  -48.2265 H         1 UNK         0.0600 
    186 H186       -0.4473   -8.2176  -48.5150 H         1 UNK         0.0600 
    187 H187        1.2880   -8.4694  -48.6662 H         1 UNK         0.0600 
    188 H188        0.1893   -9.1143  -49.8852 H         1 UNK         0.0600 
    189 H189        2.0065  -10.8132  -48.9632 H         1 UNK         0.3000 
    190 H190       -0.9400  -21.4837  -47.2728 H         1 UNK         0.3000 
    191 H191       -1.4162  -22.7928  -49.7049 H         1 UNK         0.0600 
    192 H192       -3.5452  -21.6717  -47.8080 H         1 UNK         0.0600 
    193 H193       -3.6535  -21.8722  -49.5475 H         1 UNK         0.0600 
    194 H194       -2.5583  -20.6801  -48.8688 H         1 UNK         0.0600 
    195 H195       -2.6606  -23.6169  -46.4188 H         1 UNK         0.3000 
    196 H196       -4.1600  -25.8826  -47.1416 H         1 UNK         0.0600 
    197 H197       -3.9979  -26.4612  -44.7166 H         1 UNK         0.0600 
    198 H198       -4.3555  -24.7560  -44.9460 H         1 UNK         0.0600 
    199 H199       -2.7274  -25.2633  -44.5038 H         1 UNK         0.0600 
    200 H200       -0.6949  -25.6544  -46.2359 H         1 UNK         0.3000 
    201 H201       -0.1157  -28.4462  -46.4070 H         1 UNK         0.0600 
    202 H202        1.3347  -26.8335  -45.2055 H         1 UNK         0.0600 
    203 H203        1.7243  -26.0144  -46.7154 H         1 UNK         0.0600 
    204 H204        2.2533  -27.6706  -46.4484 H         1 UNK         0.0600 
    205 H205       -0.0192  -25.8258  -48.8340 H         1 UNK         0.3000 
    206 H206        1.0259  -27.4505  -50.9805 H         1 UNK         0.0600 
    207 H207        1.3537  -24.9825  -50.8421 H         1 UNK         0.0600 
    208 H208        0.5312  -25.4174  -52.3322 H         1 UNK         0.0600 
    209 H209       -0.3833  -24.7276  -50.9979 H         1 UNK         0.0600 
    210 H210       -2.0748  -27.2460  -49.6022 H         1 UNK         0.3000 
    211 H211       -4.1117  -27.9554  -50.0390 H         1 UNK         0.0600 
    212 H212       -3.0410  -29.4843  -52.4688 H         1 UNK         0.0600 
    213 H213       -4.5782  -29.7402  -51.6581 H         1 UNK         0.0600 
    214 H214       -3.0795  -30.1020  -50.8174 H         1 UNK         0.0600 
    215 H215       -3.4249  -25.4423  -50.7373 H         1 UNK         0.3000 
    216 H216       -5.0627  -24.7612  -53.1469 H         1 UNK         0.0600 
    217 H217       -3.6174  -22.7368  -53.2863 H         1 UNK         0.0600 
    218 H218       -2.6101  -24.1713  -53.3620 H         1 UNK         0.0600 
    219 H219       -2.7102  -23.2438  -51.8667 H         1 UNK         0.0600 
    220 H220       -5.8180  -22.3590  -52.7942 H         1 UNK         0.3000 
    221 H221       -7.1131  -22.0775  -50.1177 H         1 UNK         0.0600 
    222 H222       -7.6654  -20.6701  -52.7887 H         1 UNK         0.0600 
    223 H223       -8.6237  -21.9898  -52.1223 H         1 UNK         0.0600 
    224 H224       -8.5648  -20.4420  -51.2947 H         1 UNK         0.0600 
    225 H225       -6.8635  -20.0350  -49.0247 H         1 UNK         0.3000 
    226 H226       -4.2784  -18.8287  -49.2053 H         1 UNK         0.0600 
    227 H227       -5.6002  -19.0383  -47.0887 H         1 UNK         0.0600 
    228 H228       -5.1273  -17.3745  -47.3924 H         1 UNK         0.0600 
    229 H229       -6.7816  -17.8866  -47.7075 H         1 UNK         0.0600 
    230 H230       -7.2793  -18.0963  -50.7994 H         1 UNK         0.3000 
    231 H231       -6.4327  -15.3876  -51.6638 H         1 UNK         0.0600 
    232 H232       -8.7637  -15.2578  -52.5070 H         1 UNK         0.0600 
    233 H233       -8.7565  -15.7247  -50.8153 H         1 UNK         0.0600 
    234 H234       -9.0490  -16.9364  -52.0633 H         1 UNK         0.0600 
    235 H235       -5.8739  -18.5435  -52.7359 H         1 UNK         0.3000 
    236 H236       -5.3009  -17.7153  -55.4721 H         1 UNK         0.0600 
    237 H237       -7.7004  -18.3386  -55.7077 H         1 UNK         0.0600 
    238 H238       -6.6742  -19.5215  -56.5025 H         1 UNK         0.0600 
    239 H239       -7.3968  -19.8971  -54.9451 H         1 UNK         0.0600 
    240 H240       -3.3638  -17.9868  -54.0993 H         1 UNK         0.3000 
    241 H241       -2.4894  -20.3661  -52.9941 H         1 UNK         0.0600 
    242 H242       -0.8840  -22.0037  -53.6264 H         1 UNK         0.3800 
    243 H243       -0.5955  -22.3233  -55.3110 H         1 UNK         0.3800 
    244 H244       -0.2446  -19.3090  -52.9449 H         1 UNK         0.0800 
    245 H245       -0.7224  -18.1523  -54.1529 H         1 UNK         0.0800 
    246 H246       -1.6477  -17.9164  -49.6509 H         1 UNK         0.0800 
    247 H247       -1.7512  -19.4291  -50.5231 H         1 UNK         0.0800 
@<TRIPOS>BOND
     1    1    2 1    
     2    1  127 1    
     3    1  128 1    
     4    1  129 1    
     5    2    3 2    
     6    2    4 am   BACKBONE|DICT|INTERRES
     7    4    5 1    
     8    4  130 1    
     9    5    6 1    
    10    5   65 1    
    11    5  131 1    
    12    6    7 1    
    13    6  132 1    
    14    6  133 1    
    15    7    8 1    
    16    8    9 1    
    17    8  134 1    
    18    8  135 1    
    19    9   10 ar   
    20    9   14 ar   
    21   10   11 ar   
    22   10  136 1    
    23   11   12 ar   
    24   11  126 1    
    25   12   13 ar   
    26   12  137 1    
    27   13   14 ar   
    28   13   15 1    
    29   14  138 1    
    30   15   16 1    
    31   15  139 1    
    32   15  140 1    
    33   16   17 1    
    34   17   18 1    
    35   17  141 1    
    36   17  142 1    
    37   18   19 1    
    38   18   67 1    
    39   18  143 1    
    40   19   20 am   BACKBONE|DICT|INTERRES
    41   19  144 1    
    42   20   21 2    
    43   20   22 1    
    44   22   23 1    
    45   22   24 1    
    46   22  145 1    
    47   23  146 1    
    48   23  147 1    
    49   23  148 1    
    50   24   25 am   BACKBONE|DICT|INTERRES
    51   24  149 1    
    52   25   26 2    
    53   25   27 1    
    54   27   28 1    
    55   27   29 1    
    56   27  150 1    
    57   28  151 1    
    58   28  152 1    
    59   28  153 1    
    60   29   30 am   BACKBONE|DICT|INTERRES
    61   29  154 1    
    62   30   31 2    
    63   30   32 1    
    64   32   33 1    
    65   32   34 1    
    66   32  155 1    
    67   33  156 1    
    68   33  157 1    
    69   33  158 1    
    70   34   35 am   BACKBONE|DICT|INTERRES
    71   34  159 1    
    72   35   36 2    
    73   35   37 1    
    74   37   38 1    
    75   37   39 1    
    76   37  160 1    
    77   38  161 1    
    78   38  162 1    
    79   38  163 1    
    80   39   40 am   BACKBONE|DICT|INTERRES
    81   39  164 1    
    82   40   41 2    
    83   40   42 1    
    84   42   43 1    
    85   42   44 1    
    86   42  165 1    
    87   43  166 1    
    88   43  167 1    
    89   43  168 1    
    90   44   45 am   BACKBONE|DICT|INTERRES
    91   44  169 1    
    92   45   46 2    
    93   45   47 1    
    94   47   48 1    
    95   47   49 1    
    96   47  170 1    
    97   48  171 1    
    98   48  172 1    
    99   48  173 1    
   100   49   50 am   BACKBONE|DICT|INTERRES
   101   49  174 1    
   102   50   51 2    
   103   50   52 1    
   104   52   53 1    
   105   52   54 1    
   106   52  175 1    
   107   53  176 1    
   108   53  177 1    
   109   53  178 1    
   110   54   55 am   BACKBONE|DICT|INTERRES
   111   54  179 1    
   112   55   56 2    
   113   55   57 1    
   114   57   58 1    
   115   57   59 1    
   116   57  180 1    
   117   58  181 1    
   118   58  182 1    
   119   58  183 1    
   120   59   60 am   BACKBONE|DICT|INTERRES
   121   59  184 1    
   122   60   61 2    
   123   60   62 1    
   124   62   63 1    
   125   62   64 1    
   126   62  185 1    
   127   63  186 1    
   128   63  187 1    
   129   63  188 1    
   130   64   65 am   BACKBONE|DICT|INTERRES
   131   64  189 1    
   132   65   66 2    
   133   67   68 2    
   134   67   69 am   BACKBONE|DICT|INTERRES
   135   69   70 1    
   136   69  190 1    
   137   70   71 1    
   138   70   72 1    
   139   70  191 1    
   140   71  192 1    
   141   71  193 1    
   142   71  194 1    
   143   72   73 2    
   144   72   74 am   BACKBONE|DICT|INTERRES
   145   74   75 1    
   146   74  195 1    
   147   75   76 1    
   148   75   77 1    
   149   75  196 1    
   150   76  197 1    
   151   76  198 1    
   152   76  199 1    
   153   77   78 2    
   154   77   79 am   BACKBONE|DICT|INTERRES
   155   79   80 1    
   156   79  200 1    
   157   80   81 1    
   158   80   82 1    
   159   80  201 1    
   160   81  202 1    
   161   81  203 1    
   162   81  204 1    
   163   82   83 2    
   164   82   84 am   BACKBONE|DICT|INTERRES
   165   84   85 1    
   166   84  205 1    
   167   85   86 1    
   168   85   87 1    
   169   85  206 1    
   170   86  207 1    
   171   86  208 1    
   172   86  209 1    
   173   87   88 2    
   174   87   89 am   BACKBONE|DICT|INTERRES
   175   89   90 1    
   176   89  210 1    
   177   90   91 1    
   178   90   92 1    
   179   90  211 1    
   180   91  212 1    
   181   91  213 1    
   182   91  214 1    
   183   92   93 2    
   184   92   94 am   BACKBONE|DICT|INTERRES
   185   94   95 1    
   186   94  215 1    
   187   95   96 1    
   188   95   97 1    
   189   95  216 1    
   190   96  217 1    
   191   96  218 1    
   192   96  219 1    
   193   97   98 2    
   194   97   99 am   BACKBONE|DICT|INTERRES
   195   99  100 1    
   196   99  220 1    
   197  100  101 1    
   198  100  102 1    
   199  100  221 1    
   200  101  222 1    
   201  101  223 1    
   202  101  224 1    
   203  102  103 2    
   204  102  104 am   BACKBONE|DICT|INTERRES
   205  104  105 1    
   206  104  225 1    
   207  105  106 1    
   208  105  107 1    
   209  105  226 1    
   210  106  227 1    
   211  106  228 1    
   212  106  229 1    
   213  107  108 2    
   214  107  109 am   BACKBONE|DICT|INTERRES
   215  109  110 1    
   216  109  230 1    
   217  110  111 1    
   218  110  112 1    
   219  110  231 1    
   220  111  232 1    
   221  111  233 1    
   222  111  234 1    
   223  112  113 2    
   224  112  114 am   BACKBONE|DICT|INTERRES
   225  114  115 1    
   226  114  235 1    
   227  115  116 1    
   228  115  117 1    
   229  115  236 1    
   230  116  237 1    
   231  116  238 1    
   232  116  239 1    
   233  117  118 2    
   234  117  119 am   BACKBONE|DICT|INTERRES
   235  119  120 1    
   236  119  240 1    
   237  120  121 1    
   238  120  124 1    
   239  120  241 1    
   240  121  122 am   BACKBONE|DICT|INTERRES
   241  121  123 2    
   242  122  242 1    
   243  122  243 1    
   244  124  125 1    
   245  124  244 1    
   246  124  245 1    
   247  125  126 1    
   248  126  246 1    
   249  126  247 1    
@<TRIPOS>SUBSTRUCTURE
     1 UNK         1 GROUP             0       ****    0 ROOT    
