@<TRIPOS>MOLECULE
3R540
247   249    1
SMALL
USER_CHARGES


@<TRIPOS>ATOM
      1 CA          6.9621  -11.8642  -52.8732 C.3       0 UNK        -0.1800 
      2 C           6.5852  -12.6191  -51.6061 C.2       0 UNK         0.5000 
      3 O           7.4393  -12.8378  -50.7466 O.2       0 UNK        -0.5000 
      4 N           5.3143  -13.0239  -51.4912 N.am      1 UNK        -0.5000 
      5 CA          4.7510  -13.7011  -50.3208 C.3       1 UNK         0.1400 
      6 C6          3.3878  -14.3513  -50.6626 C.3       23 UNK        -0.0398 
      7 S7          2.8073  -15.4986  -49.3678 S.3       23 UNK        -0.2404 
      8 C8          1.4430  -14.5432  -48.6341 C.3       23 UNK        -0.0205 
      9 C9          0.1097  -14.9035  -49.2656 C.ar      23 UNK        -0.0193 
     10 C10        -0.3490  -14.2466  -50.4099 C.ar      23 UNK        -0.1150 
     11 C11        -1.5836  -14.5855  -50.9718 C.ar      23 UNK        -0.0193 
     12 C12        -2.3574  -15.5880  -50.3794 C.ar      23 UNK        -0.1150 
     13 C13        -1.9087  -16.2597  -49.2387 C.ar      23 UNK        -0.0193 
     14 C14        -0.6749  -15.9000  -48.6847 C.ar      23 UNK        -0.1150 
     15 C15        -2.7956  -17.3450  -48.6295 C.3       23 UNK        -0.0205 
     16 S16        -1.9437  -18.5402  -47.5444 S.3       23 UNK        -0.2404 
     17 C17        -0.7288  -19.2836  -48.6988 C.3       23 UNK        -0.0398 
     18 CA         -0.2885  -20.7175  -48.3143 C.3       11 UNK         0.1400 
     19 N           0.1456  -20.7751  -46.9195 N.am      11 UNK        -0.5000 
     20 C           0.6622  -21.8355  -46.2886 C.2       10 UNK         0.5000 
     21 O           0.9404  -22.8989  -46.8391 O.2       10 UNK        -0.5000 
     22 CA          0.8362  -21.6906  -44.7677 C.3       10 UNK         0.1400 
     23 CB          2.2246  -21.1287  -44.4295 C.3       10 UNK        -0.1800 
     24 N          -0.1868  -20.8261  -44.1796 N.am      10 UNK        -0.5000 
     25 C          -1.4976  -21.1008  -44.1209 C.2       9 UNK         0.5000 
     26 O          -1.9923  -22.1393  -44.5637 O.2       9 UNK        -0.5000 
     27 CA         -2.3925  -20.0109  -43.4916 C.3       9 UNK         0.1400 
     28 CB         -3.7346  -20.5589  -42.9662 C.3       9 UNK        -0.1800 
     29 N          -1.6934  -19.2326  -42.4624 N.am      9 UNK        -0.5000 
     30 C          -1.1789  -19.6806  -41.3062 C.2       8 UNK         0.5000 
     31 O          -1.3230  -20.8297  -40.8877 O.2       8 UNK        -0.5000 
     32 CA         -0.3176  -18.6935  -40.4931 C.3       8 UNK         0.1400 
     33 CB          1.1685  -19.0603  -40.6332 C.3       8 UNK        -0.1800 
     34 N          -0.4967  -17.2952  -40.8908 N.am      8 UNK        -0.5000 
     35 C          -1.5650  -16.5477  -40.5812 C.2       7 UNK         0.5000 
     36 O          -2.4969  -16.9436  -39.8803 O.2       7 UNK        -0.5000 
     37 CA         -1.6147  -15.1302  -41.1815 C.3       7 UNK         0.1400 
     38 CB         -0.7755  -14.1546  -40.3427 C.3       7 UNK        -0.1800 
     39 N          -1.1681  -15.0803  -42.5751 N.am      7 UNK        -0.5000 
     40 C          -1.7777  -15.6908  -43.6021 C.2       6 UNK         0.5000 
     41 O          -2.7962  -16.3721  -43.4903 O.2       6 UNK        -0.5000 
     42 CA         -1.1088  -15.5502  -44.9795 C.3       6 UNK         0.1400 
     43 CB         -1.4099  -14.1765  -45.6008 C.3       6 UNK        -0.1800 
     44 N           0.3365  -15.7559  -44.8951 N.am      6 UNK        -0.5000 
     45 C           0.9173  -16.9401  -44.6535 C.2       5 UNK         0.5000 
     46 O           0.3025  -18.0028  -44.5603 O.2       5 UNK        -0.5000 
     47 CA          2.4395  -16.9328  -44.4372 C.3       5 UNK         0.1400 
     48 CB          3.1790  -17.1306  -45.7677 C.3       5 UNK        -0.1800 
     49 N           2.9032  -15.7053  -43.7871 N.am      5 UNK        -0.5000 
     50 C           2.6826  -15.4190  -42.4946 C.2       4 UNK         0.5000 
     51 O           2.0757  -16.1660  -41.7283 O.2       4 UNK        -0.5000 
     52 CA          3.1779  -14.0547  -41.9766 C.3       4 UNK         0.1400 
     53 CB          4.6429  -14.1502  -41.5261 C.3       4 UNK        -0.1800 
     54 N           3.0466  -12.9816  -42.9615 N.am      4 UNK        -0.5000 
     55 C           1.8909  -12.5735  -43.5034 C.2       3 UNK         0.5000 
     56 O           0.7922  -13.0189  -43.1731 O.2       3 UNK        -0.5000 
     57 CA          1.9770  -11.5343  -44.6394 C.3       3 UNK         0.1400 
     58 CB          1.7018  -10.1245  -44.0964 C.3       3 UNK        -0.1800 
     59 N           3.2548  -11.5309  -45.3639 N.am      3 UNK        -0.5000 
     60 C           3.7610  -12.5741  -46.0350 C.2       2 UNK         0.5000 
     61 O           3.2337  -13.6878  -46.0614 O.2       2 UNK        -0.5000 
     62 CA          5.1160  -12.3579  -46.7269 C.3       2 UNK         0.1400 
     63 CB          6.2568  -12.8142  -45.8041 C.3       2 UNK        -0.1800 
     64 N           5.1871  -13.1135  -47.9757 N.am      2 UNK        -0.5000 
     65 C           4.6460  -12.7172  -49.1338 C.2       1 UNK         0.5000 
     66 O           4.0797  -11.6324  -49.2912 O.2       1 UNK        -0.5000 
     67 C          -1.3801  -21.7633  -48.6256 C.2       11 UNK         0.5000 
     68 O          -1.2352  -22.5401  -49.5693 O.2       11 UNK        -0.5000 
     69 N          -2.4283  -21.7943  -47.7909 N.am      12 UNK        -0.5000 
     70 CA         -3.5471  -22.7271  -47.8990 C.3       12 UNK         0.1400 
     71 CB         -4.6956  -22.2630  -46.9921 C.3       12 UNK        -0.1800 
     72 C          -3.1363  -24.1718  -47.5774 C.2       12 UNK         0.5000 
     73 O          -3.6236  -25.0947  -48.2277 O.2       12 UNK        -0.5000 
     74 N          -2.2217  -24.3435  -46.6125 N.am      13 UNK        -0.5000 
     75 CA         -1.6245  -25.6332  -46.2663 C.3       13 UNK         0.1400 
     76 CB         -0.7916  -25.4924  -44.9837 C.3       13 UNK        -0.1800 
     77 C          -0.7791  -26.2161  -47.4150 C.2       13 UNK         0.5000 
     78 O          -0.9094  -27.4023  -47.7173 O.2       13 UNK        -0.5000 
     79 N           0.0399  -25.3690  -48.0557 N.am      14 UNK        -0.5000 
     80 CA          0.8667  -25.7209  -49.2119 C.3       14 UNK         0.1400 
     81 CB          1.8672  -24.5895  -49.4932 C.3       14 UNK        -0.1800 
     82 C           0.0347  -26.0364  -50.4682 C.2       14 UNK         0.5000 
     83 O           0.3433  -26.9970  -51.1746 O.2       14 UNK        -0.5000 
     84 N          -1.0157  -25.2404  -50.7119 N.am      15 UNK        -0.5000 
     85 CA         -1.9707  -25.4366  -51.8061 C.3       15 UNK         0.1400 
     86 CB         -2.7661  -24.1383  -52.0062 C.3       15 UNK        -0.1800 
     87 C          -2.9280  -26.6258  -51.5826 C.2       15 UNK         0.5000 
     88 O          -3.5227  -27.1076  -52.5472 O.2       15 UNK        -0.5000 
     89 N          -3.0641  -27.0607  -50.3214 N.am      16 UNK        -0.5000 
     90 CA         -3.9612  -28.1016  -49.8088 C.3       16 UNK         0.1400 
     91 CB         -3.6287  -29.4777  -50.4222 C.3       16 UNK        -0.1800 
     92 C          -5.4569  -27.7319  -49.9226 C.2       16 UNK         0.5000 
     93 O          -6.3103  -28.6209  -49.9405 O.2       16 UNK        -0.5000 
     94 N          -5.7486  -26.4278  -49.9738 N.am      17 UNK        -0.5000 
     95 CA         -7.0710  -25.8232  -50.0723 C.3       17 UNK         0.1400 
     96 CB         -7.7103  -26.1175  -51.4440 C.3       17 UNK        -0.1800 
     97 C          -6.9166  -24.3094  -49.8834 C.2       17 UNK         0.5000 
     98 O          -5.8911  -23.7485  -50.2736 O.2       17 UNK        -0.5000 
     99 N          -7.9480  -23.6666  -49.3225 N.am      18 UNK        -0.5000 
    100 CA        -8.0268  -22.2079  -49.1988 C.3       18 UNK         0.1400 
    101 CB        -9.0830  -21.8454  -48.1444 C.3       18 UNK        -0.1800 
    102 C         -8.3409  -21.5206  -50.5425 C.2       18 UNK         0.5000 
    103 O         -7.9334  -20.3776  -50.7540 O.2       18 UNK        -0.5000 
    104 N         -9.0505  -22.2318  -51.4299 N.am      19 UNK        -0.5000 
    105 CA        -9.3551  -21.8051  -52.7924 C.3       19 UNK         0.1400 
    106 CB       -10.3916  -22.7622  -53.4022 C.3       19 UNK        -0.1800 
    107 C         -8.0747  -21.7593  -53.6443 C.2       19 UNK         0.5000 
    108 O         -7.4032  -22.7837  -53.7826 O.2       19 UNK        -0.5000 
    109 N         -7.7651  -20.5699  -54.1793 N.am      20 UNK        -0.5000 
    110 CA        -6.5885  -20.2491  -54.9974 C.3       20 UNK         0.1400 
    111 CB        -6.6404  -20.9913  -56.3497 C.3       20 UNK        -0.1800 
    112 C         -5.2442  -20.4419  -54.2593 C.2       20 UNK         0.5000 
    113 O         -4.2271  -20.7160  -54.8997 O.2       20 UNK        -0.5000 
    114 N         -5.2495  -20.2604  -52.9287 N.am      21 UNK        -0.5000 
    115 CA        -4.0928  -20.4330  -52.0411 C.3       21 UNK         0.1400 
    116 CB        -4.5413  -20.2378  -50.5860 C.3       21 UNK        -0.1800 
    117 C         -2.8896  -19.5243  -52.3672 C.2       21 UNK         0.5000 
    118 O         -1.7537  -19.9029  -52.0850 O.2       21 UNK        -0.5000 
    119 N         -3.1557  -18.3644  -52.9828 N.am      22 UNK        -0.5000 
    120 CA        -2.1407  -17.4539  -53.5387 C.3       22 UNK         0.1400 
    121 C         -1.3594  -18.0265  -54.7650 C.2       22 UNK         0.5000 
    122 N         -1.8153  -19.0914  -55.4167 N.am      22 UNK        -0.7600 
    123 O         -0.3101  -17.5039  -55.1291 O.2       22 UNK        -0.5000 
    124 C124       -2.7655  -16.0676  -53.8569 C.3       23 UNK        -0.0398 
    125 S125       -1.5774  -14.6828  -53.7456 S.3       23 UNK        -0.2404 
    126 C126       -2.0871  -13.8536  -52.2065 C.3       23 UNK        -0.0205 
    127 H127        6.1122  -11.7520  -53.5470 H         1 UNK         0.0600 
    128 H128        7.7505  -12.3955  -53.4063 H         1 UNK         0.0600 
    129 H129        7.3298  -10.8694  -52.6216 H         1 UNK         0.0600 
    130 H130        4.6560  -12.7860  -52.2193 H         1 UNK         0.3000 
    131 H131        5.4427  -14.5020  -50.0490 H         1 UNK         0.0600 
    132 H132        3.4808  -14.9349  -51.5795 H         1 UNK         0.0800 
    133 H133        2.6336  -13.5917  -50.8716 H         1 UNK         0.0800 
    134 H134        1.6309  -13.4714  -48.7110 H         1 UNK         0.0800 
    135 H135        1.4058  -14.7611  -47.5666 H         1 UNK         0.0800 
    136 H136        0.2509  -13.4700  -50.8621 H         1 UNK         0.1150 
    137 H137       -3.3152  -15.8473  -50.8072 H         1 UNK         0.1150 
    138 H138       -0.3104  -16.3899  -47.7943 H         1 UNK         0.1150 
    139 H139       -3.2904  -17.8971  -49.4278 H         1 UNK         0.0800 
    140 H140       -3.5843  -16.8605  -48.0529 H         1 UNK         0.0800 
    141 H141        0.1506  -18.6390  -48.7184 H         1 UNK         0.0800 
    142 H142       -1.1273  -19.2599  -49.7119 H         1 UNK         0.0800 
    143 H143        0.5767  -20.9744  -48.9292 H         1 UNK         0.0600 
    144 H144       -0.0560  -19.9527  -46.3669 H         1 UNK         0.3000 
    145 H145        0.7437  -22.6807  -44.3183 H         1 UNK         0.0600 
    146 H146        2.3706  -21.0602  -43.3513 H         1 UNK         0.0600 
    147 H147        3.0120  -21.7718  -44.8248 H         1 UNK         0.0600 
    148 H148        2.3698  -20.1340  -44.8516 H         1 UNK         0.0600 
    149 H149        0.1092  -19.8985  -43.8955 H         1 UNK         0.3000 
    150 H150       -2.6171  -19.3077  -44.2951 H         1 UNK         0.0600 
    151 H151       -4.3221  -20.9936  -43.7753 H         1 UNK         0.0600 
    152 H152       -4.3353  -19.7662  -42.5202 H         1 UNK         0.0600 
    153 H153       -3.5908  -21.3360  -42.2152 H         1 UNK         0.0600 
    154 H154       -1.5138  -18.2678  -42.7069 H         1 UNK         0.3000 
    155 H155       -0.5986  -18.7969  -39.4430 H         1 UNK         0.0600 
    156 H156        1.3522  -20.0881  -40.3176 H         1 UNK         0.0600 
    157 H157        1.7938  -18.4153  -40.0156 H         1 UNK         0.0600 
    158 H158        1.5087  -18.9680  -41.6656 H         1 UNK         0.0600 
    159 H159        0.2676  -16.8712  -41.4088 H         1 UNK         0.3000 
    160 H160       -2.6534  -14.7948  -41.1548 H         1 UNK         0.0600 
    161 H161        0.2795  -14.4291  -40.3427 H         1 UNK         0.0600 
    162 H162       -1.1120  -14.1416  -39.3053 H         1 UNK         0.0600 
    163 H163       -0.8557  -13.1364  -40.7242 H         1 UNK         0.0600 
    164 H164       -0.3596  -14.4958  -42.7700 H         1 UNK         0.3000 
    165 H165       -1.5259  -16.3164  -45.6347 H         1 UNK         0.0600 
    166 H166       -0.9109  -14.0519  -46.5605 H         1 UNK         0.0600 
    167 H167       -2.4801  -14.0601  -45.7752 H         1 UNK         0.0600 
    168 H168       -1.0953  -13.3563  -44.9564 H         1 UNK         0.0600 
    169 H169        0.9198  -14.9322  -44.9234 H         1 UNK         0.3000 
    170 H170        2.6835  -17.7770  -43.7888 H         1 UNK         0.0600 
    171 H171        2.8577  -18.0478  -46.2630 H         1 UNK         0.0600 
    172 H172        2.9947  -16.3074  -46.4566 H         1 UNK         0.0600 
    173 H173        4.2556  -17.2026  -45.6137 H         1 UNK         0.0600 
    174 H174        3.3399  -15.0125  -44.3840 H         1 UNK         0.3000 
    175 H175        2.5697  -13.7881  -41.1101 H         1 UNK         0.0600 
    176 H176        5.3067  -14.3827  -42.3599 H         1 UNK         0.0600 
    177 H177        4.9799  -13.2152  -41.0785 H         1 UNK         0.0600 
    178 H178        4.7703  -14.9325  -40.7765 H         1 UNK         0.0600 
    179 H179        3.9015  -12.5606  -43.2922 H         1 UNK         0.3000 
    180 H180        1.1935  -11.7821  -45.3586 H         1 UNK         0.0600 
    181 H181        2.4726   -9.8068  -43.3932 H         1 UNK         0.0600 
    182 H182        0.7448  -10.0867  -43.5739 H         1 UNK         0.0600 
    183 H183        1.6583   -9.3920  -44.9026 H         1 UNK         0.0600 
    184 H184        3.7602  -10.6564  -45.3693 H         1 UNK         0.3000 
    185 H185        5.2449  -11.2950  -46.9425 H         1 UNK         0.0600 
    186 H186        6.1718  -13.8716  -45.5490 H         1 UNK         0.0600 
    187 H187        7.2286  -12.6598  -46.2736 H         1 UNK         0.0600 
    188 H188        6.2555  -12.2503  -44.8705 H         1 UNK         0.0600 
    189 H189        5.5910  -14.0366  -47.9137 H         1 UNK         0.3000 
    190 H190       -2.4535  -21.1399  -47.0229 H         1 UNK         0.3000 
    191 H191       -3.8981  -22.7069  -48.9314 H         1 UNK         0.0600 
    192 H192       -5.5556  -22.9274  -47.0855 H         1 UNK         0.0600 
    193 H193       -5.0281  -21.2599  -47.2596 H         1 UNK         0.0600 
    194 H194       -4.4015  -22.2527  -45.9424 H         1 UNK         0.0600 
    195 H195       -1.9193  -23.5353  -46.0793 H         1 UNK         0.3000 
    196 H196       -2.4394  -26.3315  -46.0638 H         1 UNK         0.0600 
    197 H197       -0.4103  -26.4617  -44.6606 H         1 UNK         0.0600 
    198 H198       -1.3885  -25.0871  -44.1664 H         1 UNK         0.0600 
    199 H199        0.0664  -24.8371  -45.1293 H         1 UNK         0.0600 
    200 H200        0.1309  -24.4173  -47.7106 H         1 UNK         0.3000 
    201 H201        1.4348  -26.6180  -48.9570 H         1 UNK         0.0600 
    202 H202        2.5250  -24.4254  -48.6396 H         1 UNK         0.0600 
    203 H203        1.3605  -23.6482  -49.7096 H         1 UNK         0.0600 
    204 H204        2.4990  -24.8287  -50.3495 H         1 UNK         0.0600 
    205 H205       -1.1609  -24.4242  -50.1237 H         1 UNK         0.3000 
    206 H206       -1.4101  -25.6360  -52.7217 H         1 UNK         0.0600 
    207 H207       -2.1055  -23.3095  -52.2618 H         1 UNK         0.0600 
    208 H208       -3.4930  -24.2377  -52.8134 H         1 UNK         0.0600 
    209 H209       -3.3131  -23.8628  -51.1042 H         1 UNK         0.0600 
    210 H210       -2.5689  -26.5450  -49.6050 H         1 UNK         0.3000 
    211 H211       -3.7534  -28.1637  -48.7397 H         1 UNK         0.0600 
    212 H212       -3.8906  -29.5258  -51.4793 H         1 UNK         0.0600 
    213 H213       -4.1753  -30.2736  -49.9153 H         1 UNK         0.0600 
    214 H214       -2.5666  -29.7042  -50.3275 H         1 UNK         0.0600 
    215 H215       -4.9914  -25.7571  -49.8863 H         1 UNK         0.3000 
    216 H216       -7.6999  -26.2229  -49.2746 H         1 UNK         0.0600 
    217 H217       -8.6792  -25.6261  -51.5394 H         1 UNK         0.0600 
    218 H218       -7.8777  -27.1840  -51.5920 H         1 UNK         0.0600 
    219 H219       -7.0813  -25.7610  -52.2612 H         1 UNK         0.0600 
    220 H220       -8.7519  -24.1928  -49.0111 H         1 UNK         0.3000 
    221 H221       -7.0624  -21.8314  -48.8530 H         1 UNK         0.0600 
    222 H222      -10.0741  -22.2037  -48.4253 H         1 UNK         0.0600 
    223 H223       -8.8327  -22.2730  -47.1734 H         1 UNK         0.0600 
    224 H224       -9.1490  -20.7643  -48.0148 H         1 UNK         0.0600 
    225 H225       -9.3149  -23.1732  -51.1847 H         1 UNK         0.3000 
    226 H226       -9.7974  -20.8074  -52.7482 H         1 UNK         0.0600 
    227 H227      -10.0197  -23.7869  -53.4447 H         1 UNK         0.0600 
    228 H228      -11.3155  -22.7642  -52.8236 H         1 UNK         0.0600 
    229 H229      -10.6460  -22.4630  -54.4198 H         1 UNK         0.0600 
    230 H230       -8.3773  -19.7894  -53.9844 H         1 UNK         0.3000 
    231 H231       -6.6550  -19.1817  -55.2123 H         1 UNK         0.0600 
    232 H232       -6.5030  -22.0661  -56.2283 H         1 UNK         0.0600 
    233 H233       -5.8576  -20.6371  -57.0215 H         1 UNK         0.0600 
    234 H234       -7.5938  -20.8293  -56.8526 H         1 UNK         0.0600 
    235 H235       -6.1309  -20.0534  -52.4779 H         1 UNK         0.3000 
    236 H236       -3.7509  -21.4627  -52.1515 H         1 UNK         0.0600 
    237 H237       -5.2359  -21.0211  -50.2863 H         1 UNK         0.0600 
    238 H238       -3.6944  -20.2828  -49.9018 H         1 UNK         0.0600 
    239 H239       -5.0354  -19.2769  -50.4404 H         1 UNK         0.0600 
    240 H240       -4.1189  -18.1465  -53.1879 H         1 UNK         0.3000 
    241 H241       -1.4002  -17.3126  -52.7486 H         1 UNK         0.0600 
    242 H242       -1.2905  -19.4462  -56.2000 H         1 UNK         0.3800 
    243 H243       -2.6638  -19.5707  -55.1316 H         1 UNK         0.3800 
    244 H244       -3.2140  -16.0632  -54.8519 H         1 UNK         0.0800 
    245 H245       -3.5905  -15.8587  -53.1758 H         1 UNK         0.0800 
    246 H246       -1.6917  -12.8368  -52.2143 H         1 UNK         0.0800 
    247 H247       -3.1728  -13.7499  -52.1754 H         1 UNK         0.0800 
@<TRIPOS>BOND
     1    1    2 1    
     2    1  127 1    
     3    1  128 1    
     4    1  129 1    
     5    2    3 2    
     6    2    4 am   BACKBONE|DICT|INTERRES
     7    4    5 1    
     8    4  130 1    
     9    5    6 1    
    10    5   65 1    
    11    5  131 1    
    12    6    7 1    
    13    6  132 1    
    14    6  133 1    
    15    7    8 1    
    16    8    9 1    
    17    8  134 1    
    18    8  135 1    
    19    9   10 ar   
    20    9   14 ar   
    21   10   11 ar   
    22   10  136 1    
    23   11   12 ar   
    24   11  126 1    
    25   12   13 ar   
    26   12  137 1    
    27   13   14 ar   
    28   13   15 1    
    29   14  138 1    
    30   15   16 1    
    31   15  139 1    
    32   15  140 1    
    33   16   17 1    
    34   17   18 1    
    35   17  141 1    
    36   17  142 1    
    37   18   19 1    
    38   18   67 1    
    39   18  143 1    
    40   19   20 am   BACKBONE|DICT|INTERRES
    41   19  144 1    
    42   20   21 2    
    43   20   22 1    
    44   22   23 1    
    45   22   24 1    
    46   22  145 1    
    47   23  146 1    
    48   23  147 1    
    49   23  148 1    
    50   24   25 am   BACKBONE|DICT|INTERRES
    51   24  149 1    
    52   25   26 2    
    53   25   27 1    
    54   27   28 1    
    55   27   29 1    
    56   27  150 1    
    57   28  151 1    
    58   28  152 1    
    59   28  153 1    
    60   29   30 am   BACKBONE|DICT|INTERRES
    61   29  154 1    
    62   30   31 2    
    63   30   32 1    
    64   32   33 1    
    65   32   34 1    
    66   32  155 1    
    67   33  156 1    
    68   33  157 1    
    69   33  158 1    
    70   34   35 am   BACKBONE|DICT|INTERRES
    71   34  159 1    
    72   35   36 2    
    73   35   37 1    
    74   37   38 1    
    75   37   39 1    
    76   37  160 1    
    77   38  161 1    
    78   38  162 1    
    79   38  163 1    
    80   39   40 am   BACKBONE|DICT|INTERRES
    81   39  164 1    
    82   40   41 2    
    83   40   42 1    
    84   42   43 1    
    85   42   44 1    
    86   42  165 1    
    87   43  166 1    
    88   43  167 1    
    89   43  168 1    
    90   44   45 am   BACKBONE|DICT|INTERRES
    91   44  169 1    
    92   45   46 2    
    93   45   47 1    
    94   47   48 1    
    95   47   49 1    
    96   47  170 1    
    97   48  171 1    
    98   48  172 1    
    99   48  173 1    
   100   49   50 am   BACKBONE|DICT|INTERRES
   101   49  174 1    
   102   50   51 2    
   103   50   52 1    
   104   52   53 1    
   105   52   54 1    
   106   52  175 1    
   107   53  176 1    
   108   53  177 1    
   109   53  178 1    
   110   54   55 am   BACKBONE|DICT|INTERRES
   111   54  179 1    
   112   55   56 2    
   113   55   57 1    
   114   57   58 1    
   115   57   59 1    
   116   57  180 1    
   117   58  181 1    
   118   58  182 1    
   119   58  183 1    
   120   59   60 am   BACKBONE|DICT|INTERRES
   121   59  184 1    
   122   60   61 2    
   123   60   62 1    
   124   62   63 1    
   125   62   64 1    
   126   62  185 1    
   127   63  186 1    
   128   63  187 1    
   129   63  188 1    
   130   64   65 am   BACKBONE|DICT|INTERRES
   131   64  189 1    
   132   65   66 2    
   133   67   68 2    
   134   67   69 am   BACKBONE|DICT|INTERRES
   135   69   70 1    
   136   69  190 1    
   137   70   71 1    
   138   70   72 1    
   139   70  191 1    
   140   71  192 1    
   141   71  193 1    
   142   71  194 1    
   143   72   73 2    
   144   72   74 am   BACKBONE|DICT|INTERRES
   145   74   75 1    
   146   74  195 1    
   147   75   76 1    
   148   75   77 1    
   149   75  196 1    
   150   76  197 1    
   151   76  198 1    
   152   76  199 1    
   153   77   78 2    
   154   77   79 am   BACKBONE|DICT|INTERRES
   155   79   80 1    
   156   79  200 1    
   157   80   81 1    
   158   80   82 1    
   159   80  201 1    
   160   81  202 1    
   161   81  203 1    
   162   81  204 1    
   163   82   83 2    
   164   82   84 am   BACKBONE|DICT|INTERRES
   165   84   85 1    
   166   84  205 1    
   167   85   86 1    
   168   85   87 1    
   169   85  206 1    
   170   86  207 1    
   171   86  208 1    
   172   86  209 1    
   173   87   88 2    
   174   87   89 am   BACKBONE|DICT|INTERRES
   175   89   90 1    
   176   89  210 1    
   177   90   91 1    
   178   90   92 1    
   179   90  211 1    
   180   91  212 1    
   181   91  213 1    
   182   91  214 1    
   183   92   93 2    
   184   92   94 am   BACKBONE|DICT|INTERRES
   185   94   95 1    
   186   94  215 1    
   187   95   96 1    
   188   95   97 1    
   189   95  216 1    
   190   96  217 1    
   191   96  218 1    
   192   96  219 1    
   193   97   98 2    
   194   97   99 am   BACKBONE|DICT|INTERRES
   195   99  100 1    
   196   99  220 1    
   197  100  101 1    
   198  100  102 1    
   199  100  221 1    
   200  101  222 1    
   201  101  223 1    
   202  101  224 1    
   203  102  103 2    
   204  102  104 am   BACKBONE|DICT|INTERRES
   205  104  105 1    
   206  104  225 1    
   207  105  106 1    
   208  105  107 1    
   209  105  226 1    
   210  106  227 1    
   211  106  228 1    
   212  106  229 1    
   213  107  108 2    
   214  107  109 am   BACKBONE|DICT|INTERRES
   215  109  110 1    
   216  109  230 1    
   217  110  111 1    
   218  110  112 1    
   219  110  231 1    
   220  111  232 1    
   221  111  233 1    
   222  111  234 1    
   223  112  113 2    
   224  112  114 am   BACKBONE|DICT|INTERRES
   225  114  115 1    
   226  114  235 1    
   227  115  116 1    
   228  115  117 1    
   229  115  236 1    
   230  116  237 1    
   231  116  238 1    
   232  116  239 1    
   233  117  118 2    
   234  117  119 am   BACKBONE|DICT|INTERRES
   235  119  120 1    
   236  119  240 1    
   237  120  121 1    
   238  120  124 1    
   239  120  241 1    
   240  121  122 am   BACKBONE|DICT|INTERRES
   241  121  123 2    
   242  122  242 1    
   243  122  243 1    
   244  124  125 1    
   245  124  244 1    
   246  124  245 1    
   247  125  126 1    
   248  126  246 1    
   249  126  247 1    
@<TRIPOS>SUBSTRUCTURE
     1 UNK         1 GROUP             0       ****    0 ROOT    
