@<TRIPOS>MOLECULE
3R540
247   249    1
SMALL
USER_CHARGES


@<TRIPOS>ATOM
      1 CA         -5.3124  -14.4434  -50.6751 C.3       0 UNK        -0.1800 
      2 C          -3.9414  -13.8041  -50.5122 C.2       0 UNK         0.5000 
      3 O          -3.8259  -12.5857  -50.6407 O.2       0 UNK        -0.5000 
      4 N          -2.9064  -14.6157  -50.2506 N.am      1 UNK        -0.5000 
      5 CA         -1.5025  -14.1901  -50.1497 C.3       1 UNK         0.1400 
      6 C6         -0.5333  -15.3913  -50.0135 C.3       23 UNK        -0.0398 
      7 S7         -0.4866  -16.3678  -51.5525 S.3       23 UNK        -0.2404 
      8 C8          1.2958  -16.4436  -51.9105 C.3       23 UNK        -0.0205 
      9 C9          1.9560  -17.6754  -51.3048 C.ar      23 UNK        -0.0193 
     10 C10         1.9297  -18.8826  -52.0080 C.ar      23 UNK        -0.1150 
     11 C11         2.6020  -20.0040  -51.5185 C.ar      23 UNK        -0.0193 
     12 C12         3.2985  -19.9162  -50.3114 C.ar      23 UNK        -0.1150 
     13 C13         3.3229  -18.7214  -49.5829 C.ar      23 UNK        -0.0193 
     14 C14         2.6426  -17.6041  -50.0862 C.ar      23 UNK        -0.1150 
     15 C15         4.1538  -18.6025  -48.3049 C.3       23 UNK        -0.0205 
     16 S16         4.0882  -20.0729  -47.2180 S.3       23 UNK        -0.2404 
     17 C17         2.5244  -19.8023  -46.3271 C.3       23 UNK        -0.0398 
     18 CA          1.3135  -20.4865  -47.0020 C.3       11 UNK         0.1400 
     19 N           1.4389  -21.9449  -47.0979 N.am      11 UNK        -0.5000 
     20 C           0.6009  -22.7415  -47.7795 C.2       10 UNK         0.5000 
     21 O          -0.3739  -22.3361  -48.4100 O.2       10 UNK        -0.5000 
     22 CA          0.8536  -24.2565  -47.6791 C.3       10 UNK         0.1400 
     23 CB          2.0701  -24.6715  -48.5207 C.3       10 UNK        -0.1800 
     24 N           1.0550  -24.6895  -46.2975 N.am      10 UNK        -0.5000 
     25 C           0.1433  -24.5905  -45.3188 C.2       9 UNK         0.5000 
     26 O          -1.0111  -24.2002  -45.4915 O.2       9 UNK        -0.5000 
     27 CA          0.6271  -24.9348  -43.8957 C.3       9 UNK         0.1400 
     28 CB          0.4139  -26.4264  -43.5990 C.3       9 UNK        -0.1800 
     29 N           2.0342  -24.5880  -43.6613 N.am      9 UNK        -0.5000 
     30 C           2.5347  -23.3483  -43.7526 C.2       8 UNK         0.5000 
     31 O           1.8552  -22.3626  -44.0451 O.2       8 UNK        -0.5000 
     32 CA          4.0569  -23.2092  -43.5679 C.3       8 UNK         0.1400 
     33 CB          4.7798  -23.5552  -44.8799 C.3       8 UNK        -0.1800 
     34 N           4.4428  -21.8560  -43.1705 N.am      8 UNK        -0.5000 
     35 C           4.1829  -21.3030  -41.9793 C.2       7 UNK         0.5000 
     36 O           3.6602  -21.9151  -41.0445 O.2       7 UNK        -0.5000 
     37 CA          4.5996  -19.8297  -41.7712 C.3       7 UNK         0.1400 
     38 CB          5.1458  -19.1299  -43.0387 C.3       7 UNK        -0.1800 
     39 N           3.5203  -19.0426  -41.1660 N.am      7 UNK        -0.5000 
     40 C           2.3084  -18.8071  -41.6898 C.2       6 UNK         0.5000 
     41 O           1.9507  -19.2115  -42.7980 O.2       6 UNK        -0.5000 
     42 CA          1.3138  -17.9839  -40.8398 C.3       6 UNK         0.1400 
     43 CB          1.9446  -17.2480  -39.6356 C.3       6 UNK        -0.1800 
     44 N           0.5506  -17.0642  -41.6858 N.am      6 UNK        -0.5000 
     45 C           1.0284  -16.0635  -42.4350 C.2       5 UNK         0.5000 
     46 O           2.1770  -15.6272  -42.3476 O.2       5 UNK        -0.5000 
     47 CA          0.0858  -15.4630  -43.4977 C.3       5 UNK         0.1400 
     48 CB          0.1824  -16.2868  -44.7955 C.3       5 UNK        -0.1800 
     49 N          -1.3186  -15.2560  -43.1045 N.am      5 UNK        -0.5000 
     50 C          -2.2489  -16.1483  -42.7219 C.2       4 UNK         0.5000 
     51 O          -2.0341  -17.3520  -42.5848 O.2       4 UNK        -0.5000 
     52 CA         -3.6711  -15.6164  -42.4731 C.3       4 UNK         0.1400 
     53 CB         -3.8281  -15.1449  -41.0194 C.3       4 UNK        -0.1800 
     54 N          -3.9870  -14.5138  -43.3797 N.am      4 UNK        -0.5000 
     55 C          -5.0596  -14.4162  -44.1686 C.2       3 UNK         0.5000 
     56 O          -5.9903  -15.2222  -44.1616 O.2       3 UNK        -0.5000 
     57 CA         -5.0951  -13.2201  -45.1453 C.3       3 UNK         0.1400 
     58 CB         -5.4788  -11.9229  -44.4078 C.3       3 UNK        -0.1800 
     59 N          -3.8840  -13.0229  -45.9652 N.am      3 UNK        -0.5000 
     60 C          -2.6367  -12.7151  -45.5734 C.2       2 UNK         0.5000 
     61 O          -2.2961  -12.6320  -44.3909 O.2       2 UNK        -0.5000 
     62 CA         -1.5943  -12.4720  -46.6825 C.3       2 UNK         0.1400 
     63 CB         -0.1402  -12.5780  -46.1672 C.3       2 UNK        -0.1800 
     64 N          -1.8017  -13.3483  -47.8420 N.am      2 UNK        -0.5000 
     65 C          -1.2406  -13.1444  -49.0435 C.2       1 UNK         0.5000 
     66 O          -0.5326  -12.1711  -49.3065 O.2       1 UNK        -0.5000 
     67 C           0.0202  -20.0752  -46.2792 C.2       11 UNK         0.5000 
     68 O          -0.6617  -19.1658  -46.7452 O.2       11 UNK        -0.5000 
     69 N          -0.3082  -20.7652  -45.1785 N.am      12 UNK        -0.5000 
     70 CA         -1.5187  -20.5350  -44.3903 C.3       12 UNK         0.1400 
     71 CB         -1.4575  -21.3722  -43.1052 C.3       12 UNK        -0.1800 
     72 C          -2.8157  -20.8150  -45.1749 C.2       12 UNK         0.5000 
     73 O          -3.7940  -20.0885  -45.0033 O.2       12 UNK        -0.5000 
     74 N          -2.7981  -21.8370  -46.0425 N.am      13 UNK        -0.5000 
     75 CA         -3.8845  -22.1389  -46.9743 C.3       13 UNK         0.1400 
     76 CB         -3.7208  -23.5667  -47.5123 C.3       13 UNK        -0.1800 
     77 C          -3.9505  -21.1133  -48.1204 C.2       13 UNK         0.5000 
     78 O          -5.0232  -20.5727  -48.3975 O.2       13 UNK        -0.5000 
     79 N          -2.7923  -20.8167  -48.7287 N.am      14 UNK        -0.5000 
     80 CA         -2.6095  -19.8183  -49.7868 C.3       14 UNK         0.1400 
     81 CB         -1.1481  -19.8382  -50.2430 C.3       14 UNK        -0.1800 
     82 C          -3.0225  -18.3910  -49.3832 C.2       14 UNK         0.5000 
     83 O          -3.4119  -17.6018  -50.2453 O.2       14 UNK        -0.5000 
     84 N          -2.9757  -18.0956  -48.0792 N.am      15 UNK        -0.5000 
     85 CA         -3.4512  -16.8633  -47.4585 C.3       15 UNK         0.1400 
     86 CB         -3.1454  -16.9017  -45.9596 C.3       15 UNK        -0.1800 
     87 C          -4.9491  -16.5897  -47.6775 C.2       15 UNK         0.5000 
     88 O          -5.3386  -15.4233  -47.6778 O.2       15 UNK        -0.5000 
     89 N          -5.7404  -17.6521  -47.8717 N.am      16 UNK        -0.5000 
     90 CA         -7.1583  -17.5842  -48.2113 C.3       16 UNK         0.1400 
     91 CB         -7.9427  -18.5087  -47.2673 C.3       16 UNK        -0.1800 
     92 C          -7.3951  -17.9860  -49.6766 C.2       16 UNK         0.5000 
     93 O          -8.2146  -17.3593  -50.3483 O.2       16 UNK        -0.5000 
     94 N          -6.6876  -19.0239  -50.1472 N.am      17 UNK        -0.5000 
     95 CA         -6.8708  -19.6182  -51.4738 C.3       17 UNK         0.1400 
     96 CB         -6.2958  -21.0437  -51.4632 C.3       17 UNK        -0.1800 
     97 C          -6.2863  -18.7935  -52.6395 C.2       17 UNK         0.5000 
     98 O          -6.6780  -19.0377  -53.7812 O.2       17 UNK        -0.5000 
     99 N          -5.3847  -17.8434  -52.3407 N.am      18 UNK        -0.5000 
    100 CA        -4.6293  -17.0013  -53.2776 C.3       18 UNK         0.1400 
    101 CB        -5.5672  -16.1095  -54.1199 C.3       18 UNK        -0.1800 
    102 C         -3.6768  -17.8620  -54.1275 C.2       18 UNK         0.5000 
    103 O         -3.8726  -18.0057  -55.3361 O.2       18 UNK        -0.5000 
    104 N         -2.6911  -18.4596  -53.4426 N.am      19 UNK        -0.5000 
    105 CA        -1.8272  -19.5454  -53.9195 C.3       19 UNK         0.1400 
    106 CB        -0.9501  -19.1058  -55.1129 C.3       19 UNK        -0.1800 
    107 C         -2.6606  -20.8219  -54.1566 C.2       19 UNK         0.5000 
    108 O         -3.5669  -21.0877  -53.3646 O.2       19 UNK        -0.5000 
    109 N         -2.3343  -21.5992  -55.2003 N.am      20 UNK        -0.5000 
    110 CA        -2.9885  -22.8309  -55.6759 C.3       20 UNK         0.1400 
    111 CB        -4.4487  -22.5632  -56.0885 C.3       20 UNK        -0.1800 
    112 C         -2.8982  -24.0331  -54.7129 C.2       20 UNK         0.5000 
    113 O         -2.5175  -25.1252  -55.1379 O.2       20 UNK        -0.5000 
    114 N         -3.2037  -23.8073  -53.4294 N.am      21 UNK        -0.5000 
    115 CA        -3.1547  -24.7731  -52.3278 C.3       21 UNK         0.1400 
    116 CB        -3.7031  -24.0986  -51.0619 C.3       21 UNK        -0.1800 
    117 C         -1.7496  -25.3502  -52.0624 C.2       21 UNK         0.5000 
    118 O         -1.6334  -26.4253  -51.4732 O.2       21 UNK        -0.5000 
    119 N         -0.7173  -24.6355  -52.5230 N.am      22 UNK        -0.5000 
    120 CA         0.6885  -25.0598  -52.5300 C.3       22 UNK         0.1400 
    121 C          1.0016  -26.2291  -53.5117 C.2       22 UNK         0.5000 
    122 N          0.1304  -26.5633  -54.4584 N.am      22 UNK        -0.7600 
    123 O          2.0582  -26.8461  -53.4103 O.2       22 UNK        -0.5000 
    124 C124        1.6374  -23.8654  -52.8052 C.3       23 UNK        -0.0398 
    125 S125        1.3499  -22.4494  -51.6937 S.3       23 UNK        -0.2404 
    126 C126        2.6107  -21.3005  -52.3093 C.3       23 UNK        -0.0205 
    127 H127       -5.7208  -14.2041  -51.6557 H         1 UNK         0.0600 
    128 H128       -5.9985  -14.0567  -49.9219 H         1 UNK         0.0600 
    129 H129       -5.2734  -15.5273  -50.5737 H         1 UNK         0.0600 
    130 H130       -3.0616  -15.6185  -50.2184 H         1 UNK         0.3000 
    131 H131       -1.2686  -13.6873  -51.0911 H         1 UNK         0.0600 
    132 H132        0.4759  -15.0493  -49.7784 H         1 UNK         0.0800 
    133 H133       -0.8258  -16.0452  -49.1910 H         1 UNK         0.0800 
    134 H134        1.4223  -16.4688  -52.9940 H         1 UNK         0.0800 
    135 H135        1.7967  -15.5327  -51.5802 H         1 UNK         0.0800 
    136 H136        1.4032  -18.9416  -52.9500 H         1 UNK         0.1150 
    137 H137        3.8348  -20.7815  -49.9485 H         1 UNK         0.1150 
    138 H138        2.6772  -16.6671  -49.5486 H         1 UNK         0.1150 
    139 H139        5.1924  -18.4470  -48.5988 H         1 UNK         0.0800 
    140 H140        3.8660  -17.7171  -47.7362 H         1 UNK         0.0800 
    141 H141        2.3570  -18.7278  -46.2309 H         1 UNK         0.0800 
    142 H142        2.6512  -20.1724  -45.3088 H         1 UNK         0.0800 
    143 H143        1.2490  -20.1056  -48.0220 H         1 UNK         0.0600 
    144 H144        2.1786  -22.3623  -46.5547 H         1 UNK         0.3000 
    145 H145       -0.0271  -24.7700  -48.0710 H         1 UNK         0.0600 
    146 H146        2.2056  -25.7531  -48.5114 H         1 UNK         0.0600 
    147 H147        1.9451  -24.3717  -49.5602 H         1 UNK         0.0600 
    148 H148        2.9910  -24.2137  -48.1575 H         1 UNK         0.0600 
    149 H149        1.9743  -25.0280  -46.0571 H         1 UNK         0.3000 
    150 H150        0.0227  -24.3577  -43.1934 H         1 UNK         0.0600 
    151 H151        1.0183  -27.0580  -44.2512 H         1 UNK         0.0600 
    152 H152       -0.6300  -26.7076  -43.7451 H         1 UNK         0.0600 
    153 H153        0.6713  -26.6645  -42.5668 H         1 UNK         0.0600 
    154 H154        2.6524  -25.3519  -43.4282 H         1 UNK         0.3000 
    155 H155        4.3803  -23.9041  -42.7902 H         1 UNK         0.0600 
    156 H156        4.4893  -22.8846  -45.6898 H         1 UNK         0.0600 
    157 H157        4.5538  -24.5732  -45.1995 H         1 UNK         0.0600 
    158 H158        5.8616  -23.4882  -44.7631 H         1 UNK         0.0600 
    159 H159        4.8428  -21.2740  -43.8909 H         1 UNK         0.3000 
    160 H160        5.4073  -19.8496  -41.0383 H         1 UNK         0.0600 
    161 H161        4.4149  -19.1084  -43.8475 H         1 UNK         0.0600 
    162 H162        6.0417  -19.6277  -43.4116 H         1 UNK         0.0600 
    163 H163        5.4239  -18.0984  -42.8225 H         1 UNK         0.0600 
    164 H164        3.7093  -18.6893  -40.2391 H         1 UNK         0.3000 
    165 H165        0.5901  -18.6992  -40.4469 H         1 UNK         0.0600 
    166 H166        1.1998  -16.6469  -39.1137 H         1 UNK         0.0600 
    167 H167        2.3476  -17.9539  -38.9088 H         1 UNK         0.0600 
    168 H168        2.7538  -16.5821  -39.9369 H         1 UNK         0.0600 
    169 H169       -0.4029  -17.3542  -41.8966 H         1 UNK         0.3000 
    170 H170        0.4699  -14.4651  -43.7133 H         1 UNK         0.0600 
    171 H171        1.2108  -16.3269  -45.1562 H         1 UNK         0.0600 
    172 H172       -0.1420  -17.3161  -44.6409 H         1 UNK         0.0600 
    173 H173       -0.4220  -15.8557  -45.5921 H         1 UNK         0.0600 
    174 H174       -1.6061  -14.2876  -43.1601 H         1 UNK         0.3000 
    175 H175       -4.3573  -16.4488  -42.6436 H         1 UNK         0.0600 
    176 H176       -3.1673  -14.3070  -40.7937 H         1 UNK         0.0600 
    177 H177       -4.8514  -14.8274  -40.8189 H         1 UNK         0.0600 
    178 H178       -3.5934  -15.9485  -40.3201 H         1 UNK         0.0600 
    179 H179       -3.2783  -13.7949  -43.5075 H         1 UNK         0.3000 
    180 H180       -5.8951  -13.4310  -45.8569 H         1 UNK         0.0600 
    181 H181       -6.4207  -12.0444  -43.8714 H         1 UNK         0.0600 
    182 H182       -5.6081  -11.0967  -45.1069 H         1 UNK         0.0600 
    183 H183       -4.7247  -11.6286  -43.6774 H         1 UNK         0.0600 
    184 H184       -4.0573  -13.0760  -46.9592 H         1 UNK         0.3000 
    185 H185       -1.7576  -11.4419  -47.0057 H         1 UNK         0.0600 
    186 H186        0.5762  -12.2231  -46.9072 H         1 UNK         0.0600 
    187 H187        0.0166  -11.9734  -45.2731 H         1 UNK         0.0600 
    188 H188        0.1226  -13.6052  -45.9244 H         1 UNK         0.0600 
    189 H189       -2.3884  -14.1559  -47.7003 H         1 UNK         0.3000 
    190 H190        0.3485  -21.4562  -44.8248 H         1 UNK         0.3000 
    191 H191       -1.5260  -19.4810  -44.1078 H         1 UNK         0.0600 
    192 H192       -0.5550  -21.1508  -42.5343 H         1 UNK         0.0600 
    193 H193       -2.3119  -21.1589  -42.4620 H         1 UNK         0.0600 
    194 H194       -1.4660  -22.4403  -43.3216 H         1 UNK         0.0600 
    195 H195       -1.9756  -22.4286  -46.0881 H         1 UNK         0.3000 
    196 H196       -4.8298  -22.0927  -46.4295 H         1 UNK         0.0600 
    197 H197       -4.5472  -23.8263  -48.1745 H         1 UNK         0.0600 
    198 H198       -3.7147  -24.2941  -46.7003 H         1 UNK         0.0600 
    199 H199       -2.7922  -23.6864  -48.0716 H         1 UNK         0.0600 
    200 H200       -1.9531  -21.3236  -48.4546 H         1 UNK         0.3000 
    201 H201       -3.2318  -20.1092  -50.6334 H         1 UNK         0.0600 
    202 H202       -0.4672  -19.6209  -49.4227 H         1 UNK         0.0600 
    203 H203       -0.9619  -19.0919  -51.0097 H         1 UNK         0.0600 
    204 H204       -0.8795  -20.8085  -50.6582 H         1 UNK         0.0600 
    205 H205       -2.5284  -18.7664  -47.4631 H         1 UNK         0.3000 
    206 H206       -2.8843  -16.0460  -47.9004 H         1 UNK         0.0600 
    207 H207       -2.2116  -17.4128  -45.7431 H         1 UNK         0.0600 
    208 H208       -3.0517  -15.8891  -45.5755 H         1 UNK         0.0600 
    209 H209       -3.9277  -17.4052  -45.3898 H         1 UNK         0.0600 
    210 H210       -5.3236  -18.5759  -47.8549 H         1 UNK         0.3000 
    211 H211       -7.5367  -16.5682  -48.0800 H         1 UNK         0.0600 
    212 H212       -7.6082  -19.5442  -47.3447 H         1 UNK         0.0600 
    213 H213       -9.0090  -18.4881  -47.4961 H         1 UNK         0.0600 
    214 H214       -7.8262  -18.1972  -46.2291 H         1 UNK         0.0600 
    215 H215       -6.0623  -19.5220  -49.5191 H         1 UNK         0.3000 
    216 H216       -7.9441  -19.7012  -51.6578 H         1 UNK         0.0600 
    217 H217       -6.4171  -21.5258  -52.4342 H         1 UNK         0.0600 
    218 H218       -6.7998  -21.6672  -50.7248 H         1 UNK         0.0600 
    219 H219       -5.2324  -21.0479  -51.2300 H         1 UNK         0.0600 
    220 H220       -5.0893  -17.7684  -51.3742 H         1 UNK         0.3000 
    221 H221       -4.0061  -16.3404  -52.6737 H         1 UNK         0.0600 
    222 H222       -6.1564  -16.6866  -54.8327 H         1 UNK         0.0600 
    223 H223       -6.2636  -15.5581  -53.4897 H         1 UNK         0.0600 
    224 H224       -4.9929  -15.3798  -54.6914 H         1 UNK         0.0600 
    225 H225       -2.6407  -18.2697  -52.4510 H         1 UNK         0.3000 
    226 H226       -1.1470  -19.7874  -53.1053 H         1 UNK         0.0600 
    227 H227       -0.1737  -19.8422  -55.3229 H         1 UNK         0.0600 
    228 H228       -1.5306  -18.9662  -56.0251 H         1 UNK         0.0600 
    229 H229       -0.4435  -18.1653  -54.8952 H         1 UNK         0.0600 
    230 H230       -1.5547  -21.2964  -55.7672 H         1 UNK         0.3000 
    231 H231       -2.4468  -23.1185  -56.5784 H         1 UNK         0.0600 
    232 H232       -5.0689  -22.2747  -55.2392 H         1 UNK         0.0600 
    233 H233       -4.8974  -23.4535  -56.5308 H         1 UNK         0.0600 
    234 H234       -4.5079  -21.7665  -56.8301 H         1 UNK         0.0600 
    235 H235       -3.4813  -22.8561  -53.1920 H         1 UNK         0.3000 
    236 H236       -3.8081  -25.6078  -52.5885 H         1 UNK         0.0600 
    237 H237       -4.7233  -23.7447  -51.2105 H         1 UNK         0.0600 
    238 H238       -3.7211  -24.8025  -50.2296 H         1 UNK         0.0600 
    239 H239       -3.0918  -23.2456  -50.7625 H         1 UNK         0.0600 
    240 H240       -0.9151  -23.7535  -52.9694 H         1 UNK         0.3000 
    241 H241        0.9115  -25.4371  -51.5305 H         1 UNK         0.0600 
    242 H242       -0.7466  -26.0666  -54.5661 H         1 UNK         0.3800 
    243 H243        0.3485  -27.3239  -55.0825 H         1 UNK         0.3800 
    244 H244        2.6778  -24.1767  -52.6954 H         1 UNK         0.0800 
    245 H245        1.5244  -23.5206  -53.8347 H         1 UNK         0.0800 
    246 H246        3.5943  -21.7678  -52.2406 H         1 UNK         0.0800 
    247 H247        2.4349  -21.1008  -53.3675 H         1 UNK         0.0800 
@<TRIPOS>BOND
     1    1    2 1    
     2    1  127 1    
     3    1  128 1    
     4    1  129 1    
     5    2    3 2    
     6    2    4 am   BACKBONE|DICT|INTERRES
     7    4    5 1    
     8    4  130 1    
     9    5    6 1    
    10    5   65 1    
    11    5  131 1    
    12    6    7 1    
    13    6  132 1    
    14    6  133 1    
    15    7    8 1    
    16    8    9 1    
    17    8  134 1    
    18    8  135 1    
    19    9   10 ar   
    20    9   14 ar   
    21   10   11 ar   
    22   10  136 1    
    23   11   12 ar   
    24   11  126 1    
    25   12   13 ar   
    26   12  137 1    
    27   13   14 ar   
    28   13   15 1    
    29   14  138 1    
    30   15   16 1    
    31   15  139 1    
    32   15  140 1    
    33   16   17 1    
    34   17   18 1    
    35   17  141 1    
    36   17  142 1    
    37   18   19 1    
    38   18   67 1    
    39   18  143 1    
    40   19   20 am   BACKBONE|DICT|INTERRES
    41   19  144 1    
    42   20   21 2    
    43   20   22 1    
    44   22   23 1    
    45   22   24 1    
    46   22  145 1    
    47   23  146 1    
    48   23  147 1    
    49   23  148 1    
    50   24   25 am   BACKBONE|DICT|INTERRES
    51   24  149 1    
    52   25   26 2    
    53   25   27 1    
    54   27   28 1    
    55   27   29 1    
    56   27  150 1    
    57   28  151 1    
    58   28  152 1    
    59   28  153 1    
    60   29   30 am   BACKBONE|DICT|INTERRES
    61   29  154 1    
    62   30   31 2    
    63   30   32 1    
    64   32   33 1    
    65   32   34 1    
    66   32  155 1    
    67   33  156 1    
    68   33  157 1    
    69   33  158 1    
    70   34   35 am   BACKBONE|DICT|INTERRES
    71   34  159 1    
    72   35   36 2    
    73   35   37 1    
    74   37   38 1    
    75   37   39 1    
    76   37  160 1    
    77   38  161 1    
    78   38  162 1    
    79   38  163 1    
    80   39   40 am   BACKBONE|DICT|INTERRES
    81   39  164 1    
    82   40   41 2    
    83   40   42 1    
    84   42   43 1    
    85   42   44 1    
    86   42  165 1    
    87   43  166 1    
    88   43  167 1    
    89   43  168 1    
    90   44   45 am   BACKBONE|DICT|INTERRES
    91   44  169 1    
    92   45   46 2    
    93   45   47 1    
    94   47   48 1    
    95   47   49 1    
    96   47  170 1    
    97   48  171 1    
    98   48  172 1    
    99   48  173 1    
   100   49   50 am   BACKBONE|DICT|INTERRES
   101   49  174 1    
   102   50   51 2    
   103   50   52 1    
   104   52   53 1    
   105   52   54 1    
   106   52  175 1    
   107   53  176 1    
   108   53  177 1    
   109   53  178 1    
   110   54   55 am   BACKBONE|DICT|INTERRES
   111   54  179 1    
   112   55   56 2    
   113   55   57 1    
   114   57   58 1    
   115   57   59 1    
   116   57  180 1    
   117   58  181 1    
   118   58  182 1    
   119   58  183 1    
   120   59   60 am   BACKBONE|DICT|INTERRES
   121   59  184 1    
   122   60   61 2    
   123   60   62 1    
   124   62   63 1    
   125   62   64 1    
   126   62  185 1    
   127   63  186 1    
   128   63  187 1    
   129   63  188 1    
   130   64   65 am   BACKBONE|DICT|INTERRES
   131   64  189 1    
   132   65   66 2    
   133   67   68 2    
   134   67   69 am   BACKBONE|DICT|INTERRES
   135   69   70 1    
   136   69  190 1    
   137   70   71 1    
   138   70   72 1    
   139   70  191 1    
   140   71  192 1    
   141   71  193 1    
   142   71  194 1    
   143   72   73 2    
   144   72   74 am   BACKBONE|DICT|INTERRES
   145   74   75 1    
   146   74  195 1    
   147   75   76 1    
   148   75   77 1    
   149   75  196 1    
   150   76  197 1    
   151   76  198 1    
   152   76  199 1    
   153   77   78 2    
   154   77   79 am   BACKBONE|DICT|INTERRES
   155   79   80 1    
   156   79  200 1    
   157   80   81 1    
   158   80   82 1    
   159   80  201 1    
   160   81  202 1    
   161   81  203 1    
   162   81  204 1    
   163   82   83 2    
   164   82   84 am   BACKBONE|DICT|INTERRES
   165   84   85 1    
   166   84  205 1    
   167   85   86 1    
   168   85   87 1    
   169   85  206 1    
   170   86  207 1    
   171   86  208 1    
   172   86  209 1    
   173   87   88 2    
   174   87   89 am   BACKBONE|DICT|INTERRES
   175   89   90 1    
   176   89  210 1    
   177   90   91 1    
   178   90   92 1    
   179   90  211 1    
   180   91  212 1    
   181   91  213 1    
   182   91  214 1    
   183   92   93 2    
   184   92   94 am   BACKBONE|DICT|INTERRES
   185   94   95 1    
   186   94  215 1    
   187   95   96 1    
   188   95   97 1    
   189   95  216 1    
   190   96  217 1    
   191   96  218 1    
   192   96  219 1    
   193   97   98 2    
   194   97   99 am   BACKBONE|DICT|INTERRES
   195   99  100 1    
   196   99  220 1    
   197  100  101 1    
   198  100  102 1    
   199  100  221 1    
   200  101  222 1    
   201  101  223 1    
   202  101  224 1    
   203  102  103 2    
   204  102  104 am   BACKBONE|DICT|INTERRES
   205  104  105 1    
   206  104  225 1    
   207  105  106 1    
   208  105  107 1    
   209  105  226 1    
   210  106  227 1    
   211  106  228 1    
   212  106  229 1    
   213  107  108 2    
   214  107  109 am   BACKBONE|DICT|INTERRES
   215  109  110 1    
   216  109  230 1    
   217  110  111 1    
   218  110  112 1    
   219  110  231 1    
   220  111  232 1    
   221  111  233 1    
   222  111  234 1    
   223  112  113 2    
   224  112  114 am   BACKBONE|DICT|INTERRES
   225  114  115 1    
   226  114  235 1    
   227  115  116 1    
   228  115  117 1    
   229  115  236 1    
   230  116  237 1    
   231  116  238 1    
   232  116  239 1    
   233  117  118 2    
   234  117  119 am   BACKBONE|DICT|INTERRES
   235  119  120 1    
   236  119  240 1    
   237  120  121 1    
   238  120  124 1    
   239  120  241 1    
   240  121  122 am   BACKBONE|DICT|INTERRES
   241  121  123 2    
   242  122  242 1    
   243  122  243 1    
   244  124  125 1    
   245  124  244 1    
   246  124  245 1    
   247  125  126 1    
   248  126  246 1    
   249  126  247 1    
@<TRIPOS>SUBSTRUCTURE
     1 UNK         1 GROUP             0       ****    0 ROOT    
