@<TRIPOS>MOLECULE
3R540
247   249    1
SMALL
USER_CHARGES


@<TRIPOS>ATOM
      1 CA          1.5550  -17.9357  -43.2393 C.3       0 UNK        -0.1800 
      2 C           0.1087  -17.8406  -43.7053 C.2       0 UNK         0.5000 
      3 O          -0.8039  -17.8462  -42.8804 O.2       0 UNK        -0.5000 
      4 N          -0.0964  -17.7616  -45.0219 N.am      1 UNK        -0.5000 
      5 CA         -1.3910  -17.6226  -45.6837 C.3       1 UNK         0.1400 
      6 C6         -1.3359  -18.2524  -47.0962 C.3       23 UNK        -0.0398 
      7 S7         -2.9711  -18.7675  -47.7175 S.3       23 UNK        -0.2404 
      8 C8         -3.0258  -17.9164  -49.3288 C.3       23 UNK        -0.0205 
      9 C9         -1.9566  -18.4293  -50.2851 C.ar      23 UNK        -0.0193 
     10 C10        -0.9729  -17.5662  -50.7743 C.ar      23 UNK        -0.1150 
     11 C11         0.0214  -18.0271  -51.6435 C.ar      23 UNK        -0.0193 
     12 C12         0.0273  -19.3811  -52.0112 C.ar      23 UNK        -0.1150 
     13 C13        -0.9457  -20.2579  -51.5219 C.ar      23 UNK        -0.0193 
     14 C14        -1.9493  -19.7679  -50.6825 C.ar      23 UNK        -0.1150 
     15 C15        -0.9194  -21.7327  -51.9024 C.3       23 UNK        -0.0205 
     16 S16         0.0702  -22.7254  -50.7325 S.3       23 UNK        -0.2404 
     17 C17        -0.8908  -22.4943  -49.2029 C.3       23 UNK        -0.0398 
     18 CA         -0.7240  -23.6324  -48.1723 C.3       11 UNK         0.1400 
     19 N           0.6412  -23.7749  -47.6564 N.am      11 UNK        -0.5000 
     20 C           1.0625  -24.8250  -46.9340 C.2       10 UNK         0.5000 
     21 O           0.3570  -25.8000  -46.6764 O.2       10 UNK        -0.5000 
     22 CA          2.4900  -24.7576  -46.3577 C.3       10 UNK         0.1400 
     23 CB          3.5204  -25.1845  -47.4135 C.3       10 UNK        -0.1800 
     24 N           2.8355  -23.4291  -45.8513 N.am      10 UNK        -0.5000 
     25 C           2.2292  -22.8218  -44.8206 C.2       9 UNK         0.5000 
     26 O           1.3651  -23.3581  -44.1286 O.2       9 UNK        -0.5000 
     27 CA          2.6062  -21.3484  -44.5554 C.3       9 UNK         0.1400 
     28 CB          3.7040  -21.2527  -43.4867 C.3       9 UNK        -0.1800 
     29 N           3.0328  -20.6203  -45.7561 N.am      9 UNK        -0.5000 
     30 C           2.2809  -20.4591  -46.8536 C.2       8 UNK         0.5000 
     31 O           1.1297  -20.8884  -46.9495 O.2       8 UNK        -0.5000 
     32 CA          2.9564  -19.7462  -48.0406 C.3       8 UNK         0.1400 
     33 CB          1.9936  -19.5051  -49.2181 C.3       8 UNK        -0.1800 
     34 N           3.6390  -18.5033  -47.6638 N.am      8 UNK        -0.5000 
     35 C           3.0654  -17.3953  -47.1764 C.2       7 UNK         0.5000 
     36 O           1.8706  -17.3045  -46.8910 O.2       7 UNK        -0.5000 
     37 CA          3.9775  -16.1729  -47.0099 C.3       7 UNK         0.1400 
     38 CB          4.4813  -15.6815  -48.3843 C.3       7 UNK        -0.1800 
     39 N           3.2324  -15.1084  -46.3410 N.am      7 UNK        -0.5000 
     40 C           3.7657  -14.0012  -45.8160 C.2       6 UNK         0.5000 
     41 O           4.9774  -13.7852  -45.7609 O.2       6 UNK        -0.5000 
     42 CA          2.7885  -12.9396  -45.2845 C.3       6 UNK         0.1400 
     43 CB          2.3153  -12.0248  -46.4250 C.3       6 UNK        -0.1800 
     44 N           1.6172  -13.4833  -44.5986 N.am      6 UNK        -0.5000 
     45 C           1.6359  -14.0111  -43.3675 C.2       5 UNK         0.5000 
     46 O           2.6711  -14.2945  -42.7618 O.2       5 UNK        -0.5000 
     47 CA          0.2585  -14.1664  -42.6816 C.3       5 UNK         0.1400 
     48 CB          0.3611  -14.4741  -41.1737 C.3       5 UNK        -0.1800 
     49 N          -0.6134  -13.0060  -42.9131 N.am      5 UNK        -0.5000 
     50 C          -0.3467  -11.7186  -42.6291 C.2       4 UNK         0.5000 
     51 O           0.6653  -11.3406  -42.0378 O.2       4 UNK        -0.5000 
     52 CA         -1.3564  -10.6586  -43.1143 C.3       4 UNK         0.1400 
     53 CB         -0.8227   -9.9598  -44.3754 C.3       4 UNK        -0.1800 
     54 N          -2.6774  -11.2086  -43.4130 N.am      4 UNK        -0.5000 
     55 C          -3.5915  -11.5474  -42.4945 C.2       3 UNK         0.5000 
     56 O          -3.4479  -11.3661  -41.2849 O.2       3 UNK        -0.5000 
     57 CA         -4.8755  -12.2226  -43.0182 C.3       3 UNK         0.1400 
     58 CB         -5.9924  -11.1838  -43.2021 C.3       3 UNK        -0.1800 
     59 N          -4.6903  -12.9554  -44.2776 N.am      3 UNK        -0.5000 
     60 C          -3.8926  -14.0214  -44.4301 C.2       2 UNK         0.5000 
     61 O          -3.2096  -14.4849  -43.5144 O.2       2 UNK        -0.5000 
     62 CA         -3.8670  -14.6571  -45.8353 C.3       2 UNK         0.1400 
     63 CB         -3.3358  -13.6758  -46.9022 C.3       2 UNK        -0.1800 
     64 N          -3.1379  -15.9306  -45.8689 N.am      2 UNK        -0.5000 
     65 C          -1.8204  -16.1408  -45.7297 C.2       1 UNK         0.5000 
     66 O          -0.9734  -15.2442  -45.6560 O.2       1 UNK        -0.5000 
     67 C          -1.7216  -23.4166  -47.0231 C.2       11 UNK         0.5000 
     68 O          -2.8034  -24.0000  -47.0520 O.2       11 UNK        -0.5000 
     69 N          -1.3365  -22.6065  -46.0270 N.am      12 UNK        -0.5000 
     70 CA         -2.1362  -22.3405  -44.8310 C.3       12 UNK         0.1400 
     71 CB         -1.4674  -21.2390  -43.9987 C.3       12 UNK        -0.1800 
     72 C          -2.3723  -23.6088  -43.9900 C.2       12 UNK         0.5000 
     73 O          -3.5044  -23.8584  -43.5764 O.2       12 UNK        -0.5000 
     74 N          -1.3146  -24.4118  -43.8037 N.am      13 UNK        -0.5000 
     75 CA         -1.3540  -25.7079  -43.1236 C.3       13 UNK         0.1400 
     76 CB          0.0807  -26.2184  -42.9211 C.3       13 UNK        -0.1800 
     77 C          -2.2026  -26.7562  -43.8688 C.2       13 UNK         0.5000 
     78 O          -2.9174  -27.5264  -43.2267 O.2       13 UNK        -0.5000 
     79 N          -2.1281  -26.7522  -45.2068 N.am      14 UNK        -0.5000 
     80 CA         -2.9130  -27.6187  -46.0898 C.3       14 UNK         0.1400 
     81 CB         -2.2328  -27.6625  -47.4677 C.3       14 UNK        -0.1800 
     82 C          -4.3856  -27.1839  -46.2419 C.2       14 UNK         0.5000 
     83 O          -5.1841  -27.9622  -46.7649 O.2       14 UNK        -0.5000 
     84 N          -4.7082  -25.9516  -45.8190 N.am      15 UNK        -0.5000 
     85 CA         -5.9744  -25.2383  -46.0229 C.3       15 UNK         0.1400 
     86 CB         -7.1355  -25.9305  -45.2794 C.3       15 UNK        -0.1800 
     87 C          -6.2656  -24.9875  -47.5196 C.2       15 UNK         0.5000 
     88 O          -7.4148  -25.0578  -47.9576 O.2       15 UNK        -0.5000 
     89 N          -5.2028  -24.6885  -48.2754 N.am      16 UNK        -0.5000 
     90 CA         -5.1925  -24.4663  -49.7192 C.3       16 UNK         0.1400 
     91 CB         -4.0008  -25.2315  -50.3229 C.3       16 UNK        -0.1800 
     92 C          -5.1416  -22.9625  -50.0493 C.2       16 UNK         0.5000 
     93 O          -4.5020  -22.5649  -51.0232 O.2       16 UNK        -0.5000 
     94 N          -5.8243  -22.1380  -49.2426 N.am      17 UNK        -0.5000 
     95 CA         -5.8744  -20.6785  -49.3801 C.3       17 UNK         0.1400 
     96 CB         -6.5965  -20.0817  -48.1637 C.3       17 UNK        -0.1800 
     97 C          -6.5140  -20.1875  -50.6951 C.2       17 UNK         0.5000 
     98 O          -6.2114  -19.0826  -51.1440 O.2       17 UNK        -0.5000 
     99 N          -7.3601  -21.0279  -51.3058 N.am      18 UNK        -0.5000 
    100 CA        -7.9684  -20.8028  -52.6173 C.3       18 UNK         0.1400 
    101 CB        -9.1294  -21.7933  -52.7968 C.3       18 UNK        -0.1800 
    102 C         -6.9723  -20.9236  -53.7905 C.2       18 UNK         0.5000 
    103 O         -7.2686  -20.4277  -54.8777 O.2       18 UNK        -0.5000 
    104 N         -5.8159  -21.5639  -53.5641 N.am      19 UNK        -0.5000 
    105 CA        -4.7612  -21.7837  -54.5565 C.3       19 UNK         0.1400 
    106 CB        -4.1808  -23.1963  -54.3580 C.3       19 UNK        -0.1800 
    107 C         -3.6690  -20.6940  -54.5020 C.2       19 UNK         0.5000 
    108 O         -2.5244  -20.9640  -54.8698 O.2       19 UNK        -0.5000 
    109 N         -4.0288  -19.4893  -54.0357 N.am      20 UNK        -0.5000 
    110 CA        -3.1492  -18.3273  -53.9177 C.3       20 UNK         0.1400 
    111 CB        -3.9135  -17.1771  -53.2460 C.3       20 UNK        -0.1800 
    112 C         -2.5577  -17.8792  -55.2668 C.2       20 UNK         0.5000 
    113 O         -3.2925  -17.7577  -56.2502 O.2       20 UNK        -0.5000 
    114 N         -1.2457  -17.6278  -55.2740 N.am      21 UNK        -0.5000 
    115 CA        -0.4715  -17.1908  -56.4292 C.3       21 UNK         0.1400 
    116 CB        -0.1454  -18.3964  -57.3377 C.3       21 UNK        -0.1800 
    117 C          0.7618  -16.4408  -55.9038 C.2       21 UNK         0.5000 
    118 O          0.6271  -15.2916  -55.4828 O.2       21 UNK        -0.5000 
    119 N          1.9223  -17.1095  -55.8985 N.am      22 UNK        -0.5000 
    120 CA         3.2164  -16.6264  -55.3744 C.3       22 UNK         0.1400 
    121 C          3.8710  -15.4742  -56.1988 C.2       22 UNK         0.5000 
    122 N          3.4427  -15.2133  -57.4279 N.am      22 UNK        -0.7600 
    123 O          4.8041  -14.8238  -55.7350 O.2       22 UNK        -0.5000 
    124 C124        3.1985  -16.3249  -53.8461 C.3       23 UNK        -0.0398 
    125 S125        2.5797  -17.7251  -52.8481 S.3       23 UNK        -0.2404 
    126 C126        1.0354  -17.0162  -52.1793 C.3       23 UNK        -0.0205 
    127 H127        1.6900  -18.8185  -42.6147 H         1 UNK         0.0600 
    128 H128        1.8215  -17.0592  -42.6502 H         1 UNK         0.0600 
    129 H129        2.2473  -18.0048  -44.0788 H         1 UNK         0.0600 
    130 H130        0.7004  -17.6785  -45.6530 H         1 UNK         0.3000 
    131 H131       -2.1282  -18.1673  -45.0899 H         1 UNK         0.0600 
    132 H132       -0.8351  -17.5880  -47.8027 H         1 UNK         0.0800 
    133 H133       -0.7323  -19.1586  -47.0744 H         1 UNK         0.0800 
    134 H134       -2.9246  -16.8420  -49.1667 H         1 UNK         0.0800 
    135 H135       -4.0071  -18.0652  -49.7796 H         1 UNK         0.0800 
    136 H136       -0.9830  -16.5259  -50.4805 H         1 UNK         0.1150 
    137 H137        0.7848  -19.7669  -52.6772 H         1 UNK         0.1150 
    138 H138       -2.7162  -20.4348  -50.3184 H         1 UNK         0.1150 
    139 H139       -1.9355  -22.1272  -51.9495 H         1 UNK         0.0800 
    140 H140       -0.5060  -21.8481  -52.9053 H         1 UNK         0.0800 
    141 H141       -1.9421  -22.4234  -49.4871 H         1 UNK         0.0800 
    142 H142       -0.6253  -21.5287  -48.7696 H         1 UNK         0.0800 
    143 H143       -0.9903  -24.5704  -48.6636 H         1 UNK         0.0600 
    144 H144        1.2465  -22.9738  -47.7704 H         1 UNK         0.3000 
    145 H145        2.5445  -25.4598  -45.5231 H         1 UNK         0.0600 
    146 H146        4.5258  -25.2162  -46.9933 H         1 UNK         0.0600 
    147 H147        3.2970  -26.1819  -47.7947 H         1 UNK         0.0600 
    148 H148        3.5327  -24.5029  -48.2650 H         1 UNK         0.0600 
    149 H149        3.5417  -22.9180  -46.3589 H         1 UNK         0.3000 
    150 H150        1.7131  -20.8512  -44.1732 H         1 UNK         0.0600 
    151 H151        4.6340  -21.7129  -43.8228 H         1 UNK         0.0600 
    152 H152        3.3999  -21.7580  -42.5689 H         1 UNK         0.0600 
    153 H153        3.9158  -20.2148  -43.2294 H         1 UNK         0.0600 
    154 H154        3.9676  -20.2389  -45.7489 H         1 UNK         0.3000 
    155 H155        3.7331  -20.4247  -48.3958 H         1 UNK         0.0600 
    156 H156        1.1385  -18.8931  -48.9313 H         1 UNK         0.0600 
    157 H157        1.6027  -20.4471  -49.6004 H         1 UNK         0.0600 
    158 H158        2.4991  -19.0076  -50.0449 H         1 UNK         0.0600 
    159 H159        4.6309  -18.4813  -47.8550 H         1 UNK         0.3000 
    160 H160        4.8242  -16.4628  -46.3846 H         1 UNK         0.0600 
    161 H161        3.6531  -15.3841  -49.0289 H         1 UNK         0.0600 
    162 H162        5.0395  -16.4586  -48.9073 H         1 UNK         0.0600 
    163 H163        5.1500  -14.8265  -48.2865 H         1 UNK         0.0600 
    164 H164        2.2300  -15.2527  -46.3117 H         1 UNK         0.3000 
    165 H165        3.3372  -12.3221  -44.5696 H         1 UNK         0.0600 
    166 H166        1.7143  -11.1988  -46.0444 H         1 UNK         0.0600 
    167 H167        3.1635  -11.5897  -46.9554 H         1 UNK         0.0600 
    168 H168        1.7153  -12.5692  -47.1555 H         1 UNK         0.0600 
    169 H169        0.7197  -13.3393  -45.0402 H         1 UNK         0.3000 
    170 H170       -0.2333  -15.0153  -43.1533 H         1 UNK         0.0600 
    171 H171        0.9074  -15.4015  -40.9998 H         1 UNK         0.0600 
    172 H172        0.8782  -13.6821  -40.6314 H         1 UNK         0.0600 
    173 H173       -0.6276  -14.5944  -40.7309 H         1 UNK         0.0600 
    174 H174       -1.4970  -13.2271  -43.3569 H         1 UNK         0.3000 
    175 H175       -1.4564   -9.9108  -42.3246 H         1 UNK         0.0600 
    176 H176        0.1569   -9.5157  -44.1929 H         1 UNK         0.0600 
    177 H177       -0.7167  -10.6568  -45.2077 H         1 UNK         0.0600 
    178 H178       -1.4876   -9.1562  -44.6924 H         1 UNK         0.0600 
    179 H179       -2.8896  -11.3823  -44.3841 H         1 UNK         0.3000 
    180 H180       -5.1976  -12.9396  -42.2601 H         1 UNK         0.0600 
    181 H181       -5.7391  -10.4521  -43.9703 H         1 UNK         0.0600 
    182 H182       -6.1744  -10.6373  -42.2757 H         1 UNK         0.0600 
    183 H183       -6.9315  -11.6591  -43.4862 H         1 UNK         0.0600 
    184 H184       -5.2293  -12.6293  -45.0670 H         1 UNK         0.3000 
    185 H185       -4.8994  -14.9017  -46.0893 H         1 UNK         0.0600 
    186 H186       -4.0090  -12.8274  -47.0273 H         1 UNK         0.0600 
    187 H187       -2.3568  -13.2738  -46.6400 H         1 UNK         0.0600 
    188 H188       -3.2484  -14.1609  -47.8746 H         1 UNK         0.0600 
    189 H189       -3.7298  -16.7476  -45.9251 H         1 UNK         0.3000 
    190 H190       -0.4386  -22.1425  -46.0991 H         1 UNK         0.3000 
    191 H191       -3.1084  -21.9700  -45.1633 H         1 UNK         0.0600 
    192 H192       -1.2435  -20.3703  -44.6147 H         1 UNK         0.0600 
    193 H193       -2.1217  -20.9090  -43.1912 H         1 UNK         0.0600 
    194 H194       -0.5358  -21.5761  -43.5460 H         1 UNK         0.0600 
    195 H195       -0.4036  -24.1003  -44.1301 H         1 UNK         0.3000 
    196 H196       -1.8035  -25.5555  -42.1402 H         1 UNK         0.0600 
    197 H197        0.0859  -27.1769  -42.4006 H         1 UNK         0.0600 
    198 H198        0.6662  -25.5199  -42.3229 H         1 UNK         0.0600 
    199 H199        0.5962  -26.3565  -43.8722 H         1 UNK         0.0600 
    200 H200       -1.4679  -26.1285  -45.6578 H         1 UNK         0.3000 
    201 H201       -2.9111  -28.6294  -45.6768 H         1 UNK         0.0600 
    202 H202       -2.7668  -28.3248  -48.1502 H         1 UNK         0.0600 
    203 H203       -1.2102  -28.0325  -47.3915 H         1 UNK         0.0600 
    204 H204       -2.1988  -26.6751  -47.9291 H         1 UNK         0.0600 
    205 H205       -3.9609  -25.3923  -45.4287 H         1 UNK         0.3000 
    206 H206       -5.8383  -24.2538  -45.5729 H         1 UNK         0.0600 
    207 H207       -6.8887  -26.0936  -44.2303 H         1 UNK         0.0600 
    208 H208       -8.0367  -25.3172  -45.3088 H         1 UNK         0.0600 
    209 H209       -7.3850  -26.8958  -45.7203 H         1 UNK         0.0600 
    210 H210       -4.3056  -24.5684  -47.8058 H         1 UNK         0.3000 
    211 H211       -6.1068  -24.8624  -50.1650 H         1 UNK         0.0600 
    212 H212       -3.0488  -24.8369  -49.9680 H         1 UNK         0.0600 
    213 H213       -3.9996  -25.1632  -51.4115 H         1 UNK         0.0600 
    214 H214       -4.0412  -26.2900  -50.0652 H         1 UNK         0.0600 
    215 H215       -6.3328  -22.5407  -48.4692 H         1 UNK         0.3000 
    216 H216       -4.8459  -20.3200  -49.3743 H         1 UNK         0.0600 
    217 H217       -6.6202  -18.9925  -48.2204 H         1 UNK         0.0600 
    218 H218       -6.0874  -20.3444  -47.2361 H         1 UNK         0.0600 
    219 H219       -7.6272  -20.4315  -48.0954 H         1 UNK         0.0600 
    220 H220       -7.5574  -21.9118  -50.8605 H         1 UNK         0.3000 
    221 H221       -8.3763  -19.7900  -52.6370 H         1 UNK         0.0600 
    222 H222       -8.7831  -22.8274  -52.7749 H         1 UNK         0.0600 
    223 H223       -9.8770  -21.6718  -52.0127 H         1 UNK         0.0600 
    224 H224       -9.6339  -21.6364  -53.7511 H         1 UNK         0.0600 
    225 H225       -5.6052  -21.8905  -52.6271 H         1 UNK         0.3000 
    226 H226       -5.1903  -21.7467  -55.5597 H         1 UNK         0.0600 
    227 H227       -3.4809  -23.4484  -55.1555 H         1 UNK         0.0600 
    228 H228       -3.6436  -23.2838  -53.4138 H         1 UNK         0.0600 
    229 H229       -4.9663  -23.9520  -54.3681 H         1 UNK         0.0600 
    230 H230       -4.9896  -19.3552  -53.7580 H         1 UNK         0.3000 
    231 H231       -2.3290  -18.6136  -53.2644 H         1 UNK         0.0600 
    232 H232       -4.7789  -16.8709  -53.8349 H         1 UNK         0.0600 
    233 H233       -3.2724  -16.3036  -53.1204 H         1 UNK         0.0600 
    234 H234       -4.2652  -17.4638  -52.2553 H         1 UNK         0.0600 
    235 H235       -0.7211  -17.7286  -54.4162 H         1 UNK         0.3000 
    236 H236       -1.0569  -16.4708  -57.0050 H         1 UNK         0.0600 
    237 H237       -1.0540  -18.8103  -57.7753 H         1 UNK         0.0600 
    238 H238        0.5020  -18.1042  -58.1655 H         1 UNK         0.0600 
    239 H239        0.3466  -19.2012  -56.7900 H         1 UNK         0.0600 
    240 H240        1.9304  -18.0503  -56.2650 H         1 UNK         0.3000 
    241 H241        3.8992  -17.4651  -55.5136 H         1 UNK         0.0600 
    242 H242        3.8774  -14.4748  -57.9590 H         1 UNK         0.3800 
    243 H243        2.6883  -15.7444  -57.8322 H         1 UNK         0.3800 
    244 H244        4.2080  -16.1069  -53.4941 H         1 UNK         0.0800 
    245 H245        2.6138  -15.4277  -53.6390 H         1 UNK         0.0800 
    246 H246        1.3071  -16.3194  -51.3847 H         1 UNK         0.0800 
    247 H247        0.5405  -16.4256  -52.9496 H         1 UNK         0.0800 
@<TRIPOS>BOND
     1    1    2 1    
     2    1  127 1    
     3    1  128 1    
     4    1  129 1    
     5    2    3 2    
     6    2    4 am   BACKBONE|DICT|INTERRES
     7    4    5 1    
     8    4  130 1    
     9    5    6 1    
    10    5   65 1    
    11    5  131 1    
    12    6    7 1    
    13    6  132 1    
    14    6  133 1    
    15    7    8 1    
    16    8    9 1    
    17    8  134 1    
    18    8  135 1    
    19    9   10 ar   
    20    9   14 ar   
    21   10   11 ar   
    22   10  136 1    
    23   11   12 ar   
    24   11  126 1    
    25   12   13 ar   
    26   12  137 1    
    27   13   14 ar   
    28   13   15 1    
    29   14  138 1    
    30   15   16 1    
    31   15  139 1    
    32   15  140 1    
    33   16   17 1    
    34   17   18 1    
    35   17  141 1    
    36   17  142 1    
    37   18   19 1    
    38   18   67 1    
    39   18  143 1    
    40   19   20 am   BACKBONE|DICT|INTERRES
    41   19  144 1    
    42   20   21 2    
    43   20   22 1    
    44   22   23 1    
    45   22   24 1    
    46   22  145 1    
    47   23  146 1    
    48   23  147 1    
    49   23  148 1    
    50   24   25 am   BACKBONE|DICT|INTERRES
    51   24  149 1    
    52   25   26 2    
    53   25   27 1    
    54   27   28 1    
    55   27   29 1    
    56   27  150 1    
    57   28  151 1    
    58   28  152 1    
    59   28  153 1    
    60   29   30 am   BACKBONE|DICT|INTERRES
    61   29  154 1    
    62   30   31 2    
    63   30   32 1    
    64   32   33 1    
    65   32   34 1    
    66   32  155 1    
    67   33  156 1    
    68   33  157 1    
    69   33  158 1    
    70   34   35 am   BACKBONE|DICT|INTERRES
    71   34  159 1    
    72   35   36 2    
    73   35   37 1    
    74   37   38 1    
    75   37   39 1    
    76   37  160 1    
    77   38  161 1    
    78   38  162 1    
    79   38  163 1    
    80   39   40 am   BACKBONE|DICT|INTERRES
    81   39  164 1    
    82   40   41 2    
    83   40   42 1    
    84   42   43 1    
    85   42   44 1    
    86   42  165 1    
    87   43  166 1    
    88   43  167 1    
    89   43  168 1    
    90   44   45 am   BACKBONE|DICT|INTERRES
    91   44  169 1    
    92   45   46 2    
    93   45   47 1    
    94   47   48 1    
    95   47   49 1    
    96   47  170 1    
    97   48  171 1    
    98   48  172 1    
    99   48  173 1    
   100   49   50 am   BACKBONE|DICT|INTERRES
   101   49  174 1    
   102   50   51 2    
   103   50   52 1    
   104   52   53 1    
   105   52   54 1    
   106   52  175 1    
   107   53  176 1    
   108   53  177 1    
   109   53  178 1    
   110   54   55 am   BACKBONE|DICT|INTERRES
   111   54  179 1    
   112   55   56 2    
   113   55   57 1    
   114   57   58 1    
   115   57   59 1    
   116   57  180 1    
   117   58  181 1    
   118   58  182 1    
   119   58  183 1    
   120   59   60 am   BACKBONE|DICT|INTERRES
   121   59  184 1    
   122   60   61 2    
   123   60   62 1    
   124   62   63 1    
   125   62   64 1    
   126   62  185 1    
   127   63  186 1    
   128   63  187 1    
   129   63  188 1    
   130   64   65 am   BACKBONE|DICT|INTERRES
   131   64  189 1    
   132   65   66 2    
   133   67   68 2    
   134   67   69 am   BACKBONE|DICT|INTERRES
   135   69   70 1    
   136   69  190 1    
   137   70   71 1    
   138   70   72 1    
   139   70  191 1    
   140   71  192 1    
   141   71  193 1    
   142   71  194 1    
   143   72   73 2    
   144   72   74 am   BACKBONE|DICT|INTERRES
   145   74   75 1    
   146   74  195 1    
   147   75   76 1    
   148   75   77 1    
   149   75  196 1    
   150   76  197 1    
   151   76  198 1    
   152   76  199 1    
   153   77   78 2    
   154   77   79 am   BACKBONE|DICT|INTERRES
   155   79   80 1    
   156   79  200 1    
   157   80   81 1    
   158   80   82 1    
   159   80  201 1    
   160   81  202 1    
   161   81  203 1    
   162   81  204 1    
   163   82   83 2    
   164   82   84 am   BACKBONE|DICT|INTERRES
   165   84   85 1    
   166   84  205 1    
   167   85   86 1    
   168   85   87 1    
   169   85  206 1    
   170   86  207 1    
   171   86  208 1    
   172   86  209 1    
   173   87   88 2    
   174   87   89 am   BACKBONE|DICT|INTERRES
   175   89   90 1    
   176   89  210 1    
   177   90   91 1    
   178   90   92 1    
   179   90  211 1    
   180   91  212 1    
   181   91  213 1    
   182   91  214 1    
   183   92   93 2    
   184   92   94 am   BACKBONE|DICT|INTERRES
   185   94   95 1    
   186   94  215 1    
   187   95   96 1    
   188   95   97 1    
   189   95  216 1    
   190   96  217 1    
   191   96  218 1    
   192   96  219 1    
   193   97   98 2    
   194   97   99 am   BACKBONE|DICT|INTERRES
   195   99  100 1    
   196   99  220 1    
   197  100  101 1    
   198  100  102 1    
   199  100  221 1    
   200  101  222 1    
   201  101  223 1    
   202  101  224 1    
   203  102  103 2    
   204  102  104 am   BACKBONE|DICT|INTERRES
   205  104  105 1    
   206  104  225 1    
   207  105  106 1    
   208  105  107 1    
   209  105  226 1    
   210  106  227 1    
   211  106  228 1    
   212  106  229 1    
   213  107  108 2    
   214  107  109 am   BACKBONE|DICT|INTERRES
   215  109  110 1    
   216  109  230 1    
   217  110  111 1    
   218  110  112 1    
   219  110  231 1    
   220  111  232 1    
   221  111  233 1    
   222  111  234 1    
   223  112  113 2    
   224  112  114 am   BACKBONE|DICT|INTERRES
   225  114  115 1    
   226  114  235 1    
   227  115  116 1    
   228  115  117 1    
   229  115  236 1    
   230  116  237 1    
   231  116  238 1    
   232  116  239 1    
   233  117  118 2    
   234  117  119 am   BACKBONE|DICT|INTERRES
   235  119  120 1    
   236  119  240 1    
   237  120  121 1    
   238  120  124 1    
   239  120  241 1    
   240  121  122 am   BACKBONE|DICT|INTERRES
   241  121  123 2    
   242  122  242 1    
   243  122  243 1    
   244  124  125 1    
   245  124  244 1    
   246  124  245 1    
   247  125  126 1    
   248  126  246 1    
   249  126  247 1    
@<TRIPOS>SUBSTRUCTURE
     1 UNK         1 GROUP             0       ****    0 ROOT    
