@<TRIPOS>MOLECULE
3R540
247   249    1
SMALL
USER_CHARGES


@<TRIPOS>ATOM
      1 CA         -0.9486  -14.9813  -49.9665 C.3       0 UNK        -0.1800 
      2 C           0.2914  -14.1049  -49.8958 C.2       0 UNK         0.5000 
      3 O           0.2299  -12.9981  -49.3619 O.2       0 UNK        -0.5000 
      4 N           1.4220  -14.6005  -50.4175 N.am      1 UNK        -0.5000 
      5 CA          2.7124  -13.8948  -50.4917 C.3       1 UNK         0.1400 
      6 C6          3.7794  -14.6911  -51.2842 C.3       23 UNK        -0.0398 
      7 S7          3.2632  -15.1016  -52.9870 S.3       23 UNK        -0.2404 
      8 C8          3.1895  -16.9218  -52.9343 C.3       23 UNK        -0.0205 
      9 C9          1.9660  -17.4159  -52.1790 C.ar      23 UNK        -0.0193 
     10 C10         0.7251  -17.4651  -52.8199 C.ar      23 UNK        -0.1150 
     11 C11        -0.4106  -17.9009  -52.1335 C.ar      23 UNK        -0.0193 
     12 C12        -0.2974  -18.2989  -50.7982 C.ar      23 UNK        -0.1150 
     13 C13         0.9355  -18.2401  -50.1415 C.ar      23 UNK        -0.0193 
     14 C14         2.0660  -17.8064  -50.8400 C.ar      23 UNK        -0.1150 
     15 C15         1.0319  -18.5853  -48.6639 C.3       23 UNK        -0.0205 
     16 S16         1.9862  -20.1051  -48.3668 S.3       23 UNK        -0.2404 
     17 C17         1.6985  -20.3166  -46.5764 C.3       23 UNK        -0.0398 
     18 CA          0.7325  -21.4746  -46.2258 C.3       11 UNK         0.1400 
     19 N           0.7352  -21.7321  -44.7843 N.am      11 UNK        -0.5000 
     20 C           0.0828  -22.7097  -44.1411 C.2       10 UNK         0.5000 
     21 O          -0.5868  -23.5664  -44.7195 O.2       10 UNK        -0.5000 
     22 CA          0.1180  -22.6793  -42.5984 C.3       10 UNK         0.1400 
     23 CB          0.3323  -24.0796  -41.9904 C.3       10 UNK        -0.1800 
     24 N           1.0562  -21.6922  -42.0462 N.am      10 UNK        -0.5000 
     25 C           2.3979  -21.7056  -42.0850 C.2       9 UNK         0.5000 
     26 O           3.0632  -22.6274  -42.5567 O.2       9 UNK        -0.5000 
     27 CA          3.1250  -20.4516  -41.5577 C.3       9 UNK         0.1400 
     28 CB          3.7284  -19.6605  -42.7303 C.3       9 UNK        -0.1800 
     29 N           2.2604  -19.5521  -40.7918 N.am      9 UNK        -0.5000 
     30 C           1.8315  -19.7718  -39.5420 C.2       8 UNK         0.5000 
     31 O           2.1473  -20.7545  -38.8709 O.2       8 UNK        -0.5000 
     32 CA          0.8599  -18.7290  -38.9613 C.3       8 UNK         0.1400 
     33 CB          1.6264  -17.5198  -38.4029 C.3       8 UNK        -0.1800 
     34 N          -0.1202  -18.2687  -39.9476 N.am      8 UNK        -0.5000 
     35 C          -1.1346  -19.0068  -40.4205 C.2       7 UNK         0.5000 
     36 O          -1.3544  -20.1686  -40.0794 O.2       7 UNK        -0.5000 
     37 CA         -2.0368  -18.3418  -41.4758 C.3       7 UNK         0.1400 
     38 CB         -3.0879  -17.4426  -40.8088 C.3       7 UNK        -0.1800 
     39 N          -1.2680  -17.5539  -42.4377 N.am      7 UNK        -0.5000 
     40 C          -0.4846  -18.0831  -43.3868 C.2       6 UNK         0.5000 
     41 O          -0.3902  -19.2912  -43.6007 O.2       6 UNK        -0.5000 
     42 CA          0.3518  -17.1044  -44.2297 C.3       6 UNK         0.1400 
     43 CB         -0.4198  -16.7184  -45.5012 C.3       6 UNK        -0.1800 
     44 N           0.7516  -15.9016  -43.4920 N.am      6 UNK        -0.5000 
     45 C           1.5369  -15.9171  -42.4008 C.2       5 UNK         0.5000 
     46 O           2.0159  -16.9510  -41.9365 O.2       5 UNK        -0.5000 
     47 CA          1.8129  -14.5896  -41.6700 C.3       5 UNK         0.1400 
     48 CB          3.2957  -14.2020  -41.7716 C.3       5 UNK        -0.1800 
     49 N           0.9766  -13.4842  -42.1373 N.am      5 UNK        -0.5000 
     50 C          -0.3175  -13.3338  -41.8177 C.2       4 UNK         0.5000 
     51 O          -0.9274  -14.1100  -41.0808 O.2       4 UNK        -0.5000 
     52 CA         -1.0682  -12.1435  -42.4496 C.3       4 UNK         0.1400 
     53 CB         -1.1015  -10.9542  -41.4782 C.3       4 UNK        -0.1800 
     54 N          -0.5101  -11.6985  -43.7301 N.am      4 UNK        -0.5000 
     55 C          -0.4459  -12.4463  -44.8399 C.2       3 UNK         0.5000 
     56 O          -0.8596  -13.6051  -44.8952 O.2       3 UNK        -0.5000 
     57 CA          0.2157  -11.8271  -46.0891 C.3       3 UNK         0.1400 
     58 CB          0.7355  -10.3850  -45.8913 C.3       3 UNK        -0.1800 
     59 N           1.2802  -12.6893  -46.6099 N.am      3 UNK        -0.5000 
     60 C           2.3703  -13.1142  -45.9507 C.2       2 UNK         0.5000 
     61 O           2.6306  -12.7819  -44.7940 O.2       2 UNK        -0.5000 
     62 CA          3.3307  -14.0759  -46.6847 C.3       2 UNK         0.1400 
     63 CB          3.4146  -15.4342  -45.9682 C.3       2 UNK        -0.1800 
     64 N           2.9618  -14.3107  -48.0818 N.am      2 UNK        -0.5000 
     65 C           3.2778  -13.5072  -49.1065 C.2       1 UNK         0.5000 
     66 O           3.9682  -12.4939  -48.9926 O.2       1 UNK        -0.5000 
     67 C          -0.6966  -21.2291  -46.7563 C.2       11 UNK         0.5000 
     68 O          -1.0240  -21.6902  -47.8466 O.2       11 UNK        -0.5000 
     69 N          -1.5446  -20.5802  -45.9448 N.am      12 UNK        -0.5000 
     70 CA         -2.9633  -20.3478  -46.2270 C.3       12 UNK         0.1400 
     71 CB         -3.5545  -19.4701  -45.1137 C.3       12 UNK        -0.1800 
     72 C          -3.7980  -21.6363  -46.4002 C.2       12 UNK         0.5000 
     73 O          -4.8472  -21.5845  -47.0400 O.2       12 UNK        -0.5000 
     74 N          -3.3264  -22.7586  -45.8403 N.am      13 UNK        -0.5000 
     75 CA         -3.9121  -24.0843  -46.0228 C.3       13 UNK         0.1400 
     76 CB         -3.9463  -24.8113  -44.6689 C.3       13 UNK        -0.1800 
     77 C          -3.1189  -24.9039  -47.0556 C.2       13 UNK         0.5000 
     78 O          -3.7271  -25.5818  -47.8840 O.2       13 UNK        -0.5000 
     79 N          -1.7821  -24.8512  -46.9719 N.am      14 UNK        -0.5000 
     80 CA         -0.8691  -25.6795  -47.7583 C.3       14 UNK         0.1400 
     81 CB          0.5191  -25.6630  -47.1003 C.3       14 UNK        -0.1800 
     82 C          -0.7656  -25.2891  -49.2439 C.2       14 UNK         0.5000 
     83 O          -0.5766  -26.1777  -50.0766 O.2       14 UNK        -0.5000 
     84 N          -0.8615  -23.9906  -49.5622 N.am      15 UNK        -0.5000 
     85 CA         -0.7914  -23.4889  -50.9347 C.3       15 UNK         0.1400 
     86 CB         -0.5424  -21.9725  -50.9287 C.3       15 UNK        -0.1800 
     87 C          -2.0788  -23.8063  -51.7094 C.2       15 UNK         0.5000 
     88 O          -3.1713  -23.6657  -51.1539 O.2       15 UNK        -0.5000 
     89 N          -1.9158  -24.1804  -52.9863 N.am      16 UNK        -0.5000 
     90 CA         -2.9645  -24.4333  -53.9779 C.3       16 UNK         0.1400 
     91 CB         -3.5223  -23.0894  -54.4896 C.3       16 UNK        -0.1800 
     92 C          -4.0446  -25.4161  -53.4729 C.2       16 UNK         0.5000 
     93 O          -3.7414  -26.5959  -53.2882 O.2       16 UNK        -0.5000 
     94 N          -5.2657  -24.9177  -53.2523 N.am      17 UNK        -0.5000 
     95 CA         -6.3980  -25.6504  -52.6976 C.3       17 UNK         0.1400 
     96 CB         -7.3989  -25.9634  -53.8254 C.3       17 UNK        -0.1800 
     97 C          -6.9963  -24.7947  -51.5713 C.2       17 UNK         0.5000 
     98 O          -8.1140  -24.2933  -51.7020 O.2       17 UNK        -0.5000 
     99 N          -6.1991  -24.6051  -50.5093 N.am      18 UNK        -0.5000 
    100 CA        -6.4125  -23.6699  -49.3990 C.3       18 UNK         0.1400 
    101 CB        -7.6776  -24.0144  -48.5853 C.3       18 UNK        -0.1800 
    102 C         -6.3629  -22.2130  -49.8963 C.2       18 UNK         0.5000 
    103 O         -7.3099  -21.4448  -49.7119 O.2       18 UNK        -0.5000 
    104 N         -5.2390  -21.8951  -50.5498 N.am      19 UNK        -0.5000 
    105 CA        -4.9016  -20.6404  -51.2098 C.3       19 UNK         0.1400 
    106 CB        -4.7647  -19.4919  -50.1854 C.3       19 UNK        -0.1800 
    107 C         -5.8332  -20.3419  -52.4047 C.2       19 UNK         0.5000 
    108 O         -6.2164  -21.2704  -53.1221 O.2       19 UNK        -0.5000 
    109 N         -6.1463  -19.0557  -52.6157 N.am      20 UNK        -0.5000 
    110 CA        -6.9941  -18.4736  -53.6613 C.3       20 UNK         0.1400 
    111 CB        -8.4400  -19.0040  -53.5841 C.3       20 UNK        -0.1800 
    112 C         -6.4087  -18.5995  -55.0799 C.2       20 UNK         0.5000 
    113 O         -6.0395  -17.5855  -55.6740 O.2       20 UNK        -0.5000 
    114 N         -6.3210  -19.8304  -55.6000 N.am      21 UNK        -0.5000 
    115 CA        -5.8978  -20.1372  -56.9716 C.3       21 UNK         0.1400 
    116 CB        -6.2396  -21.5990  -57.2942 C.3       21 UNK        -0.1800 
    117 C         -4.4151  -19.8254  -57.2633 C.2       21 UNK         0.5000 
    118 O         -4.0518  -19.6511  -58.4271 O.2       21 UNK        -0.5000 
    119 N         -3.5985  -19.7227  -56.2083 N.am      22 UNK        -0.5000 
    120 CA        -2.2306  -19.1800  -56.2401 C.3       22 UNK         0.1400 
    121 C         -2.1476  -17.6361  -56.4423 C.2       22 UNK         0.5000 
    122 N         -3.2380  -16.8811  -56.3616 N.am      22 UNK        -0.7600 
    123 O         -1.0652  -17.1109  -56.6867 O.2       22 UNK        -0.5000 
    124 C124       -1.3909  -19.6432  -55.0164 C.3       23 UNK        -0.0398 
    125 S125       -2.2689  -19.5148  -53.4197 S.3       23 UNK        -0.2404 
    126 C126       -1.7721  -17.8780  -52.8084 C.3       23 UNK        -0.0205 
    127 H127       -1.0807  -15.3792  -50.9719 H         1 UNK         0.0600 
    128 H128       -0.8677  -15.8117  -49.2653 H         1 UNK         0.0600 
    129 H129       -1.8404  -14.4079  -49.7131 H         1 UNK         0.0600 
    130 H130        1.4017  -15.5096  -50.8612 H         1 UNK         0.3000 
    131 H131        2.5283  -12.9608  -51.0268 H         1 UNK         0.0600 
    132 H132        4.6986  -14.1074  -51.3636 H         1 UNK         0.0800 
    133 H133        4.0539  -15.6025  -50.7515 H         1 UNK         0.0800 
    134 H134        4.1054  -17.3196  -52.4942 H         1 UNK         0.0800 
    135 H135        3.1582  -17.3003  -53.9571 H         1 UNK         0.0800 
    136 H136        0.6413  -17.1439  -53.8491 H         1 UNK         0.1150 
    137 H137       -1.1786  -18.6257  -50.2637 H         1 UNK         0.1150 
    138 H138        3.0201  -17.7640  -50.3336 H         1 UNK         0.1150 
    139 H139        1.4986  -17.7562  -48.1304 H         1 UNK         0.0800 
    140 H140        0.0326  -18.7019  -48.2424 H         1 UNK         0.0800 
    141 H141        1.3505  -19.3795  -46.1414 H         1 UNK         0.0800 
    142 H142        2.6721  -20.5077  -46.1227 H         1 UNK         0.0800 
    143 H143        1.1051  -22.3787  -46.7091 H         1 UNK         0.0600 
    144 H144        1.1773  -21.0327  -44.2067 H         1 UNK         0.3000 
    145 H145       -0.8722  -22.3402  -42.2904 H         1 UNK         0.0600 
    146 H146        0.3538  -24.0376  -40.9014 H         1 UNK         0.0600 
    147 H147       -0.4772  -24.7539  -42.2727 H         1 UNK         0.0600 
    148 H148        1.2632  -24.5343  -42.3295 H         1 UNK         0.0600 
    149 H149        0.6204  -20.8711  -41.6488 H         1 UNK         0.3000 
    150 H150        3.9388  -20.7881  -40.9121 H         1 UNK         0.0600 
    151 H151        4.4118  -20.2787  -43.3138 H         1 UNK         0.0600 
    152 H152        4.2945  -18.7995  -42.3741 H         1 UNK         0.0600 
    153 H153        2.9560  -19.2933  -43.4073 H         1 UNK         0.0600 
    154 H154        2.0103  -18.6748  -41.2433 H         1 UNK         0.3000 
    155 H155        0.3192  -19.1986  -38.1367 H         1 UNK         0.0600 
    156 H156        2.1884  -17.0011  -39.1802 H         1 UNK         0.0600 
    157 H157        2.3383  -17.8307  -37.6372 H         1 UNK         0.0600 
    158 H158        0.9483  -16.8010  -37.9426 H         1 UNK         0.0600 
    159 H159        0.0087  -17.3370  -40.3121 H         1 UNK         0.3000 
    160 H160       -2.5601  -19.1344  -42.0142 H         1 UNK         0.0600 
    161 H161       -3.7772  -17.0308  -41.5462 H         1 UNK         0.0600 
    162 H162       -2.6279  -16.6079  -40.2779 H         1 UNK         0.0600 
    163 H163       -3.6822  -18.0049  -40.0874 H         1 UNK         0.0600 
    164 H164       -1.2907  -16.5494  -42.3313 H         1 UNK         0.3000 
    165 H165        1.2651  -17.6235  -44.5249 H         1 UNK         0.0600 
    166 H166        0.1495  -16.0350  -46.1302 H         1 UNK         0.0600 
    167 H167       -0.6504  -17.5993  -46.1011 H         1 UNK         0.0600 
    168 H168       -1.3673  -16.2343  -45.2617 H         1 UNK         0.0600 
    169 H169        0.3674  -15.0211  -43.8153 H         1 UNK         0.3000 
    170 H170        1.5927  -14.7590  -40.6139 H         1 UNK         0.0600 
    171 H171        3.9290  -14.9721  -41.3291 H         1 UNK         0.0600 
    172 H172        3.6156  -14.0762  -42.8047 H         1 UNK         0.0600 
    173 H173        3.4989  -13.2719  -41.2408 H         1 UNK         0.0600 
    174 H174        1.4012  -12.8427  -42.7956 H         1 UNK         0.3000 
    175 H175       -2.0955  -12.4669  -42.6297 H         1 UNK         0.0600 
    176 H176       -1.7052  -10.1372  -41.8741 H         1 UNK         0.0600 
    177 H177       -1.5373  -11.2434  -40.5208 H         1 UNK         0.0600 
    178 H178       -0.1006  -10.5685  -41.2802 H         1 UNK         0.0600 
    179 H179       -0.1296  -10.7637  -43.7569 H         1 UNK         0.3000 
    180 H180       -0.5582  -11.7971  -46.8572 H         1 UNK         0.0600 
    181 H181        1.5067  -10.3243  -45.1225 H         1 UNK         0.0600 
    182 H182       -0.0725   -9.7079  -45.6114 H         1 UNK         0.0600 
    183 H183        1.1650   -9.9999  -46.8162 H         1 UNK         0.0600 
    184 H184        1.1362  -13.0040  -47.5632 H         1 UNK         0.3000 
    185 H185        4.3221  -13.6194  -46.6495 H         1 UNK         0.0600 
    186 H186        2.4684  -15.9702  -46.0079 H         1 UNK         0.0600 
    187 H187        4.1750  -16.0700  -46.4219 H         1 UNK         0.0600 
    188 H188        3.6813  -15.3146  -44.9178 H         1 UNK         0.0600 
    189 H189        2.3797  -15.1133  -48.2687 H         1 UNK         0.3000 
    190 H190       -1.1945  -20.2414  -45.0527 H         1 UNK         0.3000 
    191 H191       -3.0239  -19.7949  -47.1661 H         1 UNK         0.0600 
    192 H192       -3.4778  -19.9550  -44.1401 H         1 UNK         0.0600 
    193 H193       -4.6100  -19.2638  -45.2961 H         1 UNK         0.0600 
    194 H194       -3.0445  -18.5090  -45.0537 H         1 UNK         0.0600 
    195 H195       -2.4400  -22.7235  -45.3537 H         1 UNK         0.3000 
    196 H196       -4.9413  -24.0021  -46.3779 H         1 UNK         0.0600 
    197 H197       -4.3845  -25.8049  -44.7712 H         1 UNK         0.0600 
    198 H198       -4.5493  -24.2632  -43.9448 H         1 UNK         0.0600 
    199 H199       -2.9482  -24.9346  -44.2470 H         1 UNK         0.0600 
    200 H200       -1.3580  -24.3030  -46.2286 H         1 UNK         0.3000 
    201 H201       -1.2397  -26.7062  -47.7198 H         1 UNK         0.0600 
    202 H202        0.4708  -26.0050  -46.0662 H         1 UNK         0.0600 
    203 H203        0.9527  -24.6636  -47.1021 H         1 UNK         0.0600 
    204 H204        1.2101  -26.3210  -47.6287 H         1 UNK         0.0600 
    205 H205       -1.0372  -23.2986  -48.8382 H         1 UNK         0.3000 
    206 H206        0.0550  -23.9681  -51.4312 H         1 UNK         0.0600 
    207 H207        0.3572  -21.7202  -50.3682 H         1 UNK         0.0600 
    208 H208       -0.4086  -21.5934  -51.9425 H         1 UNK         0.0600 
    209 H209       -1.3774  -21.4270  -50.4868 H         1 UNK         0.0600 
    210 H210       -0.9724  -24.2987  -53.3270 H         1 UNK         0.3000 
    211 H211       -2.4826  -24.9283  -54.8222 H         1 UNK         0.0600 
    212 H212       -3.9206  -22.4768  -53.6819 H         1 UNK         0.0600 
    213 H213       -4.3143  -23.2496  -55.2185 H         1 UNK         0.0600 
    214 H214       -2.7450  -22.5103  -54.9866 H         1 UNK         0.0600 
    215 H215       -5.4126  -23.9245  -53.3790 H         1 UNK         0.3000 
    216 H216       -6.0735  -26.5928  -52.2513 H         1 UNK         0.0600 
    217 H217       -8.2704  -26.4926  -53.4384 H         1 UNK         0.0600 
    218 H218       -6.9451  -26.5972  -54.5873 H         1 UNK         0.0600 
    219 H219       -7.7530  -25.0550  -54.3146 H         1 UNK         0.0600 
    220 H220       -5.2778  -25.0229  -50.5370 H         1 UNK         0.3000 
    221 H221       -5.5584  -23.7894  -48.7332 H         1 UNK         0.0600 
    222 H222       -8.5917  -23.8632  -49.1592 H         1 UNK         0.0600 
    223 H223       -7.6581  -25.0505  -48.2478 H         1 UNK         0.0600 
    224 H224       -7.7444  -23.3842  -47.6977 H         1 UNK         0.0600 
    225 H225       -4.5440  -22.6296  -50.6805 H         1 UNK         0.3000 
    226 H226       -3.9146  -20.8203  -51.6298 H         1 UNK         0.0600 
    227 H227       -5.7269  -19.2099  -49.7566 H         1 UNK         0.0600 
    228 H228       -4.3231  -18.6037  -50.6376 H         1 UNK         0.0600 
    229 H229       -4.1106  -19.7848  -49.3645 H         1 UNK         0.0600 
    230 H230       -5.7501  -18.3814  -51.9766 H         1 UNK         0.3000 
    231 H231       -7.0369  -17.4057  -53.4407 H         1 UNK         0.0600 
    232 H232       -8.8733  -18.8166  -52.6016 H         1 UNK         0.0600 
    233 H233       -8.5011  -20.0757  -53.7742 H         1 UNK         0.0600 
    234 H234       -9.0750  -18.5076  -54.3189 H         1 UNK         0.0600 
    235 H235       -6.5594  -20.6116  -54.9972 H         1 UNK         0.3000 
    236 H236       -6.4847  -19.5063  -57.6425 H         1 UNK         0.0600 
    237 H237       -7.3130  -21.7754  -57.2235 H         1 UNK         0.0600 
    238 H238       -5.9349  -21.8596  -58.3086 H         1 UNK         0.0600 
    239 H239       -5.7444  -22.2888  -56.6146 H         1 UNK         0.0600 
    240 H240       -3.9823  -19.8779  -55.2879 H         1 UNK         0.3000 
    241 H241       -1.7458  -19.6003  -57.1232 H         1 UNK         0.0600 
    242 H242       -3.1553  -15.8875  -56.5049 H         1 UNK         0.3800 
    243 H243       -4.1498  -17.2773  -56.1598 H         1 UNK         0.3800 
    244 H244       -1.1315  -20.6939  -55.1478 H         1 UNK         0.0800 
    245 H245       -0.4339  -19.1226  -54.9605 H         1 UNK         0.0800 
    246 H246       -2.5192  -17.5360  -52.0913 H         1 UNK         0.0800 
    247 H247       -1.7876  -17.1507  -53.6203 H         1 UNK         0.0800 
@<TRIPOS>BOND
     1    1    2 1    
     2    1  127 1    
     3    1  128 1    
     4    1  129 1    
     5    2    3 2    
     6    2    4 am   BACKBONE|DICT|INTERRES
     7    4    5 1    
     8    4  130 1    
     9    5    6 1    
    10    5   65 1    
    11    5  131 1    
    12    6    7 1    
    13    6  132 1    
    14    6  133 1    
    15    7    8 1    
    16    8    9 1    
    17    8  134 1    
    18    8  135 1    
    19    9   10 ar   
    20    9   14 ar   
    21   10   11 ar   
    22   10  136 1    
    23   11   12 ar   
    24   11  126 1    
    25   12   13 ar   
    26   12  137 1    
    27   13   14 ar   
    28   13   15 1    
    29   14  138 1    
    30   15   16 1    
    31   15  139 1    
    32   15  140 1    
    33   16   17 1    
    34   17   18 1    
    35   17  141 1    
    36   17  142 1    
    37   18   19 1    
    38   18   67 1    
    39   18  143 1    
    40   19   20 am   BACKBONE|DICT|INTERRES
    41   19  144 1    
    42   20   21 2    
    43   20   22 1    
    44   22   23 1    
    45   22   24 1    
    46   22  145 1    
    47   23  146 1    
    48   23  147 1    
    49   23  148 1    
    50   24   25 am   BACKBONE|DICT|INTERRES
    51   24  149 1    
    52   25   26 2    
    53   25   27 1    
    54   27   28 1    
    55   27   29 1    
    56   27  150 1    
    57   28  151 1    
    58   28  152 1    
    59   28  153 1    
    60   29   30 am   BACKBONE|DICT|INTERRES
    61   29  154 1    
    62   30   31 2    
    63   30   32 1    
    64   32   33 1    
    65   32   34 1    
    66   32  155 1    
    67   33  156 1    
    68   33  157 1    
    69   33  158 1    
    70   34   35 am   BACKBONE|DICT|INTERRES
    71   34  159 1    
    72   35   36 2    
    73   35   37 1    
    74   37   38 1    
    75   37   39 1    
    76   37  160 1    
    77   38  161 1    
    78   38  162 1    
    79   38  163 1    
    80   39   40 am   BACKBONE|DICT|INTERRES
    81   39  164 1    
    82   40   41 2    
    83   40   42 1    
    84   42   43 1    
    85   42   44 1    
    86   42  165 1    
    87   43  166 1    
    88   43  167 1    
    89   43  168 1    
    90   44   45 am   BACKBONE|DICT|INTERRES
    91   44  169 1    
    92   45   46 2    
    93   45   47 1    
    94   47   48 1    
    95   47   49 1    
    96   47  170 1    
    97   48  171 1    
    98   48  172 1    
    99   48  173 1    
   100   49   50 am   BACKBONE|DICT|INTERRES
   101   49  174 1    
   102   50   51 2    
   103   50   52 1    
   104   52   53 1    
   105   52   54 1    
   106   52  175 1    
   107   53  176 1    
   108   53  177 1    
   109   53  178 1    
   110   54   55 am   BACKBONE|DICT|INTERRES
   111   54  179 1    
   112   55   56 2    
   113   55   57 1    
   114   57   58 1    
   115   57   59 1    
   116   57  180 1    
   117   58  181 1    
   118   58  182 1    
   119   58  183 1    
   120   59   60 am   BACKBONE|DICT|INTERRES
   121   59  184 1    
   122   60   61 2    
   123   60   62 1    
   124   62   63 1    
   125   62   64 1    
   126   62  185 1    
   127   63  186 1    
   128   63  187 1    
   129   63  188 1    
   130   64   65 am   BACKBONE|DICT|INTERRES
   131   64  189 1    
   132   65   66 2    
   133   67   68 2    
   134   67   69 am   BACKBONE|DICT|INTERRES
   135   69   70 1    
   136   69  190 1    
   137   70   71 1    
   138   70   72 1    
   139   70  191 1    
   140   71  192 1    
   141   71  193 1    
   142   71  194 1    
   143   72   73 2    
   144   72   74 am   BACKBONE|DICT|INTERRES
   145   74   75 1    
   146   74  195 1    
   147   75   76 1    
   148   75   77 1    
   149   75  196 1    
   150   76  197 1    
   151   76  198 1    
   152   76  199 1    
   153   77   78 2    
   154   77   79 am   BACKBONE|DICT|INTERRES
   155   79   80 1    
   156   79  200 1    
   157   80   81 1    
   158   80   82 1    
   159   80  201 1    
   160   81  202 1    
   161   81  203 1    
   162   81  204 1    
   163   82   83 2    
   164   82   84 am   BACKBONE|DICT|INTERRES
   165   84   85 1    
   166   84  205 1    
   167   85   86 1    
   168   85   87 1    
   169   85  206 1    
   170   86  207 1    
   171   86  208 1    
   172   86  209 1    
   173   87   88 2    
   174   87   89 am   BACKBONE|DICT|INTERRES
   175   89   90 1    
   176   89  210 1    
   177   90   91 1    
   178   90   92 1    
   179   90  211 1    
   180   91  212 1    
   181   91  213 1    
   182   91  214 1    
   183   92   93 2    
   184   92   94 am   BACKBONE|DICT|INTERRES
   185   94   95 1    
   186   94  215 1    
   187   95   96 1    
   188   95   97 1    
   189   95  216 1    
   190   96  217 1    
   191   96  218 1    
   192   96  219 1    
   193   97   98 2    
   194   97   99 am   BACKBONE|DICT|INTERRES
   195   99  100 1    
   196   99  220 1    
   197  100  101 1    
   198  100  102 1    
   199  100  221 1    
   200  101  222 1    
   201  101  223 1    
   202  101  224 1    
   203  102  103 2    
   204  102  104 am   BACKBONE|DICT|INTERRES
   205  104  105 1    
   206  104  225 1    
   207  105  106 1    
   208  105  107 1    
   209  105  226 1    
   210  106  227 1    
   211  106  228 1    
   212  106  229 1    
   213  107  108 2    
   214  107  109 am   BACKBONE|DICT|INTERRES
   215  109  110 1    
   216  109  230 1    
   217  110  111 1    
   218  110  112 1    
   219  110  231 1    
   220  111  232 1    
   221  111  233 1    
   222  111  234 1    
   223  112  113 2    
   224  112  114 am   BACKBONE|DICT|INTERRES
   225  114  115 1    
   226  114  235 1    
   227  115  116 1    
   228  115  117 1    
   229  115  236 1    
   230  116  237 1    
   231  116  238 1    
   232  116  239 1    
   233  117  118 2    
   234  117  119 am   BACKBONE|DICT|INTERRES
   235  119  120 1    
   236  119  240 1    
   237  120  121 1    
   238  120  124 1    
   239  120  241 1    
   240  121  122 am   BACKBONE|DICT|INTERRES
   241  121  123 2    
   242  122  242 1    
   243  122  243 1    
   244  124  125 1    
   245  124  244 1    
   246  124  245 1    
   247  125  126 1    
   248  126  246 1    
   249  126  247 1    
@<TRIPOS>SUBSTRUCTURE
     1 UNK         1 GROUP             0       ****    0 ROOT    
