@<TRIPOS>MOLECULE
3R540
247   249    1
SMALL
USER_CHARGES


@<TRIPOS>ATOM
      1 CA          0.5846  -11.1968  -52.6406 C.3       0 UNK        -0.1800 
      2 C          -0.1190  -12.1156  -51.6519 C.2       0 UNK         0.5000 
      3 O          -1.2134  -12.5978  -51.9433 O.2       0 UNK        -0.5000 
      4 N           0.5101  -12.3563  -50.4927 N.am      1 UNK        -0.5000 
      5 CA          0.0223  -13.1922  -49.3877 C.3       1 UNK         0.1400 
      6 C6         -0.1244  -14.6936  -49.7643 C.3       23 UNK        -0.0398 
      7 S7          1.4503  -15.4203  -50.3356 S.3       23 UNK        -0.2404 
      8 C8          1.8354  -16.5978  -49.0023 C.3       23 UNK        -0.0205 
      9 C9          1.3761  -18.0087  -49.3389 C.ar      23 UNK        -0.0193 
     10 C10         0.0180  -18.3419  -49.3159 C.ar      23 UNK        -0.1150 
     11 C11        -0.4120  -19.6382  -49.6190 C.ar      23 UNK        -0.0193 
     12 C12         0.5507  -20.6068  -49.9310 C.ar      23 UNK        -0.1150 
     13 C13         1.9089  -20.2893  -49.9673 C.ar      23 UNK        -0.0193 
     14 C14         2.3166  -18.9878  -49.6704 C.ar      23 UNK        -0.1150 
     15 C15         2.9279  -21.3512  -50.3559 C.3       23 UNK        -0.0205 
     16 S16         3.6308  -22.2032  -48.9100 S.3       23 UNK        -0.2404 
     17 C17         2.1813  -23.1094  -48.2676 C.3       23 UNK        -0.0398 
     18 CA          2.5722  -24.1162  -47.1574 C.3       11 UNK         0.1400 
     19 N           3.0732  -23.4323  -45.9585 N.am      11 UNK        -0.5000 
     20 C           3.8542  -23.9732  -45.0138 C.2       10 UNK         0.5000 
     21 O           4.3210  -25.1104  -45.0806 O.2       10 UNK        -0.5000 
     22 CA          4.0968  -23.1225  -43.7505 C.3       10 UNK         0.1400 
     23 CB          5.3067  -22.1954  -43.9370 C.3       10 UNK        -0.1800 
     24 N           2.9223  -22.3317  -43.3671 N.am      10 UNK        -0.5000 
     25 C           1.7497  -22.8494  -42.9712 C.2       9 UNK         0.5000 
     26 O           1.5561  -24.0552  -42.8256 O.2       9 UNK        -0.5000 
     27 CA          0.5815  -21.8713  -42.7561 C.3       9 UNK         0.1400 
     28 CB          0.6096  -21.2672  -41.3445 C.3       9 UNK        -0.1800 
     29 N           0.5823  -20.8014  -43.7506 N.am      9 UNK        -0.5000 
     30 C           0.1989  -20.9524  -45.0261 C.2       8 UNK         0.5000 
     31 O          -0.2684  -21.9945  -45.4877 O.2       8 UNK        -0.5000 
     32 CA          0.3988  -19.7351  -45.9463 C.3       8 UNK         0.1400 
     33 CB         -0.8423  -18.8329  -45.9242 C.3       8 UNK        -0.1800 
     34 N           1.5842  -18.9492  -45.5927 N.am      8 UNK        -0.5000 
     35 C           2.8368  -19.4013  -45.7524 C.2       7 UNK         0.5000 
     36 O           3.0986  -20.5236  -46.1763 O.2       7 UNK        -0.5000 
     37 CA          3.9906  -18.4859  -45.3044 C.3       7 UNK         0.1400 
     38 CB          4.3547  -17.4863  -46.4102 C.3       7 UNK        -0.1800 
     39 N           3.7129  -17.7566  -44.0685 N.am      7 UNK        -0.5000 
     40 C           3.4193  -18.3187  -42.8893 C.2       6 UNK         0.5000 
     41 O           3.3577  -19.5356  -42.7107 O.2       6 UNK        -0.5000 
     42 CA          3.0933  -17.3729  -41.7168 C.3       6 UNK         0.1400 
     43 CB          3.5035  -15.9026  -41.9594 C.3       6 UNK        -0.1800 
     44 N           1.6783  -17.4466  -41.3398 N.am      6 UNK        -0.5000 
     45 C           0.6198  -17.2428  -42.1367 C.2       5 UNK         0.5000 
     46 O           0.6953  -17.0049  -43.3462 O.2       5 UNK        -0.5000 
     47 CA         -0.7535  -17.3082  -41.4553 C.3       5 UNK         0.1400 
     48 CB         -0.9538  -16.1249  -40.4895 C.3       5 UNK        -0.1800 
     49 N          -1.7937  -17.2799  -42.4751 N.am      5 UNK        -0.5000 
     50 C          -3.0315  -17.7631  -42.3457 C.2       4 UNK         0.5000 
     51 O          -3.4336  -18.3349  -41.3310 O.2       4 UNK        -0.5000 
     52 CA         -3.9815  -17.5240  -43.5377 C.3       4 UNK         0.1400 
     53 CB         -5.4041  -18.0501  -43.2746 C.3       4 UNK        -0.1800 
     54 N          -4.0558  -16.0977  -43.8692 N.am      4 UNK        -0.5000 
     55 C          -3.1985  -15.4495  -44.6656 C.2       3 UNK         0.5000 
     56 O          -2.2495  -15.9932  -45.2321 O.2       3 UNK        -0.5000 
     57 CA         -3.4242  -13.9480  -44.8633 C.3       3 UNK         0.1400 
     58 CB         -2.4218  -13.1249  -44.0380 C.3       3 UNK        -0.1800 
     59 N          -3.2573  -13.6630  -46.2829 N.am      3 UNK        -0.5000 
     60 C          -3.9261  -12.7310  -46.9703 C.2       2 UNK         0.5000 
     61 O          -4.6925  -11.9199  -46.4478 O.2       2 UNK        -0.5000 
     62 CA         -3.7405  -12.7453  -48.5015 C.3       2 UNK         0.1400 
     63 CB         -4.1303  -11.4159  -49.1819 C.3       2 UNK        -0.1800 
     64 N          -2.4112  -13.1980  -48.9270 N.am      2 UNK        -0.5000 
     65 C          -1.2446  -12.5548  -48.7697 C.2       1 UNK         0.5000 
     66 O          -1.1307  -11.4799  -48.1774 O.2       1 UNK        -0.5000 
     67 C           1.4126  -25.0993  -46.8544 C.2       11 UNK         0.5000 
     68 O           0.9254  -25.7486  -47.7805 O.2       11 UNK        -0.5000 
     69 N           0.9911  -25.2070  -45.5844 N.am      12 UNK        -0.5000 
     70 CA          0.0357  -26.1498  -44.9860 C.3       12 UNK         0.1400 
     71 CB          0.4932  -27.6066  -45.1902 C.3       12 UNK        -0.1800 
     72 C          -1.4375  -25.9727  -45.3980 C.2       12 UNK         0.5000 
     73 O          -2.3175  -26.2091  -44.5694 O.2       12 UNK        -0.5000 
     74 N          -1.6922  -25.5782  -46.6506 N.am      13 UNK        -0.5000 
     75 CA         -3.0285  -25.4038  -47.2207 C.3       13 UNK         0.1400 
     76 CB         -2.9095  -25.2256  -48.7414 C.3       13 UNK        -0.1800 
     77 C          -3.8323  -24.2576  -46.5761 C.2       13 UNK         0.5000 
     78 O          -5.0453  -24.3980  -46.4166 O.2       13 UNK        -0.5000 
     79 N          -3.1420  -23.1685  -46.1980 N.am      14 UNK        -0.5000 
     80 CA         -3.6515  -22.0090  -45.4524 C.3       14 UNK         0.1400 
     81 CB         -3.8845  -22.3902  -43.9770 C.3       14 UNK        -0.1800 
     82 C          -4.8729  -21.3092  -46.0920 C.2       14 UNK         0.5000 
     83 O          -5.7143  -20.7612  -45.3799 O.2       14 UNK        -0.5000 
     84 N          -4.9375  -21.3141  -47.4300 N.am      15 UNK        -0.5000 
     85 CA         -6.0298  -20.7446  -48.2276 C.3       15 UNK         0.1400 
     86 CB         -6.1373  -21.5318  -49.5399 C.3       15 UNK        -0.1800 
     87 C          -5.8744  -19.2300  -48.4891 C.2       15 UNK         0.5000 
     88 O          -6.6773  -18.6520  -49.2228 O.2       15 UNK        -0.5000 
     89 N          -4.8519  -18.6186  -47.8769 N.am      16 UNK        -0.5000 
     90 CA         -4.5217  -17.1945  -47.8127 C.3       16 UNK         0.1400 
     91 CB         -5.6716  -16.3799  -47.1882 C.3       16 UNK        -0.1800 
     92 C          -4.0541  -16.5661  -49.1346 C.2       16 UNK         0.5000 
     93 O          -2.9550  -16.0137  -49.1785 O.2       16 UNK        -0.5000 
     94 N          -4.8875  -16.6136  -50.1775 N.am      17 UNK        -0.5000 
     95 CA         -4.7179  -15.8701  -51.4308 C.3       17 UNK         0.1400 
     96 CB         -6.1027  -15.6150  -52.0507 C.3       17 UNK        -0.1800 
     97 C          -3.7062  -16.5079  -52.4096 C.2       17 UNK         0.5000 
     98 O          -4.0253  -16.7235  -53.5807 O.2       17 UNK        -0.5000 
     99 N          -2.4933  -16.7697  -51.9026 N.am      18 UNK        -0.5000 
    100 CA        -1.3053  -17.2670  -52.6056 C.3       18 UNK         0.1400 
    101 CB        -0.8097  -16.2111  -53.6174 C.3       18 UNK        -0.1800 
    102 C         -1.5015  -18.6585  -53.2445 C.2       18 UNK         0.5000 
    103 O         -2.4830  -19.3465  -52.9570 O.2       18 UNK        -0.5000 
    104 N         -0.5618  -19.0617  -54.1098 N.am      19 UNK        -0.5000 
    105 CA        -0.5474  -20.3504  -54.8138 C.3       19 UNK         0.1400 
    106 CB         0.7745  -20.4746  -55.5865 C.3       19 UNK        -0.1800 
    107 C         -1.7506  -20.5855  -55.7532 C.2       19 UNK         0.5000 
    108 O         -2.0079  -21.7284  -56.1302 O.2       19 UNK        -0.5000 
    109 N         -2.4744  -19.5127  -56.1023 N.am      20 UNK        -0.5000 
    110 CA        -3.7449  -19.5622  -56.8237 C.3       20 UNK         0.1400 
    111 CB        -4.1207  -18.1420  -57.2729 C.3       20 UNK        -0.1800 
    112 C         -4.8803  -20.1825  -55.9847 C.2       20 UNK         0.5000 
    113 O         -5.7475  -20.8508  -56.5492 O.2       20 UNK        -0.5000 
    114 N         -4.8513  -19.9596  -54.6636 N.am      21 UNK        -0.5000 
    115 CA        -5.7941  -20.5308  -53.7047 C.3       21 UNK         0.1400 
    116 CB        -6.1416  -19.4742  -52.6489 C.3       21 UNK        -0.1800 
    117 C         -5.2092  -21.7923  -53.0538 C.2       21 UNK         0.5000 
    118 O         -5.8943  -22.8142  -52.9850 O.2       21 UNK        -0.5000 
    119 N         -3.9462  -21.7131  -52.6151 N.am      22 UNK        -0.5000 
    120 CA        -3.1508  -22.8246  -52.0736 C.3       22 UNK         0.1400 
    121 C         -2.7080  -23.8233  -53.1871 C.2       22 UNK         0.5000 
    122 N         -3.6466  -24.4566  -53.8765 N.am      22 UNK        -0.7600 
    123 O         -1.5226  -24.0333  -53.4312 O.2       22 UNK        -0.5000 
    124 C124       -1.9569  -22.3082  -51.2267 C.3       23 UNK        -0.0398 
    125 S125       -2.4266  -21.6758  -49.5762 S.3       23 UNK        -0.2404 
    126 C126       -1.9171  -19.9224  -49.6073 C.3       23 UNK        -0.0205 
    127 H127        1.5441  -10.8471  -52.2587 H         1 UNK         0.0600 
    128 H128       -0.0362  -10.3258  -52.8502 H         1 UNK         0.0600 
    129 H129        0.7636  -11.7232  -53.5782 H         1 UNK         0.0600 
    130 H130        1.3976  -11.9058  -50.3212 H         1 UNK         0.3000 
    131 H131        0.7849  -13.1328  -48.6093 H         1 UNK         0.0600 
    132 H132       -0.8594  -14.8300  -50.5573 H         1 UNK         0.0800 
    133 H133       -0.4854  -15.2577  -48.9043 H         1 UNK         0.0800 
    134 H134        1.4001  -16.2771  -48.0550 H         1 UNK         0.0800 
    135 H135        2.9157  -16.5837  -48.8564 H         1 UNK         0.0800 
    136 H136       -0.7109  -17.5854  -49.0649 H         1 UNK         0.1150 
    137 H137        0.2684  -21.6222  -50.1480 H         1 UNK         0.1150 
    138 H138        3.3685  -18.7407  -49.6960 H         1 UNK         0.1150 
    139 H139        2.4786  -22.0840  -51.0279 H         1 UNK         0.0800 
    140 H140        3.7406  -20.8876  -50.9168 H         1 UNK         0.0800 
    141 H141        1.7119  -23.6184  -49.1114 H         1 UNK         0.0800 
    142 H142        1.4500  -22.3939  -47.8881 H         1 UNK         0.0800 
    143 H143        3.3825  -24.7353  -47.5482 H         1 UNK         0.0600 
    144 H144        2.8256  -22.4506  -45.8727 H         1 UNK         0.3000 
    145 H145        4.3180  -23.8056  -42.9278 H         1 UNK         0.0600 
    146 H146        5.4909  -21.5996  -43.0428 H         1 UNK         0.0600 
    147 H147        6.2104  -22.7722  -44.1372 H         1 UNK         0.0600 
    148 H148        5.1655  -21.5113  -44.7731 H         1 UNK         0.0600 
    149 H149        3.0231  -21.3215  -43.3974 H         1 UNK         0.3000 
    150 H150       -0.3471  -22.4373  -42.8593 H         1 UNK         0.0600 
    151 H151        0.5996  -22.0513  -40.5865 H         1 UNK         0.0600 
    152 H152       -0.2635  -20.6387  -41.1706 H         1 UNK         0.0600 
    153 H153        1.5002  -20.6619  -41.1765 H         1 UNK         0.0600 
    154 H154        1.0127  -19.9285  -43.4817 H         1 UNK         0.3000 
    155 H155        0.5342  -20.1091  -46.9624 H         1 UNK         0.0600 
    156 H156       -1.0751  -18.5007  -44.9136 H         1 UNK         0.0600 
    157 H157       -1.7157  -19.3574  -46.3094 H         1 UNK         0.0600 
    158 H158       -0.7000  -17.9445  -46.5392 H         1 UNK         0.0600 
    159 H159        1.4293  -18.0471  -45.1576 H         1 UNK         0.3000 
    160 H160        4.8600  -19.1206  -45.1236 H         1 UNK         0.0600 
    161 H161        3.5623  -16.7529  -46.5600 H         1 UNK         0.0600 
    162 H162        4.5227  -17.9956  -47.3602 H         1 UNK         0.0600 
    163 H163        5.2689  -16.9453  -46.1659 H         1 UNK         0.0600 
    164 H164        3.7032  -16.7492  -44.1305 H         1 UNK         0.3000 
    165 H165        3.6660  -17.7393  -40.8636 H         1 UNK         0.0600 
    166 H166        3.3397  -15.3037  -41.0634 H         1 UNK         0.0600 
    167 H167        4.5633  -15.8238  -42.2054 H         1 UNK         0.0600 
    168 H168        2.9359  -15.4404  -42.7678 H         1 UNK         0.0600 
    169 H169        1.5080  -17.6665  -40.3686 H         1 UNK         0.3000 
    170 H170       -0.8111  -18.2477  -40.9025 H         1 UNK         0.0600 
    171 H171       -0.1976  -16.1188  -39.7038 H         1 UNK         0.0600 
    172 H172       -0.8940  -15.1690  -41.0116 H         1 UNK         0.0600 
    173 H173       -1.9253  -16.1753  -39.9975 H         1 UNK         0.0600 
    174 H174       -1.5112  -16.8593  -43.3558 H         1 UNK         0.3000 
    175 H175       -3.5802  -18.0768  -44.3897 H         1 UNK         0.0600 
    176 H176       -5.8788  -17.5336  -42.4396 H         1 UNK         0.0600 
    177 H177       -6.0408  -17.9289  -44.1503 H         1 UNK         0.0600 
    178 H178       -5.3898  -19.1149  -43.0383 H         1 UNK         0.0600 
    179 H179       -4.7876  -15.5757  -43.4087 H         1 UNK         0.3000 
    180 H180       -4.4413  -13.7005  -44.5516 H         1 UNK         0.0600 
    181 H181       -1.3918  -13.3433  -44.3235 H         1 UNK         0.0600 
    182 H182       -2.5216  -13.3405  -42.9735 H         1 UNK         0.0600 
    183 H183       -2.5859  -12.0555  -44.1716 H         1 UNK         0.0600 
    184 H184       -2.6580  -14.3129  -46.7755 H         1 UNK         0.3000 
    185 H185       -4.4369  -13.4997  -48.8691 H         1 UNK         0.0600 
    186 H186       -5.1814  -11.1824  -49.0087 H         1 UNK         0.0600 
    187 H187       -3.5454  -10.5772  -48.8041 H         1 UNK         0.0600 
    188 H188       -3.9843  -11.4685  -50.2610 H         1 UNK         0.0600 
    189 H189       -2.4043  -14.1110  -49.3682 H         1 UNK         0.3000 
    190 H190        1.4269  -24.5938  -44.9068 H         1 UNK         0.3000 
    191 H191        0.0704  -25.9533  -43.9139 H         1 UNK         0.0600 
    192 H192        0.4663  -27.9000  -46.2399 H         1 UNK         0.0600 
    193 H193       -0.1516  -28.2966  -44.6444 H         1 UNK         0.0600 
    194 H194        1.5097  -27.7548  -44.8252 H         1 UNK         0.0600 
    195 H195       -0.8976  -25.4659  -47.2727 H         1 UNK         0.3000 
    196 H196       -3.5888  -26.3233  -47.0384 H         1 UNK         0.0600 
    197 H197       -2.1818  -24.4571  -48.9964 H         1 UNK         0.0600 
    198 H198       -3.8646  -24.9453  -49.1878 H         1 UNK         0.0600 
    199 H199       -2.5869  -26.1515  -49.2178 H         1 UNK         0.0600 
    200 H200       -2.1433  -23.1614  -46.3649 H         1 UNK         0.3000 
    201 H201       -2.8543  -21.2677  -45.4685 H         1 UNK         0.0600 
    202 H202       -2.9899  -22.8365  -43.5421 H         1 UNK         0.0600 
    203 H203       -4.7011  -23.1051  -43.8713 H         1 UNK         0.0600 
    204 H204       -4.1320  -21.5142  -43.3761 H         1 UNK         0.0600 
    205 H205       -4.1972  -21.7709  -47.9468 H         1 UNK         0.3000 
    206 H206       -6.9665  -20.8797  -47.6830 H         1 UNK         0.0600 
    207 H207       -6.1760  -22.6065  -49.3605 H         1 UNK         0.0600 
    208 H208       -7.0433  -21.2637  -50.0833 H         1 UNK         0.0600 
    209 H209       -5.2882  -21.3294  -50.1896 H         1 UNK         0.0600 
    210 H210       -4.2601  -19.2176  -47.3224 H         1 UNK         0.3000 
    211 H211       -3.6724  -17.1334  -47.1327 H         1 UNK         0.0600 
    212 H212       -6.5749  -16.4062  -47.7980 H         1 UNK         0.0600 
    213 H213       -5.3964  -15.3330  -47.0723 H         1 UNK         0.0600 
    214 H214       -5.9286  -16.7573  -46.1997 H         1 UNK         0.0600 
    215 H215       -5.7375  -17.1605  -50.0722 H         1 UNK         0.3000 
    216 H216       -4.3062  -14.8882  -51.1869 H         1 UNK         0.0600 
    217 H217       -6.0229  -15.0708  -52.9926 H         1 UNK         0.0600 
    218 H218       -6.7217  -15.0136  -51.3848 H         1 UNK         0.0600 
    219 H219       -6.6370  -16.5422  -52.2469 H         1 UNK         0.0600 
    220 H220       -2.3776  -16.5902  -50.9110 H         1 UNK         0.3000 
    221 H221       -0.5312  -17.3858  -51.8485 H         1 UNK         0.0600 
    222 H222       -1.4810  -16.1214  -54.4722 H         1 UNK         0.0600 
    223 H223       -0.7343  -15.2285  -53.1509 H         1 UNK         0.0600 
    224 H224        0.1826  -16.4532  -53.9982 H         1 UNK         0.0600 
    225 H225        0.2156  -18.4461  -54.2993 H         1 UNK         0.3000 
    226 H226       -0.5751  -21.1395  -54.0599 H         1 UNK         0.0600 
    227 H227        1.6317  -20.4056  -54.9164 H         1 UNK         0.0600 
    228 H228        0.8409  -21.4365  -56.0967 H         1 UNK         0.0600 
    229 H229        0.8728  -19.6943  -56.3422 H         1 UNK         0.0600 
    230 H230       -2.1894  -18.6113  -55.7496 H         1 UNK         0.3000 
    231 H231       -3.6097  -20.1800  -57.7140 H         1 UNK         0.0600 
    232 H232       -3.3550  -17.7173  -57.9222 H         1 UNK         0.0600 
    233 H233       -4.2498  -17.4720  -56.4215 H         1 UNK         0.0600 
    234 H234       -5.0566  -18.1450  -57.8332 H         1 UNK         0.0600 
    235 H235       -4.0844  -19.4239  -54.2722 H         1 UNK         0.3000 
    236 H236       -6.7209  -20.8104  -54.2101 H         1 UNK         0.0600 
    237 H237       -6.5606  -18.5903  -53.1262 H         1 UNK         0.0600 
    238 H238       -6.8898  -19.8472  -51.9503 H         1 UNK         0.0600 
    239 H239       -5.2690  -19.1672  -52.0709 H         1 UNK         0.0600 
    240 H240       -3.4483  -20.8318  -52.7246 H         1 UNK         0.3000 
    241 H241       -3.7898  -23.4023  -51.4030 H         1 UNK         0.0600 
    242 H242       -3.3883  -25.1026  -54.6053 H         1 UNK         0.3800 
    243 H243       -4.6215  -24.2412  -53.7017 H         1 UNK         0.3800 
    244 H244       -1.4041  -21.5496  -51.7808 H         1 UNK         0.0800 
    245 H245       -1.2511  -23.1188  -51.0379 H         1 UNK         0.0800 
    246 H246       -2.3935  -19.4260  -50.4496 H         1 UNK         0.0800 
    247 H247       -2.3358  -19.4570  -48.7163 H         1 UNK         0.0800 
@<TRIPOS>BOND
     1    1    2 1    
     2    1  127 1    
     3    1  128 1    
     4    1  129 1    
     5    2    3 2    
     6    2    4 am   BACKBONE|DICT|INTERRES
     7    4    5 1    
     8    4  130 1    
     9    5    6 1    
    10    5   65 1    
    11    5  131 1    
    12    6    7 1    
    13    6  132 1    
    14    6  133 1    
    15    7    8 1    
    16    8    9 1    
    17    8  134 1    
    18    8  135 1    
    19    9   10 ar   
    20    9   14 ar   
    21   10   11 ar   
    22   10  136 1    
    23   11   12 ar   
    24   11  126 1    
    25   12   13 ar   
    26   12  137 1    
    27   13   14 ar   
    28   13   15 1    
    29   14  138 1    
    30   15   16 1    
    31   15  139 1    
    32   15  140 1    
    33   16   17 1    
    34   17   18 1    
    35   17  141 1    
    36   17  142 1    
    37   18   19 1    
    38   18   67 1    
    39   18  143 1    
    40   19   20 am   BACKBONE|DICT|INTERRES
    41   19  144 1    
    42   20   21 2    
    43   20   22 1    
    44   22   23 1    
    45   22   24 1    
    46   22  145 1    
    47   23  146 1    
    48   23  147 1    
    49   23  148 1    
    50   24   25 am   BACKBONE|DICT|INTERRES
    51   24  149 1    
    52   25   26 2    
    53   25   27 1    
    54   27   28 1    
    55   27   29 1    
    56   27  150 1    
    57   28  151 1    
    58   28  152 1    
    59   28  153 1    
    60   29   30 am   BACKBONE|DICT|INTERRES
    61   29  154 1    
    62   30   31 2    
    63   30   32 1    
    64   32   33 1    
    65   32   34 1    
    66   32  155 1    
    67   33  156 1    
    68   33  157 1    
    69   33  158 1    
    70   34   35 am   BACKBONE|DICT|INTERRES
    71   34  159 1    
    72   35   36 2    
    73   35   37 1    
    74   37   38 1    
    75   37   39 1    
    76   37  160 1    
    77   38  161 1    
    78   38  162 1    
    79   38  163 1    
    80   39   40 am   BACKBONE|DICT|INTERRES
    81   39  164 1    
    82   40   41 2    
    83   40   42 1    
    84   42   43 1    
    85   42   44 1    
    86   42  165 1    
    87   43  166 1    
    88   43  167 1    
    89   43  168 1    
    90   44   45 am   BACKBONE|DICT|INTERRES
    91   44  169 1    
    92   45   46 2    
    93   45   47 1    
    94   47   48 1    
    95   47   49 1    
    96   47  170 1    
    97   48  171 1    
    98   48  172 1    
    99   48  173 1    
   100   49   50 am   BACKBONE|DICT|INTERRES
   101   49  174 1    
   102   50   51 2    
   103   50   52 1    
   104   52   53 1    
   105   52   54 1    
   106   52  175 1    
   107   53  176 1    
   108   53  177 1    
   109   53  178 1    
   110   54   55 am   BACKBONE|DICT|INTERRES
   111   54  179 1    
   112   55   56 2    
   113   55   57 1    
   114   57   58 1    
   115   57   59 1    
   116   57  180 1    
   117   58  181 1    
   118   58  182 1    
   119   58  183 1    
   120   59   60 am   BACKBONE|DICT|INTERRES
   121   59  184 1    
   122   60   61 2    
   123   60   62 1    
   124   62   63 1    
   125   62   64 1    
   126   62  185 1    
   127   63  186 1    
   128   63  187 1    
   129   63  188 1    
   130   64   65 am   BACKBONE|DICT|INTERRES
   131   64  189 1    
   132   65   66 2    
   133   67   68 2    
   134   67   69 am   BACKBONE|DICT|INTERRES
   135   69   70 1    
   136   69  190 1    
   137   70   71 1    
   138   70   72 1    
   139   70  191 1    
   140   71  192 1    
   141   71  193 1    
   142   71  194 1    
   143   72   73 2    
   144   72   74 am   BACKBONE|DICT|INTERRES
   145   74   75 1    
   146   74  195 1    
   147   75   76 1    
   148   75   77 1    
   149   75  196 1    
   150   76  197 1    
   151   76  198 1    
   152   76  199 1    
   153   77   78 2    
   154   77   79 am   BACKBONE|DICT|INTERRES
   155   79   80 1    
   156   79  200 1    
   157   80   81 1    
   158   80   82 1    
   159   80  201 1    
   160   81  202 1    
   161   81  203 1    
   162   81  204 1    
   163   82   83 2    
   164   82   84 am   BACKBONE|DICT|INTERRES
   165   84   85 1    
   166   84  205 1    
   167   85   86 1    
   168   85   87 1    
   169   85  206 1    
   170   86  207 1    
   171   86  208 1    
   172   86  209 1    
   173   87   88 2    
   174   87   89 am   BACKBONE|DICT|INTERRES
   175   89   90 1    
   176   89  210 1    
   177   90   91 1    
   178   90   92 1    
   179   90  211 1    
   180   91  212 1    
   181   91  213 1    
   182   91  214 1    
   183   92   93 2    
   184   92   94 am   BACKBONE|DICT|INTERRES
   185   94   95 1    
   186   94  215 1    
   187   95   96 1    
   188   95   97 1    
   189   95  216 1    
   190   96  217 1    
   191   96  218 1    
   192   96  219 1    
   193   97   98 2    
   194   97   99 am   BACKBONE|DICT|INTERRES
   195   99  100 1    
   196   99  220 1    
   197  100  101 1    
   198  100  102 1    
   199  100  221 1    
   200  101  222 1    
   201  101  223 1    
   202  101  224 1    
   203  102  103 2    
   204  102  104 am   BACKBONE|DICT|INTERRES
   205  104  105 1    
   206  104  225 1    
   207  105  106 1    
   208  105  107 1    
   209  105  226 1    
   210  106  227 1    
   211  106  228 1    
   212  106  229 1    
   213  107  108 2    
   214  107  109 am   BACKBONE|DICT|INTERRES
   215  109  110 1    
   216  109  230 1    
   217  110  111 1    
   218  110  112 1    
   219  110  231 1    
   220  111  232 1    
   221  111  233 1    
   222  111  234 1    
   223  112  113 2    
   224  112  114 am   BACKBONE|DICT|INTERRES
   225  114  115 1    
   226  114  235 1    
   227  115  116 1    
   228  115  117 1    
   229  115  236 1    
   230  116  237 1    
   231  116  238 1    
   232  116  239 1    
   233  117  118 2    
   234  117  119 am   BACKBONE|DICT|INTERRES
   235  119  120 1    
   236  119  240 1    
   237  120  121 1    
   238  120  124 1    
   239  120  241 1    
   240  121  122 am   BACKBONE|DICT|INTERRES
   241  121  123 2    
   242  122  242 1    
   243  122  243 1    
   244  124  125 1    
   245  124  244 1    
   246  124  245 1    
   247  125  126 1    
   248  126  246 1    
   249  126  247 1    
@<TRIPOS>SUBSTRUCTURE
     1 UNK         1 GROUP             0       ****    0 ROOT    
