@<TRIPOS>MOLECULE
3R540
247   249    1
SMALL
USER_CHARGES


@<TRIPOS>ATOM
      1 CA          0.3962  -12.9876  -47.8962 C.3       0 UNK        -0.1800 
      2 C           1.6342  -12.3681  -48.5249 C.2       0 UNK         0.5000 
      3 O           1.5332  -11.3069  -49.1389 O.2       0 UNK        -0.5000 
      4 N           2.7940  -13.0190  -48.3475 N.am      1 UNK        -0.5000 
      5 CA          4.0952  -12.7286  -48.9767 C.3       1 UNK         0.1400 
      6 C6          5.2245  -13.6588  -48.4549 C.3       23 UNK        -0.0398 
      7 S7          4.7309  -15.4107  -48.3173 S.3       23 UNK        -0.2404 
      8 C8          4.8878  -15.9656  -50.0402 C.3       23 UNK        -0.0205 
      9 C9          3.7430  -16.8963  -50.3987 C.ar      23 UNK        -0.0193 
     10 C10         2.5413  -16.3733  -50.8813 C.ar      23 UNK        -0.1150 
     11 C11         1.4709  -17.2171  -51.1937 C.ar      23 UNK        -0.0193 
     12 C12         1.6180  -18.5998  -51.0345 C.ar      23 UNK        -0.1150 
     13 C13         2.8214  -19.1346  -50.5612 C.ar      23 UNK        -0.0193 
     14 C14         3.8776  -18.2770  -50.2406 C.ar      23 UNK        -0.1150 
     15 C15         3.0016  -20.6373  -50.4108 C.3       23 UNK        -0.0205 
     16 S16         2.5384  -21.2068  -48.7457 S.3       23 UNK        -0.2404 
     17 C17         0.7408  -21.4505  -48.9283 C.3       23 UNK        -0.0398 
     18 CA          0.2294  -22.5837  -48.0097 C.3       11 UNK         0.1400 
     19 N           0.2247  -22.1987  -46.5974 N.am      11 UNK        -0.5000 
     20 C           0.0109  -23.0450  -45.5811 C.2       10 UNK         0.5000 
     21 O          -0.1469  -24.2584  -45.7216 O.2       10 UNK        -0.5000 
     22 CA         -0.1081  -22.4212  -44.1796 C.3       10 UNK         0.1400 
     23 CB          1.2776  -22.1047  -43.5981 C.3       10 UNK        -0.1800 
     24 N          -0.9413  -21.2162  -44.1770 N.am      10 UNK        -0.5000 
     25 C          -2.2476  -21.2064  -44.4809 C.2       9 UNK         0.5000 
     26 O          -2.8911  -22.2214  -44.7428 O.2       9 UNK        -0.5000 
     27 CA         -2.9522  -19.8405  -44.5369 C.3       9 UNK         0.1400 
     28 CB         -3.3521  -19.3797  -43.1278 C.3       9 UNK        -0.1800 
     29 N          -2.1423  -18.8093  -45.1821 N.am      9 UNK        -0.5000 
     30 C          -1.7847  -18.8072  -46.4745 C.2       8 UNK         0.5000 
     31 O          -2.1362  -19.6586  -47.2914 O.2       8 UNK        -0.5000 
     32 CA         -0.8412  -17.6778  -46.9226 C.3       8 UNK         0.1400 
     33 CB         -1.6303  -16.3808  -47.1293 C.3       8 UNK        -0.1800 
     34 N           0.2509  -17.4455  -45.9769 N.am      8 UNK        -0.5000 
     35 C           1.1601  -18.3679  -45.6288 C.2       7 UNK         0.5000 
     36 O           1.1986  -19.5057  -46.0947 O.2       7 UNK        -0.5000 
     37 CA          2.1442  -17.9736  -44.5174 C.3       7 UNK         0.1400 
     38 CB          3.2924  -17.1167  -45.0735 C.3       7 UNK        -0.1800 
     39 N           1.4625  -17.2661  -43.4322 N.am      7 UNK        -0.5000 
     40 C           0.6191  -17.8528  -42.5692 C.2       6 UNK         0.5000 
     41 O           0.3645  -19.0567  -42.5776 O.2       6 UNK        -0.5000 
     42 CA         -0.0877  -16.9405  -41.5487 C.3       6 UNK         0.1400 
     43 CB          0.8035  -16.7135  -40.3187 C.3       6 UNK        -0.1800 
     44 N          -0.4733  -15.6466  -42.1124 N.am      6 UNK        -0.5000 
     45 C          -1.3859  -15.4811  -43.0803 C.2       5 UNK         0.5000 
     46 O          -2.0410  -16.4035  -43.5625 O.2       5 UNK        -0.5000 
     47 CA         -1.5586  -14.0548  -43.6397 C.3       5 UNK         0.1400 
     48 CB         -2.6502  -13.3008  -42.8667 C.3       5 UNK        -0.1800 
     49 N          -0.3258  -13.2607  -43.6326 N.am      5 UNK        -0.5000 
     50 C           0.8127  -13.6031  -44.2475 C.2       4 UNK         0.5000 
     51 O           0.9499  -14.6430  -44.8948 O.2       4 UNK        -0.5000 
     52 CA          1.9769  -12.6050  -44.1278 C.3       4 UNK         0.1400 
     53 CB          3.3336  -13.2467  -44.4724 C.3       4 UNK        -0.1800 
     54 N           1.7630  -11.4654  -45.0130 N.am      4 UNK        -0.5000 
     55 C           0.9827  -10.4037  -44.7708 C.2       3 UNK         0.5000 
     56 O           0.3306  -10.2640  -43.7345 O.2       3 UNK        -0.5000 
     57 CA          0.9238   -9.3371  -45.8897 C.3       3 UNK         0.1400 
     58 CB          0.5567   -7.9324  -45.3676 C.3       3 UNK        -0.1800 
     59 N           2.1435   -9.3084  -46.7130 N.am      3 UNK        -0.5000 
     60 C           3.3829   -8.9695  -46.3188 C.2       2 UNK         0.5000 
     61 O           3.6569   -8.5213  -45.2049 O.2       2 UNK        -0.5000 
     62 CA          4.5033   -9.2904  -47.3221 C.3       2 UNK         0.1400 
     63 CB          5.9160   -8.9823  -46.7919 C.3       2 UNK        -0.1800 
     64 N           4.3974  -10.7096  -47.6453 N.am      2 UNK        -0.5000 
     65 C           4.5293  -11.2518  -48.8594 C.2       1 UNK         0.5000 
     66 O           4.9212  -10.6393  -49.8535 O.2       1 UNK        -0.5000 
     67 C          -1.1501  -23.0988  -48.4667 C.2       11 UNK         0.5000 
     68 O          -1.2044  -24.1051  -49.1719 O.2       11 UNK        -0.5000 
     69 N          -2.2368  -22.4419  -48.0332 N.am      12 UNK        -0.5000 
     70 CA         -3.6118  -22.8642  -48.3088 C.3       12 UNK         0.1400 
     71 CB         -4.6035  -21.7928  -47.8373 C.3       12 UNK        -0.1800 
     72 C          -3.9478  -24.2258  -47.6826 C.2       12 UNK         0.5000 
     73 O          -4.5568  -25.0587  -48.3511 O.2       12 UNK        -0.5000 
     74 N          -3.5140  -24.4460  -46.4343 N.am      13 UNK        -0.5000 
     75 CA         -3.6488  -25.7159  -45.7216 C.3       13 UNK         0.1400 
     76 CB         -3.2056  -25.5432  -44.2611 C.3       13 UNK        -0.1800 
     77 C          -2.8742  -26.8567  -46.4050 C.2       13 UNK         0.5000 
     78 O          -3.4292  -27.9417  -46.5802 O.2       13 UNK        -0.5000 
     79 N          -1.6321  -26.5777  -46.8275 N.am      14 UNK        -0.5000 
     80 CA         -0.7824  -27.5022  -47.5832 C.3       14 UNK         0.1400 
     81 CB          0.6275  -26.9078  -47.7179 C.3       14 UNK        -0.1800 
     82 C          -1.3605  -27.8586  -48.9673 C.2       14 UNK         0.5000 
     83 O          -1.2700  -29.0131  -49.3861 O.2       14 UNK        -0.5000 
     84 N          -1.9735  -26.8718  -49.6336 N.am      15 UNK        -0.5000 
     85 CA         -2.6659  -27.0207  -50.9144 C.3       15 UNK         0.1400 
     86 CB         -2.7498  -25.6433  -51.5927 C.3       15 UNK        -0.1800 
     87 C          -4.0753  -27.6353  -50.7939 C.2       15 UNK         0.5000 
     88 O          -4.7095  -27.8621  -51.8236 O.2       15 UNK        -0.5000 
     89 N          -4.5687  -27.8491  -49.5642 N.am      16 UNK        -0.5000 
     90 CA         -5.9213  -28.3083  -49.2218 C.3       16 UNK         0.1400 
     91 CB         -6.1142  -29.7830  -49.6311 C.3       16 UNK        -0.1800 
     92 C          -7.0240  -27.3758  -49.7746 C.2       16 UNK         0.5000 
     93 O          -8.0628  -27.8447  -50.2425 O.2       16 UNK        -0.5000 
     94 N          -6.7459  -26.0648  -49.7313 N.am      17 UNK        -0.5000 
     95 CA         -7.5440  -24.9382  -50.2241 C.3       17 UNK         0.1400 
     96 CB         -8.8924  -24.8505  -49.4804 C.3       17 UNK        -0.1800 
     97 C          -7.7131  -24.8825  -51.7591 C.2       17 UNK         0.5000 
     98 O          -8.5019  -24.0694  -52.2436 O.2       17 UNK        -0.5000 
     99 N          -6.9669  -25.7065  -52.5105 N.am      18 UNK        -0.5000 
    100 CA        -6.9913  -25.7299  -53.9769 C.3       18 UNK         0.1400 
    101 CB        -6.5161  -27.1060  -54.4679 C.3       18 UNK        -0.1800 
    102 C         -6.1443  -24.6105  -54.6159 C.2       18 UNK         0.5000 
    103 O         -6.2826  -24.3605  -55.8143 O.2       18 UNK        -0.5000 
    104 N         -5.2830  -23.9650  -53.8224 N.am      19 UNK        -0.5000 
    105 CA        -4.3972  -22.8766  -54.2176 C.3       19 UNK         0.1400 
    106 CB        -3.1307  -23.4512  -54.8832 C.3       19 UNK        -0.1800 
    107 C         -4.0584  -22.0319  -52.9785 C.2       19 UNK         0.5000 
    108 O         -4.4725  -22.3774  -51.8680 O.2       19 UNK        -0.5000 
    109 N         -3.3001  -20.9500  -53.2024 N.am      20 UNK        -0.5000 
    110 CA        -2.8532  -19.9610  -52.2178 C.3       20 UNK         0.1400 
    111 CB        -1.8922  -20.5934  -51.1894 C.3       20 UNK        -0.1800 
    112 C         -4.0317  -19.1776  -51.6021 C.2       20 UNK         0.5000 
    113 O         -4.9160  -18.7579  -52.3514 O.2       20 UNK        -0.5000 
    114 N         -3.9969  -18.9447  -50.2796 N.am      21 UNK        -0.5000 
    115 CA        -4.9207  -18.0973  -49.5093 C.3       21 UNK         0.1400 
    116 CB        -6.3494  -18.6826  -49.5092 C.3       21 UNK        -0.1800 
    117 C         -4.8726  -16.6166  -49.9524 C.2       21 UNK         0.5000 
    118 O         -5.8938  -15.9266  -49.9489 O.2       21 UNK        -0.5000 
    119 N         -3.6741  -16.1729  -50.3487 N.am      22 UNK        -0.5000 
    120 CA        -3.3458  -14.8115  -50.7865 C.3       22 UNK         0.1400 
    121 C         -3.4696  -13.7278  -49.6738 C.2       22 UNK         0.5000 
    122 N         -3.5461  -12.4581  -50.0505 N.am      22 UNK        -0.7600 
    123 O         -3.4826  -14.0126  -48.4790 O.2       22 UNK        -0.5000 
    124 C124       -1.9621  -14.7801  -51.4911 C.3       23 UNK        -0.0398 
    125 S125       -0.6036  -15.5144  -50.5092 S.3       23 UNK        -0.2404 
    126 C126        0.1725  -16.6256  -51.7246 C.3       23 UNK        -0.0205 
    127 H127       -0.3753  -13.1347  -48.6517 H         1 UNK         0.0600 
    128 H128       -0.0109  -12.3375  -47.1231 H         1 UNK         0.0600 
    129 H129        0.6214  -13.9550  -47.4497 H         1 UNK         0.0600 
    130 H130        2.7772  -13.8944  -47.8417 H         1 UNK         0.3000 
    131 H131        3.9614  -12.9324  -50.0406 H         1 UNK         0.0600 
    132 H132        6.1072  -13.5860  -49.0930 H         1 UNK         0.0800 
    133 H133        5.5479  -13.3490  -47.4594 H         1 UNK         0.0800 
    134 H134        5.8477  -16.4672  -50.1723 H         1 UNK         0.0800 
    135 H135        4.8908  -15.1136  -50.7212 H         1 UNK         0.0800 
    136 H136        2.4318  -15.3044  -51.0009 H         1 UNK         0.1150 
    137 H137        0.8028  -19.2617  -51.2863 H         1 UNK         0.1150 
    138 H138        4.8056  -18.6850  -49.8651 H         1 UNK         0.1150 
    139 H139        2.4343  -21.1715  -51.1741 H         1 UNK         0.0800 
    140 H140        4.0470  -20.8970  -50.5842 H         1 UNK         0.0800 
    141 H141        0.5372  -21.6922  -49.9720 H         1 UNK         0.0800 
    142 H142        0.2281  -20.5105  -48.7178 H         1 UNK         0.0800 
    143 H143        0.9151  -23.4282  -48.1088 H         1 UNK         0.0600 
    144 H144        0.4038  -21.2180  -46.3945 H         1 UNK         0.3000 
    145 H145       -0.5859  -23.1572  -43.5297 H         1 UNK         0.0600 
    146 H146        1.2006  -21.7401  -42.5737 H         1 UNK         0.0600 
    147 H147        1.9056  -22.9962  -43.5796 H         1 UNK         0.0600 
    148 H148        1.7993  -21.3479  -44.1840 H         1 UNK         0.0600 
    149 H149       -0.4851  -20.3466  -43.9225 H         1 UNK         0.3000 
    150 H150       -3.8646  -19.9610  -45.1240 H         1 UNK         0.0600 
    151 H151       -3.9664  -20.1310  -42.6299 H         1 UNK         0.0600 
    152 H152       -3.9330  -18.4580  -43.1654 H         1 UNK         0.0600 
    153 H153       -2.4790  -19.1991  -42.5001 H         1 UNK         0.0600 
    154 H154       -1.8598  -18.0279  -44.5972 H         1 UNK         0.3000 
    155 H155       -0.3982  -17.9671  -47.8782 H         1 UNK         0.0600 
    156 H156       -2.0903  -16.0289  -46.2071 H         1 UNK         0.0600 
    157 H157       -2.4306  -16.5267  -47.8535 H         1 UNK         0.0600 
    158 H158       -0.9933  -15.5850  -47.5089 H         1 UNK         0.0600 
    159 H159        0.3090  -16.5267  -45.5516 H         1 UNK         0.3000 
    160 H160        2.5767  -18.8896  -44.1093 H         1 UNK         0.0600 
    161 H161        2.9314  -16.2034  -45.5455 H         1 UNK         0.0600 
    162 H162        3.8537  -17.6678  -45.8293 H         1 UNK         0.0600 
    163 H163        3.9937  -16.8350  -44.2882 H         1 UNK         0.0600 
    164 H164        1.5528  -16.2599  -43.4233 H         1 UNK         0.3000 
    165 H165       -0.9965  -17.4503  -41.2219 H         1 UNK         0.0600 
    166 H166        0.2824  -16.1354  -39.5554 H         1 UNK         0.0600 
    167 H167        1.0913  -17.6631  -39.8655 H         1 UNK         0.0600 
    168 H168        1.7202  -16.1815  -40.5765 H         1 UNK         0.0600 
    169 H169        0.0161  -14.8332  -41.7702 H         1 UNK         0.3000 
    170 H170       -1.8798  -14.1476  -44.6789 H         1 UNK         0.0600 
    171 H171       -3.5895  -13.8556  -42.8762 H         1 UNK         0.0600 
    172 H172       -2.3704  -13.1450  -41.8241 H         1 UNK         0.0600 
    173 H173       -2.8460  -12.3250  -43.3118 H         1 UNK         0.0600 
    174 H174       -0.3670  -12.3576  -43.1765 H         1 UNK         0.3000 
    175 H175        2.0223  -12.2565  -43.0937 H         1 UNK         0.0600 
    176 H176        3.3677  -13.6060  -45.5013 H         1 UNK         0.0600 
    177 H177        4.1503  -12.5372  -44.3382 H         1 UNK         0.0600 
    178 H178        3.5368  -14.0991  -43.8229 H         1 UNK         0.0600 
    179 H179        2.2156  -11.5093  -45.9094 H         1 UNK         0.3000 
    180 H180        0.1214   -9.6534  -46.5577 H         1 UNK         0.0600 
    181 H181        1.2615   -7.5790  -44.6148 H         1 UNK         0.0600 
    182 H182       -0.4326   -7.9343  -44.9086 H         1 UNK         0.0600 
    183 H183        0.5356   -7.2035  -46.1776 H         1 UNK         0.0600 
    184 H184        2.0354   -9.6770  -47.6517 H         1 UNK         0.3000 
    185 H185        4.3216   -8.6836  -48.2118 H         1 UNK         0.0600 
    186 H186        6.0167   -7.9263  -46.5385 H         1 UNK         0.0600 
    187 H187        6.1456   -9.5615  -45.8967 H         1 UNK         0.0600 
    188 H188        6.6744   -9.2105  -47.5409 H         1 UNK         0.0600 
    189 H189        4.1054  -11.3063  -46.8872 H         1 UNK         0.3000 
    190 H190       -2.1215  -21.5867  -47.4976 H         1 UNK         0.3000 
    191 H191       -3.7163  -22.9674  -49.3898 H         1 UNK         0.0600 
    192 H192       -4.5814  -21.6657  -46.7556 H         1 UNK         0.0600 
    193 H193       -5.6237  -22.0587  -48.1163 H         1 UNK         0.0600 
    194 H194       -4.3833  -20.8288  -48.2901 H         1 UNK         0.0600 
    195 H195       -3.0729  -23.6824  -45.9276 H         1 UNK         0.3000 
    196 H196       -4.7069  -25.9859  -45.7239 H         1 UNK         0.0600 
    197 H197       -3.3177  -26.4752  -43.7060 H         1 UNK         0.0600 
    198 H198       -3.8070  -24.7880  -43.7548 H         1 UNK         0.0600 
    199 H199       -2.1610  -25.2404  -44.1881 H         1 UNK         0.0600 
    200 H200       -1.2345  -25.6687  -46.6088 H         1 UNK         0.3000 
    201 H201       -0.7067  -28.4275  -47.0086 H         1 UNK         0.0600 
    202 H202        1.0699  -26.7168  -46.7400 H         1 UNK         0.0600 
    203 H203        0.6172  -25.9672  -48.2689 H         1 UNK         0.0600 
    204 H204        1.2911  -27.5921  -48.2480 H         1 UNK         0.0600 
    205 H205       -1.9385  -25.9314  -49.2504 H         1 UNK         0.3000 
    206 H206       -2.0782  -27.6801  -51.5560 H         1 UNK         0.0600 
    207 H207       -1.7592  -25.2134  -51.7411 H         1 UNK         0.0600 
    208 H208       -3.2203  -25.7186  -52.5734 H         1 UNK         0.0600 
    209 H209       -3.3345  -24.9384  -51.0004 H         1 UNK         0.0600 
    210 H210       -3.9847  -27.6008  -48.7757 H         1 UNK         0.3000 
    211 H211       -5.9944  -28.2541  -48.1348 H         1 UNK         0.0600 
    212 H212       -6.1065  -29.9081  -50.7142 H         1 UNK         0.0600 
    213 H213       -7.0657  -30.1692  -49.2641 H         1 UNK         0.0600 
    214 H214       -5.3274  -30.4123  -49.2150 H         1 UNK         0.0600 
    215 H215       -5.8620  -25.7937  -49.2992 H         1 UNK         0.3000 
    216 H216       -6.9722  -24.0461  -49.9634 H         1 UNK         0.0600 
    217 H217       -9.4132  -23.9229  -49.7206 H         1 UNK         0.0600 
    218 H218       -8.7483  -24.8680  -48.4001 H         1 UNK         0.0600 
    219 H219       -9.5563  -25.6736  -49.7451 H         1 UNK         0.0600 
    220 H220       -6.3443  -26.3652  -52.0579 H         1 UNK         0.3000 
    221 H221       -8.0218  -25.5946  -54.3120 H         1 UNK         0.0600 
    222 H222       -5.4563  -27.2618  -54.2648 H         1 UNK         0.0600 
    223 H223       -7.0734  -27.9130  -53.9918 H         1 UNK         0.0600 
    224 H224       -6.6570  -27.2039  -55.5449 H         1 UNK         0.0600 
    225 H225       -5.2754  -24.1662  -52.8310 H         1 UNK         0.3000 
    226 H226       -4.9204  -22.2303  -54.9254 H         1 UNK         0.0600 
    227 H227       -3.3809  -24.0863  -55.7330 H         1 UNK         0.0600 
    228 H228       -2.4847  -22.6574  -55.2592 H         1 UNK         0.0600 
    229 H229       -2.5433  -24.0462  -54.1839 H         1 UNK         0.0600 
    230 H230       -3.0449  -20.7428  -54.1574 H         1 UNK         0.3000 
    231 H231       -2.2780  -19.2238  -52.7795 H         1 UNK         0.0600 
    232 H232       -1.0737  -21.1078  -51.6925 H         1 UNK         0.0600 
    233 H233       -2.4004  -21.3210  -50.5602 H         1 UNK         0.0600 
    234 H234       -1.4482  -19.8396  -50.5386 H         1 UNK         0.0600 
    235 H235       -3.2393  -19.3498  -49.7465 H         1 UNK         0.3000 
    236 H236       -4.5608  -18.1162  -48.4793 H         1 UNK         0.0600 
    237 H237       -6.9879  -18.1491  -48.8044 H         1 UNK         0.0600 
    238 H238       -6.8184  -18.6106  -50.4907 H         1 UNK         0.0600 
    239 H239       -6.3509  -19.7318  -49.2162 H         1 UNK         0.0600 
    240 H240       -2.8886  -16.8019  -50.2906 H         1 UNK         0.3000 
    241 H241       -4.0946  -14.5491  -51.5365 H         1 UNK         0.0600 
    242 H242       -3.6232  -11.7462  -49.3412 H         1 UNK         0.3800 
    243 H243       -3.5458  -12.1881  -51.0218 H         1 UNK         0.3800 
    244 H244       -1.6815  -13.7610  -51.7619 H         1 UNK         0.0800 
    245 H245       -2.0408  -15.3167  -52.4374 H         1 UNK         0.0800 
    246 H246        0.3876  -16.0701  -52.6386 H         1 UNK         0.0800 
    247 H247       -0.5329  -17.4129  -51.9934 H         1 UNK         0.0800 
@<TRIPOS>BOND
     1    1    2 1    
     2    1  127 1    
     3    1  128 1    
     4    1  129 1    
     5    2    3 2    
     6    2    4 am   BACKBONE|DICT|INTERRES
     7    4    5 1    
     8    4  130 1    
     9    5    6 1    
    10    5   65 1    
    11    5  131 1    
    12    6    7 1    
    13    6  132 1    
    14    6  133 1    
    15    7    8 1    
    16    8    9 1    
    17    8  134 1    
    18    8  135 1    
    19    9   10 ar   
    20    9   14 ar   
    21   10   11 ar   
    22   10  136 1    
    23   11   12 ar   
    24   11  126 1    
    25   12   13 ar   
    26   12  137 1    
    27   13   14 ar   
    28   13   15 1    
    29   14  138 1    
    30   15   16 1    
    31   15  139 1    
    32   15  140 1    
    33   16   17 1    
    34   17   18 1    
    35   17  141 1    
    36   17  142 1    
    37   18   19 1    
    38   18   67 1    
    39   18  143 1    
    40   19   20 am   BACKBONE|DICT|INTERRES
    41   19  144 1    
    42   20   21 2    
    43   20   22 1    
    44   22   23 1    
    45   22   24 1    
    46   22  145 1    
    47   23  146 1    
    48   23  147 1    
    49   23  148 1    
    50   24   25 am   BACKBONE|DICT|INTERRES
    51   24  149 1    
    52   25   26 2    
    53   25   27 1    
    54   27   28 1    
    55   27   29 1    
    56   27  150 1    
    57   28  151 1    
    58   28  152 1    
    59   28  153 1    
    60   29   30 am   BACKBONE|DICT|INTERRES
    61   29  154 1    
    62   30   31 2    
    63   30   32 1    
    64   32   33 1    
    65   32   34 1    
    66   32  155 1    
    67   33  156 1    
    68   33  157 1    
    69   33  158 1    
    70   34   35 am   BACKBONE|DICT|INTERRES
    71   34  159 1    
    72   35   36 2    
    73   35   37 1    
    74   37   38 1    
    75   37   39 1    
    76   37  160 1    
    77   38  161 1    
    78   38  162 1    
    79   38  163 1    
    80   39   40 am   BACKBONE|DICT|INTERRES
    81   39  164 1    
    82   40   41 2    
    83   40   42 1    
    84   42   43 1    
    85   42   44 1    
    86   42  165 1    
    87   43  166 1    
    88   43  167 1    
    89   43  168 1    
    90   44   45 am   BACKBONE|DICT|INTERRES
    91   44  169 1    
    92   45   46 2    
    93   45   47 1    
    94   47   48 1    
    95   47   49 1    
    96   47  170 1    
    97   48  171 1    
    98   48  172 1    
    99   48  173 1    
   100   49   50 am   BACKBONE|DICT|INTERRES
   101   49  174 1    
   102   50   51 2    
   103   50   52 1    
   104   52   53 1    
   105   52   54 1    
   106   52  175 1    
   107   53  176 1    
   108   53  177 1    
   109   53  178 1    
   110   54   55 am   BACKBONE|DICT|INTERRES
   111   54  179 1    
   112   55   56 2    
   113   55   57 1    
   114   57   58 1    
   115   57   59 1    
   116   57  180 1    
   117   58  181 1    
   118   58  182 1    
   119   58  183 1    
   120   59   60 am   BACKBONE|DICT|INTERRES
   121   59  184 1    
   122   60   61 2    
   123   60   62 1    
   124   62   63 1    
   125   62   64 1    
   126   62  185 1    
   127   63  186 1    
   128   63  187 1    
   129   63  188 1    
   130   64   65 am   BACKBONE|DICT|INTERRES
   131   64  189 1    
   132   65   66 2    
   133   67   68 2    
   134   67   69 am   BACKBONE|DICT|INTERRES
   135   69   70 1    
   136   69  190 1    
   137   70   71 1    
   138   70   72 1    
   139   70  191 1    
   140   71  192 1    
   141   71  193 1    
   142   71  194 1    
   143   72   73 2    
   144   72   74 am   BACKBONE|DICT|INTERRES
   145   74   75 1    
   146   74  195 1    
   147   75   76 1    
   148   75   77 1    
   149   75  196 1    
   150   76  197 1    
   151   76  198 1    
   152   76  199 1    
   153   77   78 2    
   154   77   79 am   BACKBONE|DICT|INTERRES
   155   79   80 1    
   156   79  200 1    
   157   80   81 1    
   158   80   82 1    
   159   80  201 1    
   160   81  202 1    
   161   81  203 1    
   162   81  204 1    
   163   82   83 2    
   164   82   84 am   BACKBONE|DICT|INTERRES
   165   84   85 1    
   166   84  205 1    
   167   85   86 1    
   168   85   87 1    
   169   85  206 1    
   170   86  207 1    
   171   86  208 1    
   172   86  209 1    
   173   87   88 2    
   174   87   89 am   BACKBONE|DICT|INTERRES
   175   89   90 1    
   176   89  210 1    
   177   90   91 1    
   178   90   92 1    
   179   90  211 1    
   180   91  212 1    
   181   91  213 1    
   182   91  214 1    
   183   92   93 2    
   184   92   94 am   BACKBONE|DICT|INTERRES
   185   94   95 1    
   186   94  215 1    
   187   95   96 1    
   188   95   97 1    
   189   95  216 1    
   190   96  217 1    
   191   96  218 1    
   192   96  219 1    
   193   97   98 2    
   194   97   99 am   BACKBONE|DICT|INTERRES
   195   99  100 1    
   196   99  220 1    
   197  100  101 1    
   198  100  102 1    
   199  100  221 1    
   200  101  222 1    
   201  101  223 1    
   202  101  224 1    
   203  102  103 2    
   204  102  104 am   BACKBONE|DICT|INTERRES
   205  104  105 1    
   206  104  225 1    
   207  105  106 1    
   208  105  107 1    
   209  105  226 1    
   210  106  227 1    
   211  106  228 1    
   212  106  229 1    
   213  107  108 2    
   214  107  109 am   BACKBONE|DICT|INTERRES
   215  109  110 1    
   216  109  230 1    
   217  110  111 1    
   218  110  112 1    
   219  110  231 1    
   220  111  232 1    
   221  111  233 1    
   222  111  234 1    
   223  112  113 2    
   224  112  114 am   BACKBONE|DICT|INTERRES
   225  114  115 1    
   226  114  235 1    
   227  115  116 1    
   228  115  117 1    
   229  115  236 1    
   230  116  237 1    
   231  116  238 1    
   232  116  239 1    
   233  117  118 2    
   234  117  119 am   BACKBONE|DICT|INTERRES
   235  119  120 1    
   236  119  240 1    
   237  120  121 1    
   238  120  124 1    
   239  120  241 1    
   240  121  122 am   BACKBONE|DICT|INTERRES
   241  121  123 2    
   242  122  242 1    
   243  122  243 1    
   244  124  125 1    
   245  124  244 1    
   246  124  245 1    
   247  125  126 1    
   248  126  246 1    
   249  126  247 1    
@<TRIPOS>SUBSTRUCTURE
     1 UNK         1 GROUP             0       ****    0 ROOT    
