@<TRIPOS>MOLECULE
3R540
247   249    1
SMALL
USER_CHARGES


@<TRIPOS>ATOM
      1 CA          0.1520  -13.7148  -44.6366 C.3       0 UNK        -0.1800 
      2 C           0.7275  -13.2891  -45.9790 C.2       0 UNK         0.5000 
      3 O           0.2643  -12.3106  -46.5637 O.2       0 UNK        -0.5000 
      4 N           1.7471  -14.0093  -46.4669 N.am      1 UNK        -0.5000 
      5 CA          2.4114  -13.7685  -47.7582 C.3       1 UNK         0.1400 
      6 C6          3.3427  -14.9378  -48.1616 C.3       23 UNK        -0.0398 
      7 S7          2.4503  -16.5234  -48.2755 S.3       23 UNK        -0.2404 
      8 C8          2.0925  -16.5858  -50.0576 C.3       23 UNK        -0.0205 
      9 C9          1.0956  -17.6864  -50.3843 C.ar      23 UNK        -0.0193 
     10 C10        -0.2356  -17.3720  -50.6711 C.ar      23 UNK        -0.1150 
     11 C11        -1.1498  -18.3808  -50.9871 C.ar      23 UNK        -0.0193 
     12 C12        -0.7313  -19.7144  -50.9858 C.ar      23 UNK        -0.1150 
     13 C13         0.5943  -20.0459  -50.6886 C.ar      23 UNK        -0.0193 
     14 C14         1.5072  -19.0214  -50.4103 C.ar      23 UNK        -0.1150 
     15 C15         1.0153  -21.5140  -50.6763 C.3       23 UNK        -0.0205 
     16 S16         2.1821  -21.9582  -49.3437 S.3       23 UNK        -0.2404 
     17 C17         1.2912  -21.3843  -47.8580 C.3       23 UNK        -0.0398 
     18 CA          0.6221  -22.5171  -47.0503 C.3       11 UNK         0.1400 
     19 N           0.2548  -22.0618  -45.7097 N.am      11 UNK        -0.5000 
     20 C          -0.1820  -22.8489  -44.7183 C.2       10 UNK         0.5000 
     21 O          -0.2780  -24.0730  -44.8087 O.2       10 UNK        -0.5000 
     22 CA         -0.6376  -22.1382  -43.4297 C.3       10 UNK         0.1400 
     23 CB          0.5662  -21.7372  -42.5642 C.3       10 UNK        -0.1800 
     24 N          -1.4541  -20.9555  -43.7086 N.am      10 UNK        -0.5000 
     25 C          -2.6499  -20.9875  -44.3137 C.2       9 UNK         0.5000 
     26 O          -3.2221  -22.0264  -44.6410 O.2       9 UNK        -0.5000 
     27 CA         -3.2902  -19.6311  -44.6556 C.3       9 UNK         0.1400 
     28 CB         -4.0232  -19.0439  -43.4402 C.3       9 UNK        -0.1800 
     29 N          -2.3091  -18.6680  -45.1566 N.am      9 UNK        -0.5000 
     30 C          -1.6756  -18.7793  -46.3333 C.2       8 UNK         0.5000 
     31 O          -1.8602  -19.7029  -47.1223 O.2       8 UNK        -0.5000 
     32 CA         -0.6161  -17.7119  -46.6535 C.3       8 UNK         0.1400 
     33 CB         -1.2691  -16.4351  -47.2036 C.3       8 UNK        -0.1800 
     34 N           0.2086  -17.3822  -45.4894 N.am      8 UNK        -0.5000 
     35 C           1.0692  -18.2350  -44.9156 C.2       7 UNK         0.5000 
     36 O           1.2616  -19.3827  -45.3119 O.2       7 UNK        -0.5000 
     37 CA          1.8005  -17.7438  -43.6533 C.3       7 UNK         0.1400 
     38 CB          3.0674  -16.9618  -44.0325 C.3       7 UNK        -0.1800 
     39 N           0.9730  -16.9242  -42.7636 N.am      7 UNK        -0.5000 
     40 C          -0.1883  -17.3048  -42.2097 C.2       6 UNK         0.5000 
     41 O          -0.7268  -18.3874  -42.4448 O.2       6 UNK        -0.5000 
     42 CA         -0.8481  -16.3123  -41.2338 C.3       6 UNK         0.1400 
     43 CB         -1.6563  -17.0282  -40.1365 C.3       6 UNK        -0.1800 
     44 N           0.1577  -15.4532  -40.6031 N.am      6 UNK        -0.5000 
     45 C           0.1727  -14.1155  -40.6330 C.2       5 UNK         0.5000 
     46 O          -0.6925  -13.4375  -41.1914 O.2       5 UNK        -0.5000 
     47 CA          1.3301  -13.4278  -39.8733 C.3       5 UNK         0.1400 
     48 CB          2.6656  -14.2031  -39.9615 C.3       5 UNK        -0.1800 
     49 N           1.5161  -12.0238  -40.2584 N.am      5 UNK        -0.5000 
     50 C           1.9067  -11.5516  -41.4504 C.2       4 UNK         0.5000 
     51 O           2.2278  -12.2583  -42.4106 O.2       4 UNK        -0.5000 
     52 CA          2.0016  -10.0173  -41.5566 C.3       4 UNK         0.1400 
     53 CB          3.3533   -9.5251  -41.0160 C.3       4 UNK        -0.1800 
     54 N           1.8646   -9.5649  -42.9372 N.am      4 UNK        -0.5000 
     55 C           0.7290   -9.5481  -43.6423 C.2       3 UNK         0.5000 
     56 O          -0.3775   -9.7857  -43.1567 O.2       3 UNK        -0.5000 
     57 CA          0.8446   -9.2376  -45.1481 C.3       3 UNK         0.1400 
     58 CB          0.8307   -7.7206  -45.4174 C.3       3 UNK        -0.1800 
     59 N           1.9773   -9.9058  -45.8067 N.am      3 UNK        -0.5000 
     60 C           3.2949   -9.6808  -45.6769 C.2       2 UNK         0.5000 
     61 O           3.7627   -8.7853  -44.9723 O.2       2 UNK        -0.5000 
     62 CA          4.2478  -10.6516  -46.4058 C.3       2 UNK         0.1400 
     63 CB          5.5509  -10.8767  -45.6172 C.3       2 UNK        -0.1800 
     64 N           3.6062  -11.9492  -46.6196 N.am      2 UNK        -0.5000 
     65 C           3.1836  -12.4309  -47.7954 C.2       1 UNK         0.5000 
     66 O           3.3556  -11.8593  -48.8723 O.2       1 UNK        -0.5000 
     67 C          -0.5817  -23.1335  -47.7930 C.2       11 UNK         0.5000 
     68 O          -0.4477  -24.2217  -48.3470 O.2       11 UNK        -0.5000 
     69 N          -1.7432  -22.4662  -47.7493 N.am      12 UNK        -0.5000 
     70 CA         -3.0046  -22.9423  -48.3211 C.3       12 UNK         0.1400 
     71 CB         -4.0620  -21.8365  -48.1938 C.3       12 UNK        -0.1800 
     72 C          -3.5156  -24.2484  -47.6837 C.2       12 UNK         0.5000 
     73 O          -4.0796  -25.0848  -48.3872 O.2       12 UNK        -0.5000 
     74 N          -3.3055  -24.4123  -46.3706 N.am      13 UNK        -0.5000 
     75 CA         -3.6221  -25.6395  -45.6406 C.3       13 UNK         0.1400 
     76 CB         -3.5678  -25.3704  -44.1291 C.3       13 UNK        -0.1800 
     77 C          -2.6955  -26.8081  -46.0266 C.2       13 UNK         0.5000 
     78 O          -3.1661  -27.9404  -46.1425 O.2       13 UNK        -0.5000 
     79 N          -1.4026  -26.5149  -46.2220 N.am      14 UNK        -0.5000 
     80 CA         -0.3865  -27.4821  -46.6345 C.3       14 UNK         0.1400 
     81 CB          1.0097  -26.9029  -46.3555 C.3       14 UNK        -0.1800 
     82 C          -0.5251  -27.8943  -48.1120 C.2       14 UNK         0.5000 
     83 O          -0.4998  -29.0877  -48.4161 O.2       14 UNK        -0.5000 
     84 N          -0.6657  -26.9024  -48.9971 N.am      15 UNK        -0.5000 
     85 CA         -0.7729  -27.0527  -50.4418 C.3       15 UNK         0.1400 
     86 CB          0.3631  -26.2566  -51.1101 C.3       15 UNK        -0.1800 
     87 C          -2.1567  -26.5593  -50.8830 C.2       15 UNK         0.5000 
     88 O          -2.3146  -25.3922  -51.2460 O.2       15 UNK        -0.5000 
     89 N          -3.1412  -27.4670  -50.8577 N.am      16 UNK        -0.5000 
     90 CA         -4.5401  -27.2044  -51.2172 C.3       16 UNK         0.1400 
     91 CB         -5.3694  -28.4709  -50.9584 C.3       16 UNK        -0.1800 
     92 C          -4.7452  -26.7102  -52.6645 C.2       16 UNK         0.5000 
     93 O          -5.7135  -25.9992  -52.9299 O.2       16 UNK        -0.5000 
     94 N          -3.8210  -27.0634  -53.5685 N.am      17 UNK        -0.5000 
     95 CA         -3.7840  -26.5768  -54.9484 C.3       17 UNK         0.1400 
     96 CB         -2.8182  -27.4522  -55.7612 C.3       17 UNK        -0.1800 
     97 C          -3.3818  -25.0916  -55.0542 C.2       17 UNK         0.5000 
     98 O          -3.8269  -24.4108  -55.9786 O.2       17 UNK        -0.5000 
     99 N          -2.5586  -24.6111  -54.1108 N.am      18 UNK        -0.5000 
    100 CA        -2.0875  -23.2262  -54.0524 C.3       18 UNK         0.1400 
    101 CB        -0.7270  -23.1825  -53.3431 C.3       18 UNK        -0.1800 
    102 C         -3.0906  -22.2923  -53.3540 C.2       18 UNK         0.5000 
    103 O         -3.0291  -21.0817  -53.5648 O.2       18 UNK        -0.5000 
    104 N         -4.0161  -22.8595  -52.5651 N.am      19 UNK        -0.5000 
    105 CA        -5.0701  -22.1478  -51.8346 C.3       19 UNK         0.1400 
    106 CB        -5.9022  -23.1635  -51.0397 C.3       19 UNK        -0.1800 
    107 C         -5.9964  -21.3050  -52.7317 C.2       19 UNK         0.5000 
    108 O         -6.5199  -20.2883  -52.2781 O.2       19 UNK        -0.5000 
    109 N         -6.1474  -21.7139  -53.9993 N.am      20 UNK        -0.5000 
    110 CA        -6.8958  -21.0015  -55.0354 C.3       20 UNK         0.1400 
    111 CB        -6.9200  -21.8619  -56.3076 C.3       20 UNK        -0.1800 
    112 C         -6.3443  -19.5944  -55.3458 C.2       20 UNK         0.5000 
    113 O         -7.1147  -18.7226  -55.7497 O.2       20 UNK        -0.5000 
    114 N         -5.0377  -19.3817  -55.1277 N.am      21 UNK        -0.5000 
    115 CA        -4.3745  -18.0892  -55.3058 C.3       21 UNK         0.1400 
    116 CB        -2.8640  -18.3157  -55.4789 C.3       21 UNK        -0.1800 
    117 C         -4.6472  -17.1033  -54.1522 C.2       21 UNK         0.5000 
    118 O         -4.3958  -15.9093  -54.3193 O.2       21 UNK        -0.5000 
    119 N         -5.1401  -17.6008  -53.0078 N.am      22 UNK        -0.5000 
    120 CA        -5.4630  -16.7888  -51.8227 C.3       22 UNK         0.1400 
    121 C         -6.8466  -16.0755  -51.9228 C.2       22 UNK         0.5000 
    122 N         -7.6751  -16.3485  -52.9248 N.am      22 UNK        -0.7600 
    123 O         -7.1711  -15.2442  -51.0792 O.2       22 UNK        -0.5000 
    124 C124       -5.3558  -17.5947  -50.4956 C.3       23 UNK        -0.0398 
    125 S125       -3.7217  -18.2471  -49.9679 S.3       23 UNK        -0.2404 
    126 C126       -2.5791  -18.0296  -51.3658 C.3       23 UNK        -0.0205 
    127 H127       -0.0477  -12.8379  -44.0200 H         1 UNK         0.0600 
    128 H128        0.8426  -14.3536  -44.0876 H         1 UNK         0.0600 
    129 H129       -0.7863  -14.2504  -44.7777 H         1 UNK         0.0600 
    130 H130        2.0870  -14.8093  -45.9559 H         1 UNK         0.3000 
    131 H131        1.6265  -13.6935  -48.5142 H         1 UNK         0.0600 
    132 H132        4.1469  -15.0543  -47.4331 H         1 UNK         0.0800 
    133 H133        3.8289  -14.7365  -49.1183 H         1 UNK         0.0800 
    134 H134        3.0192  -16.7526  -50.6087 H         1 UNK         0.0800 
    135 H135        1.7063  -15.6191  -50.3845 H         1 UNK         0.0800 
    136 H136       -0.5584  -16.3404  -50.6611 H         1 UNK         0.1150 
    137 H137       -1.4438  -20.4932  -51.2202 H         1 UNK         0.1150 
    138 H138        2.5379  -19.2606  -50.1902 H         1 UNK         0.1150 
    139 H139        0.1381  -22.1552  -50.5811 H         1 UNK         0.0800 
    140 H140        1.4747  -21.7538  -51.6356 H         1 UNK         0.0800 
    141 H141        0.5692  -20.6049  -48.1025 H         1 UNK         0.0800 
    142 H142        2.0448  -20.8972  -47.2392 H         1 UNK         0.0800 
    143 H143        1.3603  -23.3108  -46.9160 H         1 UNK         0.0600 
    144 H144        0.3526  -21.0656  -45.5345 H         1 UNK         0.3000 
    145 H145       -1.2488  -22.8408  -42.8595 H         1 UNK         0.0600 
    146 H146        0.2436  -21.2784  -41.6293 H         1 UNK         0.0600 
    147 H147        1.1703  -22.6088  -42.3093 H         1 UNK         0.0600 
    148 H148        1.2143  -21.0268  -43.0776 H         1 UNK         0.0600 
    149 H149       -1.0764  -20.0551  -43.4280 H         1 UNK         0.3000 
    150 H150       -4.0277  -19.7990  -45.4430 H         1 UNK         0.0600 
    151 H151       -4.7934  -19.7293  -43.0842 H         1 UNK         0.0600 
    152 H152       -4.5158  -18.1047  -43.6920 H         1 UNK         0.0600 
    153 H153       -3.3452  -18.8555  -42.6081 H         1 UNK         0.0600 
    154 H154       -2.0467  -17.9223  -44.5302 H         1 UNK         0.3000 
    155 H155        0.0342  -18.1205  -47.4301 H         1 UNK         0.0600 
    156 H156       -1.9046  -15.9504  -46.4620 H         1 UNK         0.0600 
    157 H157       -0.5168  -15.7166  -47.5279 H         1 UNK         0.0600 
    158 H158       -1.8897  -16.6608  -48.0714 H         1 UNK         0.0600 
    159 H159        0.0808  -16.4721  -45.0782 H         1 UNK         0.3000 
    160 H160        2.1044  -18.6287  -43.0904 H         1 UNK         0.0600 
    161 H161        3.6571  -16.7150  -43.1494 H         1 UNK         0.0600 
    162 H162        2.8311  -16.0314  -44.5477 H         1 UNK         0.0600 
    163 H163        3.7059  -17.5493  -44.6939 H         1 UNK         0.0600 
    164 H164        1.3447  -16.0228  -42.5044 H         1 UNK         0.3000 
    165 H165       -1.5415  -15.7165  -41.8305 H         1 UNK         0.0600 
    166 H166       -2.1194  -16.3109  -39.4587 H         1 UNK         0.0600 
    167 H167       -2.4588  -17.6298  -40.5648 H         1 UNK         0.0600 
    168 H168       -1.0270  -17.6924  -39.5430 H         1 UNK         0.0600 
    169 H169        0.9004  -15.9337  -40.1138 H         1 UNK         0.3000 
    170 H170        1.0304  -13.4090  -38.8246 H         1 UNK         0.0600 
    171 H171        2.6051  -15.1639  -39.4497 H         1 UNK         0.0600 
    172 H172        2.9582  -14.3975  -40.9939 H         1 UNK         0.0600 
    173 H173        3.4740  -13.6457  -39.4880 H         1 UNK         0.0600 
    174 H174        1.2616  -11.3531  -39.5470 H         1 UNK         0.3000 
    175 H175        1.2001   -9.5716  -40.9636 H         1 UNK         0.0600 
    176 H176        4.1873   -9.9384  -41.5851 H         1 UNK         0.0600 
    177 H177        3.4238   -8.4381  -41.0605 H         1 UNK         0.0600 
    178 H178        3.4903   -9.8164  -39.9739 H         1 UNK         0.0600 
    179 H179        2.7215   -9.3495  -43.4361 H         1 UNK         0.3000 
    180 H180       -0.0472   -9.6556  -45.6177 H         1 UNK         0.0600 
    181 H181        1.6643   -7.2092  -44.9358 H         1 UNK         0.0600 
    182 H182       -0.0866   -7.2702  -45.0365 H         1 UNK         0.0600 
    183 H183        0.8775   -7.5092  -46.4856 H         1 UNK         0.0600 
    184 H184        1.7012  -10.7022  -46.3694 H         1 UNK         0.3000 
    185 H185        4.5046  -10.1872  -47.3598 H         1 UNK         0.0600 
    186 H186        6.1036   -9.9446  -45.4932 H         1 UNK         0.0600 
    187 H187        5.3541  -11.2789  -44.6224 H         1 UNK         0.0600 
    188 H188        6.2092  -11.5736  -46.1363 H         1 UNK         0.0600 
    189 H189        3.3954  -12.4806  -45.7862 H         1 UNK         0.3000 
    190 H190       -1.7666  -21.5413  -47.3249 H         1 UNK         0.3000 
    191 H191       -2.8368  -23.1385  -49.3825 H         1 UNK         0.0600 
    192 H192       -4.1968  -21.5287  -47.1576 H         1 UNK         0.0600 
    193 H193       -5.0333  -22.1673  -48.5586 H         1 UNK         0.0600 
    194 H194       -3.7770  -20.9566  -48.7688 H         1 UNK         0.0600 
    195 H195       -2.9133  -23.6448  -45.8353 H         1 UNK         0.3000 
    196 H196       -4.6445  -25.9293  -45.8926 H         1 UNK         0.0600 
    197 H197       -3.8265  -26.2665  -43.5638 H         1 UNK         0.0600 
    198 H198       -4.2730  -24.5900  -43.8428 H         1 UNK         0.0600 
    199 H199       -2.5745  -25.0558  -43.8089 H         1 UNK         0.0600 
    200 H200       -1.0900  -25.5634  -46.0636 H         1 UNK         0.3000 
    201 H201       -0.5030  -28.3808  -46.0251 H         1 UNK         0.0600 
    202 H202        1.1386  -26.6810  -45.2960 H         1 UNK         0.0600 
    203 H203        1.1842  -25.9810  -46.9114 H         1 UNK         0.0600 
    204 H204        1.7901  -27.6104  -46.6381 H         1 UNK         0.0600 
    205 H205       -0.6852  -25.9384  -48.6625 H         1 UNK         0.3000 
    206 H206       -0.6705  -28.0982  -50.7392 H         1 UNK         0.0600 
    207 H207        1.3376  -26.6586  -50.8332 H         1 UNK         0.0600 
    208 H208        0.2874  -26.3024  -52.1971 H         1 UNK         0.0600 
    209 H209        0.3460  -25.2044  -50.8226 H         1 UNK         0.0600 
    210 H210       -2.9313  -28.3980  -50.5276 H         1 UNK         0.3000 
    211 H211       -4.9072  -26.4170  -50.5567 H         1 UNK         0.0600 
    212 H212       -5.0271  -29.3078  -51.5684 H         1 UNK         0.0600 
    213 H213       -6.4220  -28.3034  -51.1907 H         1 UNK         0.0600 
    214 H214       -5.3137  -28.7711  -49.9117 H         1 UNK         0.0600 
    215 H215       -3.0654  -27.6638  -53.2738 H         1 UNK         0.3000 
    216 H216       -4.7828  -26.6814  -55.3775 H         1 UNK         0.0600 
    217 H217       -2.7848  -27.1322  -56.8036 H         1 UNK         0.0600 
    218 H218       -3.1306  -28.4966  -55.7534 H         1 UNK         0.0600 
    219 H219       -1.8014  -27.4018  -55.3697 H         1 UNK         0.0600 
    220 H220       -2.2946  -25.2033  -53.3325 H         1 UNK         0.3000 
    221 H221       -1.9457  -22.8534  -55.0691 H         1 UNK         0.0600 
    222 H222       -0.8035  -23.5089  -52.3065 H         1 UNK         0.0600 
    223 H223        0.0019  -23.8201  -53.8432 H         1 UNK         0.0600 
    224 H224       -0.3257  -22.1684  -53.3410 H         1 UNK         0.0600 
    225 H225       -3.9748  -23.8609  -52.4364 H         1 UNK         0.3000 
    226 H226       -4.5796  -21.4685  -51.1348 H         1 UNK         0.0600 
    227 H227       -5.2707  -23.8021  -50.4236 H         1 UNK         0.0600 
    228 H228       -6.6058  -22.6574  -50.3777 H         1 UNK         0.0600 
    229 H229       -6.4855  -23.8074  -51.6979 H         1 UNK         0.0600 
    230 H230       -5.6731  -22.5586  -54.2844 H         1 UNK         0.3000 
    231 H231       -7.9215  -20.8806  -54.6811 H         1 UNK         0.0600 
    232 H232       -7.4864  -21.3724  -57.1011 H         1 UNK         0.0600 
    233 H233       -7.3904  -22.8278  -56.1223 H         1 UNK         0.0600 
    234 H234       -5.9137  -22.0464  -56.6869 H         1 UNK         0.0600 
    235 H235       -4.4675  -20.1297  -54.7477 H         1 UNK         0.3000 
    236 H236       -4.7503  -17.6303  -56.2227 H         1 UNK         0.0600 
    237 H237       -2.6582  -19.0039  -56.2988 H         1 UNK         0.0600 
    238 H238       -2.3536  -17.3789  -55.7056 H         1 UNK         0.0600 
    239 H239       -2.4078  -18.7229  -54.5768 H         1 UNK         0.0600 
    240 H240       -5.3677  -18.5856  -52.9470 H         1 UNK         0.3000 
    241 H241       -4.7351  -15.9785  -51.7581 H         1 UNK         0.0600 
    242 H242       -8.5628  -15.8740  -52.9781 H         1 UNK         0.3800 
    243 H243       -7.4240  -17.0241  -53.6303 H         1 UNK         0.3800 
    244 H244       -5.6925  -16.9731  -49.6640 H         1 UNK         0.0800 
    245 H245       -6.0515  -18.4336  -50.5183 H         1 UNK         0.0800 
    246 H246       -2.8885  -18.6794  -52.1839 H         1 UNK         0.0800 
    247 H247       -2.6219  -17.0038  -51.7326 H         1 UNK         0.0800 
@<TRIPOS>BOND
     1    1    2 1    
     2    1  127 1    
     3    1  128 1    
     4    1  129 1    
     5    2    3 2    
     6    2    4 am   BACKBONE|DICT|INTERRES
     7    4    5 1    
     8    4  130 1    
     9    5    6 1    
    10    5   65 1    
    11    5  131 1    
    12    6    7 1    
    13    6  132 1    
    14    6  133 1    
    15    7    8 1    
    16    8    9 1    
    17    8  134 1    
    18    8  135 1    
    19    9   10 ar   
    20    9   14 ar   
    21   10   11 ar   
    22   10  136 1    
    23   11   12 ar   
    24   11  126 1    
    25   12   13 ar   
    26   12  137 1    
    27   13   14 ar   
    28   13   15 1    
    29   14  138 1    
    30   15   16 1    
    31   15  139 1    
    32   15  140 1    
    33   16   17 1    
    34   17   18 1    
    35   17  141 1    
    36   17  142 1    
    37   18   19 1    
    38   18   67 1    
    39   18  143 1    
    40   19   20 am   BACKBONE|DICT|INTERRES
    41   19  144 1    
    42   20   21 2    
    43   20   22 1    
    44   22   23 1    
    45   22   24 1    
    46   22  145 1    
    47   23  146 1    
    48   23  147 1    
    49   23  148 1    
    50   24   25 am   BACKBONE|DICT|INTERRES
    51   24  149 1    
    52   25   26 2    
    53   25   27 1    
    54   27   28 1    
    55   27   29 1    
    56   27  150 1    
    57   28  151 1    
    58   28  152 1    
    59   28  153 1    
    60   29   30 am   BACKBONE|DICT|INTERRES
    61   29  154 1    
    62   30   31 2    
    63   30   32 1    
    64   32   33 1    
    65   32   34 1    
    66   32  155 1    
    67   33  156 1    
    68   33  157 1    
    69   33  158 1    
    70   34   35 am   BACKBONE|DICT|INTERRES
    71   34  159 1    
    72   35   36 2    
    73   35   37 1    
    74   37   38 1    
    75   37   39 1    
    76   37  160 1    
    77   38  161 1    
    78   38  162 1    
    79   38  163 1    
    80   39   40 am   BACKBONE|DICT|INTERRES
    81   39  164 1    
    82   40   41 2    
    83   40   42 1    
    84   42   43 1    
    85   42   44 1    
    86   42  165 1    
    87   43  166 1    
    88   43  167 1    
    89   43  168 1    
    90   44   45 am   BACKBONE|DICT|INTERRES
    91   44  169 1    
    92   45   46 2    
    93   45   47 1    
    94   47   48 1    
    95   47   49 1    
    96   47  170 1    
    97   48  171 1    
    98   48  172 1    
    99   48  173 1    
   100   49   50 am   BACKBONE|DICT|INTERRES
   101   49  174 1    
   102   50   51 2    
   103   50   52 1    
   104   52   53 1    
   105   52   54 1    
   106   52  175 1    
   107   53  176 1    
   108   53  177 1    
   109   53  178 1    
   110   54   55 am   BACKBONE|DICT|INTERRES
   111   54  179 1    
   112   55   56 2    
   113   55   57 1    
   114   57   58 1    
   115   57   59 1    
   116   57  180 1    
   117   58  181 1    
   118   58  182 1    
   119   58  183 1    
   120   59   60 am   BACKBONE|DICT|INTERRES
   121   59  184 1    
   122   60   61 2    
   123   60   62 1    
   124   62   63 1    
   125   62   64 1    
   126   62  185 1    
   127   63  186 1    
   128   63  187 1    
   129   63  188 1    
   130   64   65 am   BACKBONE|DICT|INTERRES
   131   64  189 1    
   132   65   66 2    
   133   67   68 2    
   134   67   69 am   BACKBONE|DICT|INTERRES
   135   69   70 1    
   136   69  190 1    
   137   70   71 1    
   138   70   72 1    
   139   70  191 1    
   140   71  192 1    
   141   71  193 1    
   142   71  194 1    
   143   72   73 2    
   144   72   74 am   BACKBONE|DICT|INTERRES
   145   74   75 1    
   146   74  195 1    
   147   75   76 1    
   148   75   77 1    
   149   75  196 1    
   150   76  197 1    
   151   76  198 1    
   152   76  199 1    
   153   77   78 2    
   154   77   79 am   BACKBONE|DICT|INTERRES
   155   79   80 1    
   156   79  200 1    
   157   80   81 1    
   158   80   82 1    
   159   80  201 1    
   160   81  202 1    
   161   81  203 1    
   162   81  204 1    
   163   82   83 2    
   164   82   84 am   BACKBONE|DICT|INTERRES
   165   84   85 1    
   166   84  205 1    
   167   85   86 1    
   168   85   87 1    
   169   85  206 1    
   170   86  207 1    
   171   86  208 1    
   172   86  209 1    
   173   87   88 2    
   174   87   89 am   BACKBONE|DICT|INTERRES
   175   89   90 1    
   176   89  210 1    
   177   90   91 1    
   178   90   92 1    
   179   90  211 1    
   180   91  212 1    
   181   91  213 1    
   182   91  214 1    
   183   92   93 2    
   184   92   94 am   BACKBONE|DICT|INTERRES
   185   94   95 1    
   186   94  215 1    
   187   95   96 1    
   188   95   97 1    
   189   95  216 1    
   190   96  217 1    
   191   96  218 1    
   192   96  219 1    
   193   97   98 2    
   194   97   99 am   BACKBONE|DICT|INTERRES
   195   99  100 1    
   196   99  220 1    
   197  100  101 1    
   198  100  102 1    
   199  100  221 1    
   200  101  222 1    
   201  101  223 1    
   202  101  224 1    
   203  102  103 2    
   204  102  104 am   BACKBONE|DICT|INTERRES
   205  104  105 1    
   206  104  225 1    
   207  105  106 1    
   208  105  107 1    
   209  105  226 1    
   210  106  227 1    
   211  106  228 1    
   212  106  229 1    
   213  107  108 2    
   214  107  109 am   BACKBONE|DICT|INTERRES
   215  109  110 1    
   216  109  230 1    
   217  110  111 1    
   218  110  112 1    
   219  110  231 1    
   220  111  232 1    
   221  111  233 1    
   222  111  234 1    
   223  112  113 2    
   224  112  114 am   BACKBONE|DICT|INTERRES
   225  114  115 1    
   226  114  235 1    
   227  115  116 1    
   228  115  117 1    
   229  115  236 1    
   230  116  237 1    
   231  116  238 1    
   232  116  239 1    
   233  117  118 2    
   234  117  119 am   BACKBONE|DICT|INTERRES
   235  119  120 1    
   236  119  240 1    
   237  120  121 1    
   238  120  124 1    
   239  120  241 1    
   240  121  122 am   BACKBONE|DICT|INTERRES
   241  121  123 2    
   242  122  242 1    
   243  122  243 1    
   244  124  125 1    
   245  124  244 1    
   246  124  245 1    
   247  125  126 1    
   248  126  246 1    
   249  126  247 1    
@<TRIPOS>SUBSTRUCTURE
     1 UNK         1 GROUP             0       ****    0 ROOT    
