@<TRIPOS>MOLECULE
3R540
247   249    1
SMALL
USER_CHARGES


@<TRIPOS>ATOM
      1 CA          4.0448  -10.7778  -48.1959 C.3       0 UNK        -0.1800 
      2 C           5.4859  -11.2868  -48.1910 C.2       0 UNK         0.5000 
      3 O           6.4012  -10.4665  -48.1845 O.2       0 UNK        -0.5000 
      4 N           5.7637  -12.6007  -48.1861 N.am      1 UNK        -0.5000 
      5 CA          4.8547  -13.7606  -48.1993 C.3       1 UNK         0.1400 
      6 C6          3.9416  -13.8521  -49.4538 C.3       23 UNK        -0.0398 
      7 S7          4.8906  -13.9875  -51.0101 S.3       23 UNK        -0.2404 
      8 C8          5.4330  -15.7319  -51.0006 C.3       23 UNK        -0.0205 
      9 C9          4.2617  -16.7005  -50.9463 C.ar      23 UNK        -0.0193 
     10 C10         3.5565  -17.0192  -52.1102 C.ar      23 UNK        -0.1150 
     11 C11         2.4447  -17.8631  -52.0521 C.ar      23 UNK        -0.0193 
     12 C12         2.0325  -18.3759  -50.8201 C.ar      23 UNK        -0.1150 
     13 C13         2.7435  -18.0843  -49.6524 C.ar      23 UNK        -0.0193 
     14 C14         3.8676  -17.2588  -49.7260 C.ar      23 UNK        -0.1150 
     15 C15         2.2727  -18.6058  -48.3029 C.3       23 UNK        -0.0205 
     16 S16         2.8746  -20.2870  -47.9539 S.3       23 UNK        -0.2404 
     17 C17         1.5826  -21.3039  -48.7496 C.3       23 UNK        -0.0398 
     18 CA          0.5597  -21.8817  -47.7440 C.3       11 UNK         0.1400 
     19 N          -0.0737  -20.8543  -46.9135 N.am      11 UNK        -0.5000 
     20 C          -0.7915  -21.1073  -45.8114 C.2       10 UNK         0.5000 
     21 O          -1.0117  -22.2375  -45.3779 O.2       10 UNK        -0.5000 
     22 CA         -1.4065  -19.8860  -45.1106 C.3       10 UNK         0.1400 
     23 CB         -0.3420  -19.1643  -44.2695 C.3       10 UNK        -0.1800 
     24 N          -2.0096  -18.9517  -46.0651 N.am      10 UNK        -0.5000 
     25 C          -3.0722  -19.2447  -46.8326 C.2       9 UNK         0.5000 
     26 O          -3.6351  -20.3390  -46.8205 O.2       9 UNK        -0.5000 
     27 CA         -3.5912  -18.1635  -47.7973 C.3       9 UNK         0.1400 
     28 CB         -4.8547  -17.4938  -47.2385 C.3       9 UNK        -0.1800 
     29 N          -2.5993  -17.1404  -48.1151 N.am      9 UNK        -0.5000 
     30 C          -1.5472  -17.3425  -48.9202 C.2       8 UNK         0.5000 
     31 O          -1.3091  -18.4181  -49.4722 O.2       8 UNK        -0.5000 
     32 CA         -0.5807  -16.1559  -49.1062 C.3       8 UNK         0.1400 
     33 CB         -1.0192  -15.2970  -50.3012 C.3       8 UNK        -0.1800 
     34 N          -0.4448  -15.2994  -47.9241 N.am      8 UNK        -0.5000 
     35 C          -0.0772  -15.7053  -46.6998 C.2       7 UNK         0.5000 
     36 O           0.1738  -16.8770  -46.4177 O.2       7 UNK        -0.5000 
     37 CA         -0.0151  -14.6438  -45.5830 C.3       7 UNK         0.1400 
     38 CB         -0.1643  -13.1888  -46.0772 C.3       7 UNK        -0.1800 
     39 N          -0.9718  -14.9155  -44.5058 N.am      7 UNK        -0.5000 
     40 C          -2.2970  -15.1082  -44.6133 C.2       6 UNK         0.5000 
     41 O          -2.9000  -15.0934  -45.6873 O.2       6 UNK        -0.5000 
     42 CA         -3.0931  -15.3666  -43.3129 C.3       6 UNK         0.1400 
     43 CB         -3.6415  -16.8025  -43.2742 C.3       6 UNK        -0.1800 
     44 N          -2.3129  -15.1433  -42.0946 N.am      6 UNK        -0.5000 
     45 C          -2.0430  -13.9471  -41.5536 C.2       5 UNK         0.5000 
     46 O          -2.4910  -12.8847  -41.9853 O.2       5 UNK        -0.5000 
     47 CA         -1.0842  -13.9359  -40.3419 C.3       5 UNK         0.1400 
     48 CB         -1.8798  -13.8886  -39.0285 C.3       5 UNK        -0.1800 
     49 N          -0.1569  -15.0758  -40.2992 N.am      5 UNK        -0.5000 
     50 C           0.7490  -15.3560  -41.2452 C.2       4 UNK         0.5000 
     51 O           0.9010  -14.6665  -42.2599 O.2       4 UNK        -0.5000 
     52 CA          1.5838  -16.6357  -41.0645 C.3       4 UNK         0.1400 
     53 CB          0.7026  -17.8832  -40.8600 C.3       4 UNK        -0.1800 
     54 N           2.3894  -16.7726  -42.2684 N.am      4 UNK        -0.5000 
     55 C           3.5211  -17.4610  -42.4301 C.2       3 UNK         0.5000 
     56 O           3.9914  -18.2280  -41.5895 O.2       3 UNK        -0.5000 
     57 CA          4.2694  -17.2102  -43.7560 C.3       3 UNK         0.1400 
     58 CB          3.8615  -18.2497  -44.8104 C.3       3 UNK        -0.1800 
     59 N           4.0354  -15.8664  -44.3000 N.am      3 UNK        -0.5000 
     60 C           4.4367  -14.7209  -43.7310 C.2       2 UNK         0.5000 
     61 O           5.1227  -14.6750  -42.7084 O.2       2 UNK        -0.5000 
     62 CA          4.0079  -13.4192  -44.4407 C.3       2 UNK         0.1400 
     63 CB          4.4093  -12.1536  -43.6628 C.3       2 UNK        -0.1800 
     64 N           4.5648  -13.3349  -45.7904 N.am      2 UNK        -0.5000 
     65 C           4.0889  -13.9647  -46.8722 C.2       1 UNK         0.5000 
     66 O           3.1048  -14.7040  -46.8352 O.2       1 UNK        -0.5000 
     67 C          -0.4974  -22.7256  -48.4808 C.2       11 UNK         0.5000 
     68 O          -0.3499  -23.9439  -48.5576 O.2       11 UNK        -0.5000 
     69 N          -1.5613  -22.0714  -48.9734 N.am      12 UNK        -0.5000 
     70 CA         -2.6914  -22.7196  -49.6417 C.3       12 UNK         0.1400 
     71 CB         -3.6072  -21.6530  -50.2615 C.3       12 UNK        -0.1800 
     72 C          -3.4863  -23.6402  -48.6986 C.2       12 UNK         0.5000 
     73 O          -3.9079  -24.7198  -49.1177 O.2       12 UNK        -0.5000 
     74 N          -3.6597  -23.2090  -47.4421 N.am      13 UNK        -0.5000 
     75 CA         -4.2628  -24.0000  -46.3722 C.3       13 UNK         0.1400 
     76 CB         -4.5757  -23.0941  -45.1720 C.3       13 UNK        -0.1800 
     77 C          -3.3721  -25.1840  -45.9560 C.2       13 UNK         0.5000 
     78 O          -3.8746  -26.3017  -45.8435 O.2       13 UNK        -0.5000 
     79 N          -2.0659  -24.9341  -45.7769 N.am      14 UNK        -0.5000 
     80 CA         -1.0626  -25.9423  -45.4164 C.3       14 UNK         0.1400 
     81 CB          0.2786  -25.2540  -45.1230 C.3       14 UNK        -0.1800 
     82 C          -0.8853  -27.0387  -46.4841 C.2       14 UNK         0.5000 
     83 O          -0.7173  -28.2075  -46.1347 O.2       14 UNK        -0.5000 
     84 N          -0.9656  -26.6491  -47.7633 N.am      15 UNK        -0.5000 
     85 CA         -0.9520  -27.5467  -48.9205 C.3       15 UNK         0.1400 
     86 CB         -0.6463  -26.7192  -50.1797 C.3       15 UNK        -0.1800 
     87 C          -2.2671  -28.3307  -49.1111 C.2       15 UNK         0.5000 
     88 O          -2.3008  -29.2453  -49.9350 O.2       15 UNK        -0.5000 
     89 N          -3.3248  -27.9437  -48.3803 N.am      16 UNK        -0.5000 
     90 CA         -4.7009  -28.4468  -48.4550 C.3       16 UNK         0.1400 
     91 CB         -4.7748  -29.9366  -48.0606 C.3       16 UNK        -0.1800 
     92 C          -5.3882  -28.1425  -49.8038 C.2       16 UNK         0.5000 
     93 O          -6.3348  -28.8342  -50.1832 O.2       16 UNK        -0.5000 
     94 N          -4.9128  -27.0983  -50.4953 N.am      17 UNK        -0.5000 
     95 CA         -5.5017  -26.5729  -51.7243 C.3       17 UNK         0.1400 
     96 CB         -4.4288  -25.7993  -52.5076 C.3       17 UNK        -0.1800 
     97 C          -6.7030  -25.6667  -51.4111 C.2       17 UNK         0.5000 
     98 O          -7.7009  -25.7092  -52.1306 O.2       17 UNK        -0.5000 
     99 N          -6.5741  -24.8733  -50.3344 N.am      18 UNK        -0.5000 
    100 CA        -7.5731  -23.9549  -49.7732 C.3       18 UNK         0.1400 
    101 CB        -8.7514  -24.7471  -49.1712 C.3       18 UNK        -0.1800 
    102 C         -8.0328  -22.8470  -50.7488 C.2       18 UNK         0.5000 
    103 O         -9.1477  -22.3385  -50.6231 O.2       18 UNK        -0.5000 
    104 N         -7.1584  -22.4820  -51.6985 N.am      19 UNK        -0.5000 
    105 CA        -7.4007  -21.4645  -52.7258 C.3       19 UNK         0.1400 
    106 CB        -6.2882  -21.5550  -53.7821 C.3       19 UNK        -0.1800 
    107 C         -7.4889  -20.0317  -52.1654 C.2       19 UNK         0.5000 
    108 O         -8.1446  -19.1841  -52.7711 O.2       19 UNK        -0.5000 
    109 N         -6.8188  -19.7981  -51.0262 N.am      20 UNK        -0.5000 
    110 CA        -6.7603  -18.5520  -50.2514 C.3       20 UNK         0.1400 
    111 CB        -8.1544  -18.1776  -49.7082 C.3       20 UNK        -0.1800 
    112 C         -6.0721  -17.3682  -50.9694 C.2       20 UNK         0.5000 
    113 O         -6.1710  -16.2341  -50.4996 O.2       20 UNK        -0.5000 
    114 N         -5.3693  -17.6440  -52.0721 N.am      21 UNK        -0.5000 
    115 CA        -4.6536  -16.6899  -52.9102 C.3       21 UNK         0.1400 
    116 CB        -5.6493  -15.8050  -53.6872 C.3       21 UNK        -0.1800 
    117 C         -3.7588  -17.4755  -53.8789 C.2       21 UNK         0.5000 
    118 O         -3.9611  -18.6798  -54.0626 O.2       21 UNK        -0.5000 
    119 N         -2.8003  -16.7763  -54.4910 N.am      22 UNK        -0.5000 
    120 CA        -1.8408  -17.3309  -55.4594 C.3       22 UNK         0.1400 
    121 C         -1.3555  -16.3005  -56.5216 C.2       22 UNK         0.5000 
    122 N         -1.9996  -15.1485  -56.6737 N.am      22 UNK        -0.7600 
    123 O         -0.3946  -16.5532  -57.2435 O.2       22 UNK        -0.5000 
    124 C124       -0.6892  -18.1141  -54.7719 C.3       23 UNK        -0.0398 
    125 S125        0.2486  -17.1339  -53.5506 S.3       23 UNK        -0.2404 
    126 C126        1.6798  -18.2254  -53.3128 C.3       23 UNK        -0.0205 
    127 H127        3.9912   -9.8103  -47.6963 H         1 UNK         0.0600 
    128 H128        3.3520  -11.4399  -47.6813 H         1 UNK         0.0600 
    129 H129        3.7008  -10.6403  -49.2208 H         1 UNK         0.0600 
    130 H130        6.7414  -12.8565  -48.1894 H         1 UNK         0.3000 
    131 H131        5.5184  -14.6248  -48.2350 H         1 UNK         0.0600 
    132 H132        3.2557  -14.6957  -49.3898 H         1 UNK         0.0800 
    133 H133        3.2915  -12.9826  -49.5318 H         1 UNK         0.0800 
    134 H134        6.0187  -15.9213  -51.9013 H         1 UNK         0.0800 
    135 H135        6.1102  -15.9021  -50.1628 H         1 UNK         0.0800 
    136 H136        3.8628  -16.5963  -53.0568 H         1 UNK         0.1150 
    137 H137        1.1432  -18.9861  -50.7794 H         1 UNK         0.1150 
    138 H138        4.4108  -17.0160  -48.8234 H         1 UNK         0.1150 
    139 H139        2.6144  -17.9365  -47.5124 H         1 UNK         0.0800 
    140 H140        1.1852  -18.5867  -48.2532 H         1 UNK         0.0800 
    141 H141        2.0866  -22.1159  -49.2770 H         1 UNK         0.0800 
    142 H142        1.0712  -20.7250  -49.5158 H         1 UNK         0.0800 
    143 H143        1.1013  -22.5528  -47.0741 H         1 UNK         0.0600 
    144 H144        0.0484  -19.8944  -47.1990 H         1 UNK         0.3000 
    145 H145       -2.1959  -20.2352  -44.4416 H         1 UNK         0.0600 
    146 H146       -0.7131  -18.2205  -43.8738 H         1 UNK         0.0600 
    147 H147       -0.0334  -19.7807  -43.4245 H         1 UNK         0.0600 
    148 H148        0.5532  -18.9443  -44.8507 H         1 UNK         0.0600 
    149 H149       -1.5472  -18.0566  -46.1773 H         1 UNK         0.3000 
    150 H150       -3.8603  -18.6684  -48.7265 H         1 UNK         0.0600 
    151 H151       -5.6244  -18.2318  -47.0087 H         1 UNK         0.0600 
    152 H152       -5.2791  -16.7899  -47.9537 H         1 UNK         0.0600 
    153 H153       -4.6486  -16.9429  -46.3241 H         1 UNK         0.0600 
    154 H154       -2.6967  -16.2486  -47.6440 H         1 UNK         0.3000 
    155 H155        0.4051  -16.5616  -49.3284 H         1 UNK         0.0600 
    156 H156       -1.9672  -14.7931  -50.1093 H         1 UNK         0.0600 
    157 H157       -1.1500  -15.9086  -51.1944 H         1 UNK         0.0600 
    158 H158       -0.2731  -14.5377  -50.5362 H         1 UNK         0.0600 
    159 H159       -0.6583  -14.3217  -48.0534 H         1 UNK         0.3000 
    160 H160        0.9749  -14.7404  -45.1377 H         1 UNK         0.0600 
    161 H161       -1.1484  -12.9979  -46.5066 H         1 UNK         0.0600 
    162 H162        0.5879  -12.9491  -46.8302 H         1 UNK         0.0600 
    163 H163       -0.0242  -12.4872  -45.2546 H         1 UNK         0.0600 
    164 H164       -0.5619  -14.9318  -43.5787 H         1 UNK         0.3000 
    165 H165       -3.9429  -14.6808  -43.3136 H         1 UNK         0.0600 
    166 H166       -4.2198  -16.9777  -42.3668 H         1 UNK         0.0600 
    167 H167       -4.3067  -16.9942  -44.1141 H         1 UNK         0.0600 
    168 H168       -2.8451  -17.5444  -43.3097 H         1 UNK         0.0600 
    169 H169       -1.9138  -15.9609  -41.6586 H         1 UNK         0.3000 
    170 H170       -0.4858  -13.0252  -40.4121 H         1 UNK         0.0600 
    171 H171       -2.5607  -13.0364  -39.0140 H         1 UNK         0.0600 
    172 H172       -2.4785  -14.7895  -38.8883 H         1 UNK         0.0600 
    173 H173       -1.2173  -13.7871  -38.1687 H         1 UNK         0.0600 
    174 H174       -0.2305  -15.6824  -39.4950 H         1 UNK         0.3000 
    175 H175        2.2443  -16.4994  -40.2061 H         1 UNK         0.0600 
    176 H176       -0.0652  -17.9640  -41.6282 H         1 UNK         0.0600 
    177 H177        1.2936  -18.7988  -40.8814 H         1 UNK         0.0600 
    178 H178        0.1970  -17.8540  -39.8946 H         1 UNK         0.0600 
    179 H179        2.1193  -16.1196  -42.9933 H         1 UNK         0.3000 
    180 H180        5.3380  -17.3174  -43.5596 H         1 UNK         0.0600 
    181 H181        4.4469  -18.1372  -45.7232 H         1 UNK         0.0600 
    182 H182        2.8076  -18.1590  -45.0744 H         1 UNK         0.0600 
    183 H183        4.0223  -19.2648  -44.4453 H         1 UNK         0.0600 
    184 H184        3.5186  -15.8041  -45.1707 H         1 UNK         0.3000 
    185 H185        2.9180  -13.4289  -44.5047 H         1 UNK         0.0600 
    186 H186        3.9850  -12.1621  -42.6579 H         1 UNK         0.0600 
    187 H187        5.4919  -12.0657  -43.5636 H         1 UNK         0.0600 
    188 H188        4.0442  -11.2544  -44.1596 H         1 UNK         0.0600 
    189 H189        5.4050  -12.7838  -45.8938 H         1 UNK         0.3000 
    190 H190       -1.6113  -21.0688  -48.8612 H         1 UNK         0.3000 
    191 H191       -2.2924  -23.3377  -50.4489 H         1 UNK         0.0600 
    192 H192       -3.0547  -21.0011  -50.9390 H         1 UNK         0.0600 
    193 H193       -4.4045  -22.1190  -50.8398 H         1 UNK         0.0600 
    194 H194       -4.0725  -21.0274  -49.4996 H         1 UNK         0.0600 
    195 H195       -3.3496  -22.2748  -47.1938 H         1 UNK         0.3000 
    196 H196       -5.2066  -24.4065  -46.7423 H         1 UNK         0.0600 
    197 H197       -5.0373  -23.6618  -44.3632 H         1 UNK         0.0600 
    198 H198       -5.2691  -22.3002  -45.4501 H         1 UNK         0.0600 
    199 H199       -3.6760  -22.6245  -44.7736 H         1 UNK         0.0600 
    200 H200       -1.7358  -23.9753  -45.8453 H         1 UNK         0.3000 
    201 H201       -1.4005  -26.4291  -44.4993 H         1 UNK         0.0600 
    202 H202        0.1837  -24.5357  -44.3086 H         1 UNK         0.0600 
    203 H203        0.6563  -24.7227  -45.9967 H         1 UNK         0.0600 
    204 H204        1.0357  -25.9815  -44.8279 H         1 UNK         0.0600 
    205 H205       -1.0184  -25.6546  -47.9668 H         1 UNK         0.3000 
    206 H206       -0.1511  -28.2763  -48.7852 H         1 UNK         0.0600 
    207 H207        0.3136  -26.2097  -50.0930 H         1 UNK         0.0600 
    208 H208       -0.5970  -27.3525  -51.0664 H         1 UNK         0.0600 
    209 H209       -1.4122  -25.9630  -50.3578 H         1 UNK         0.0600 
    210 H210       -3.1863  -27.1911  -47.7172 H         1 UNK         0.3000 
    211 H211       -5.2617  -27.8853  -47.7068 H         1 UNK         0.0600 
    212 H212       -4.3116  -30.5798  -48.8090 H         1 UNK         0.0600 
    213 H213       -5.8103  -30.2603  -47.9501 H         1 UNK         0.0600 
    214 H214       -4.2770  -30.1164  -47.1076 H         1 UNK         0.0600 
    215 H215       -4.1789  -26.5427  -50.0716 H         1 UNK         0.3000 
    216 H216       -5.8484  -27.4032  -52.3432 H         1 UNK         0.0600 
    217 H217       -3.5903  -26.4460  -52.7669 H         1 UNK         0.0600 
    218 H218       -4.0355  -24.9571  -51.9371 H         1 UNK         0.0600 
    219 H219       -4.8352  -25.4042  -53.4396 H         1 UNK         0.0600 
    220 H220       -5.6920  -24.9170  -49.8319 H         1 UNK         0.3000 
    221 H221       -7.0749  -23.4376  -48.9519 H         1 UNK         0.0600 
    222 H222       -9.3370  -25.2482  -49.9425 H         1 UNK         0.0600 
    223 H223       -8.3991  -25.5057  -48.4721 H         1 UNK         0.0600 
    224 H224       -9.4272  -24.0911  -48.6213 H         1 UNK         0.0600 
    225 H225       -6.2840  -22.9812  -51.7530 H         1 UNK         0.3000 
    226 H226       -8.3539  -21.6897  -53.2089 H         1 UNK         0.0600 
    227 H227       -6.2621  -22.5417  -54.2450 H         1 UNK         0.0600 
    228 H228       -6.4458  -20.8273  -54.5795 H         1 UNK         0.0600 
    229 H229       -5.3050  -21.3585  -53.3522 H         1 UNK         0.0600 
    230 H230       -6.3153  -20.5771  -50.6298 H         1 UNK         0.3000 
    231 H231       -6.1349  -18.7834  -49.3912 H         1 UNK         0.0600 
    232 H232       -8.0892  -17.3575  -48.9922 H         1 UNK         0.0600 
    233 H233       -8.6162  -19.0198  -49.1926 H         1 UNK         0.0600 
    234 H234       -8.8280  -17.8616  -50.5052 H         1 UNK         0.0600 
    235 H235       -5.3053  -18.5996  -52.4002 H         1 UNK         0.3000 
    236 H236       -4.0180  -16.0686  -52.2757 H         1 UNK         0.0600 
    237 H237       -6.2631  -15.2053  -53.0154 H         1 UNK         0.0600 
    238 H238       -5.1302  -15.1099  -54.3478 H         1 UNK         0.0600 
    239 H239       -6.3195  -16.4061  -54.3031 H         1 UNK         0.0600 
    240 H240       -2.6689  -15.8016  -54.2631 H         1 UNK         0.3000 
    241 H241       -2.3878  -18.0576  -56.0631 H         1 UNK         0.0600 
    242 H242       -1.6743  -14.4976  -57.3719 H         1 UNK         0.3800 
    243 H243       -2.8373  -14.9384  -56.1564 H         1 UNK         0.3800 
    244 H244       -0.0010  -18.5184  -55.5161 H         1 UNK         0.0800 
    245 H245       -1.1012  -18.9815  -54.2546 H         1 UNK         0.0800 
    246 H246        1.3443  -19.2618  -53.2472 H         1 UNK         0.0800 
    247 H247        2.3306  -18.1657  -54.1866 H         1 UNK         0.0800 
@<TRIPOS>BOND
     1    1    2 1    
     2    1  127 1    
     3    1  128 1    
     4    1  129 1    
     5    2    3 2    
     6    2    4 am   BACKBONE|DICT|INTERRES
     7    4    5 1    
     8    4  130 1    
     9    5    6 1    
    10    5   65 1    
    11    5  131 1    
    12    6    7 1    
    13    6  132 1    
    14    6  133 1    
    15    7    8 1    
    16    8    9 1    
    17    8  134 1    
    18    8  135 1    
    19    9   10 ar   
    20    9   14 ar   
    21   10   11 ar   
    22   10  136 1    
    23   11   12 ar   
    24   11  126 1    
    25   12   13 ar   
    26   12  137 1    
    27   13   14 ar   
    28   13   15 1    
    29   14  138 1    
    30   15   16 1    
    31   15  139 1    
    32   15  140 1    
    33   16   17 1    
    34   17   18 1    
    35   17  141 1    
    36   17  142 1    
    37   18   19 1    
    38   18   67 1    
    39   18  143 1    
    40   19   20 am   BACKBONE|DICT|INTERRES
    41   19  144 1    
    42   20   21 2    
    43   20   22 1    
    44   22   23 1    
    45   22   24 1    
    46   22  145 1    
    47   23  146 1    
    48   23  147 1    
    49   23  148 1    
    50   24   25 am   BACKBONE|DICT|INTERRES
    51   24  149 1    
    52   25   26 2    
    53   25   27 1    
    54   27   28 1    
    55   27   29 1    
    56   27  150 1    
    57   28  151 1    
    58   28  152 1    
    59   28  153 1    
    60   29   30 am   BACKBONE|DICT|INTERRES
    61   29  154 1    
    62   30   31 2    
    63   30   32 1    
    64   32   33 1    
    65   32   34 1    
    66   32  155 1    
    67   33  156 1    
    68   33  157 1    
    69   33  158 1    
    70   34   35 am   BACKBONE|DICT|INTERRES
    71   34  159 1    
    72   35   36 2    
    73   35   37 1    
    74   37   38 1    
    75   37   39 1    
    76   37  160 1    
    77   38  161 1    
    78   38  162 1    
    79   38  163 1    
    80   39   40 am   BACKBONE|DICT|INTERRES
    81   39  164 1    
    82   40   41 2    
    83   40   42 1    
    84   42   43 1    
    85   42   44 1    
    86   42  165 1    
    87   43  166 1    
    88   43  167 1    
    89   43  168 1    
    90   44   45 am   BACKBONE|DICT|INTERRES
    91   44  169 1    
    92   45   46 2    
    93   45   47 1    
    94   47   48 1    
    95   47   49 1    
    96   47  170 1    
    97   48  171 1    
    98   48  172 1    
    99   48  173 1    
   100   49   50 am   BACKBONE|DICT|INTERRES
   101   49  174 1    
   102   50   51 2    
   103   50   52 1    
   104   52   53 1    
   105   52   54 1    
   106   52  175 1    
   107   53  176 1    
   108   53  177 1    
   109   53  178 1    
   110   54   55 am   BACKBONE|DICT|INTERRES
   111   54  179 1    
   112   55   56 2    
   113   55   57 1    
   114   57   58 1    
   115   57   59 1    
   116   57  180 1    
   117   58  181 1    
   118   58  182 1    
   119   58  183 1    
   120   59   60 am   BACKBONE|DICT|INTERRES
   121   59  184 1    
   122   60   61 2    
   123   60   62 1    
   124   62   63 1    
   125   62   64 1    
   126   62  185 1    
   127   63  186 1    
   128   63  187 1    
   129   63  188 1    
   130   64   65 am   BACKBONE|DICT|INTERRES
   131   64  189 1    
   132   65   66 2    
   133   67   68 2    
   134   67   69 am   BACKBONE|DICT|INTERRES
   135   69   70 1    
   136   69  190 1    
   137   70   71 1    
   138   70   72 1    
   139   70  191 1    
   140   71  192 1    
   141   71  193 1    
   142   71  194 1    
   143   72   73 2    
   144   72   74 am   BACKBONE|DICT|INTERRES
   145   74   75 1    
   146   74  195 1    
   147   75   76 1    
   148   75   77 1    
   149   75  196 1    
   150   76  197 1    
   151   76  198 1    
   152   76  199 1    
   153   77   78 2    
   154   77   79 am   BACKBONE|DICT|INTERRES
   155   79   80 1    
   156   79  200 1    
   157   80   81 1    
   158   80   82 1    
   159   80  201 1    
   160   81  202 1    
   161   81  203 1    
   162   81  204 1    
   163   82   83 2    
   164   82   84 am   BACKBONE|DICT|INTERRES
   165   84   85 1    
   166   84  205 1    
   167   85   86 1    
   168   85   87 1    
   169   85  206 1    
   170   86  207 1    
   171   86  208 1    
   172   86  209 1    
   173   87   88 2    
   174   87   89 am   BACKBONE|DICT|INTERRES
   175   89   90 1    
   176   89  210 1    
   177   90   91 1    
   178   90   92 1    
   179   90  211 1    
   180   91  212 1    
   181   91  213 1    
   182   91  214 1    
   183   92   93 2    
   184   92   94 am   BACKBONE|DICT|INTERRES
   185   94   95 1    
   186   94  215 1    
   187   95   96 1    
   188   95   97 1    
   189   95  216 1    
   190   96  217 1    
   191   96  218 1    
   192   96  219 1    
   193   97   98 2    
   194   97   99 am   BACKBONE|DICT|INTERRES
   195   99  100 1    
   196   99  220 1    
   197  100  101 1    
   198  100  102 1    
   199  100  221 1    
   200  101  222 1    
   201  101  223 1    
   202  101  224 1    
   203  102  103 2    
   204  102  104 am   BACKBONE|DICT|INTERRES
   205  104  105 1    
   206  104  225 1    
   207  105  106 1    
   208  105  107 1    
   209  105  226 1    
   210  106  227 1    
   211  106  228 1    
   212  106  229 1    
   213  107  108 2    
   214  107  109 am   BACKBONE|DICT|INTERRES
   215  109  110 1    
   216  109  230 1    
   217  110  111 1    
   218  110  112 1    
   219  110  231 1    
   220  111  232 1    
   221  111  233 1    
   222  111  234 1    
   223  112  113 2    
   224  112  114 am   BACKBONE|DICT|INTERRES
   225  114  115 1    
   226  114  235 1    
   227  115  116 1    
   228  115  117 1    
   229  115  236 1    
   230  116  237 1    
   231  116  238 1    
   232  116  239 1    
   233  117  118 2    
   234  117  119 am   BACKBONE|DICT|INTERRES
   235  119  120 1    
   236  119  240 1    
   237  120  121 1    
   238  120  124 1    
   239  120  241 1    
   240  121  122 am   BACKBONE|DICT|INTERRES
   241  121  123 2    
   242  122  242 1    
   243  122  243 1    
   244  124  125 1    
   245  124  244 1    
   246  124  245 1    
   247  125  126 1    
   248  126  246 1    
   249  126  247 1    
@<TRIPOS>SUBSTRUCTURE
     1 UNK         1 GROUP             0       ****    0 ROOT    
