@<TRIPOS>MOLECULE
3R540
247   249    1
SMALL
USER_CHARGES


@<TRIPOS>ATOM
      1 CA          0.7256  -10.0272  -49.0402 C.3       0 UNK        -0.1800 
      2 C           0.2336  -10.2270  -47.6138 C.2       0 UNK         0.5000 
      3 O          -0.6918   -9.5372  -47.1862 O.2       0 UNK        -0.5000 
      4 N           0.8520  -11.1673  -46.8861 N.am      1 UNK        -0.5000 
      5 CA          0.5332  -11.5476  -45.4997 C.3       1 UNK         0.1400 
      6 C6         -0.8907  -12.1434  -45.3209 C.3       23 UNK        -0.0398 
      7 S7         -1.2314  -13.5395  -46.4472 S.3       23 UNK        -0.2404 
      8 C8         -2.8037  -13.0132  -47.1944 C.3       23 UNK        -0.0205 
      9 C9         -3.4318  -14.1361  -48.0053 C.ar      23 UNK        -0.0193 
     10 C10        -3.4075  -14.1085  -49.4034 C.ar      23 UNK        -0.1150 
     11 C11        -3.9761  -15.1514  -50.1419 C.ar      23 UNK        -0.0193 
     12 C12        -4.5901  -16.2131  -49.4712 C.ar      23 UNK        -0.1150 
     13 C13        -4.6212  -16.2547  -48.0729 C.ar      23 UNK        -0.0193 
     14 C14        -4.0408  -15.2095  -47.3486 C.ar      23 UNK        -0.1150 
     15 C15        -5.2930  -17.4076  -47.3336 C.3       23 UNK        -0.0205 
     16 S16        -4.8080  -19.0382  -47.9862 S.3       23 UNK        -0.2404 
     17 C17        -4.8624  -20.0759  -46.4895 C.3       23 UNK        -0.0398 
     18 CA         -4.1328  -21.4169  -46.7238 C.3       11 UNK         0.1400 
     19 N          -2.7029  -21.2489  -47.0188 N.am      11 UNK        -0.5000 
     20 C          -1.8716  -22.2362  -47.3797 C.2       10 UNK         0.5000 
     21 O          -2.2310  -23.4012  -47.5376 O.2       10 UNK        -0.5000 
     22 CA         -0.3830  -21.8870  -47.5289 C.3       10 UNK         0.1400 
     23 CB         -0.1029  -21.2038  -48.8772 C.3       10 UNK        -0.1800 
     24 N           0.0806  -21.0583  -46.4154 N.am      10 UNK        -0.5000 
     25 C           0.2230  -21.5073  -45.1582 C.2       9 UNK         0.5000 
     26 O           0.0859  -22.6876  -44.8393 O.2       9 UNK        -0.5000 
     27 CA          0.5240  -20.4652  -44.0641 C.3       9 UNK         0.1400 
     28 CB          2.0370  -20.3140  -43.8511 C.3       9 UNK        -0.1800 
     29 N          -0.0677  -19.1606  -44.3617 N.am      9 UNK        -0.5000 
     30 C          -1.3838  -18.9032  -44.3045 C.2       8 UNK         0.5000 
     31 O          -2.2226  -19.7234  -43.9304 O.2       8 UNK        -0.5000 
     32 CA         -1.8481  -17.5254  -44.8171 C.3       8 UNK         0.1400 
     33 CB         -1.9106  -16.5053  -43.6720 C.3       8 UNK        -0.1800 
     34 N          -1.0035  -17.0220  -45.9045 N.am      8 UNK        -0.5000 
     35 C          -0.9298  -17.6202  -47.1035 C.2       7 UNK         0.5000 
     36 O          -1.5979  -18.6112  -47.3891 O.2       7 UNK        -0.5000 
     37 CA          0.0925  -17.1057  -48.1343 C.3       7 UNK         0.1400 
     38 CB         -0.5947  -16.2949  -49.2359 C.3       7 UNK        -0.1800 
     39 N           1.1817  -16.3174  -47.5642 N.am      7 UNK        -0.5000 
     40 C           2.1282  -16.7977  -46.7493 C.2       6 UNK         0.5000 
     41 O           2.1747  -17.9738  -46.3857 O.2       6 UNK        -0.5000 
     42 CA          3.1792  -15.7994  -46.2165 C.3       6 UNK         0.1400 
     43 CB          3.0989  -14.3964  -46.8592 C.3       6 UNK        -0.1800 
     44 N           3.1269  -15.6822  -44.7566 N.am      6 UNK        -0.5000 
     45 C           2.0477  -15.4030  -44.0091 C.2       5 UNK         0.5000 
     46 O           0.9232  -15.2080  -44.4656 O.2       5 UNK        -0.5000 
     47 CA          2.2741  -15.3015  -42.4903 C.3       5 UNK         0.1400 
     48 CB          2.2466  -16.6967  -41.8471 C.3       5 UNK        -0.1800 
     49 N           3.5313  -14.6260  -42.1550 N.am      5 UNK        -0.5000 
     50 C           3.7706  -13.3325  -42.4072 C.2       4 UNK         0.5000 
     51 O           2.9358  -12.5643  -42.8965 O.2       4 UNK        -0.5000 
     52 CA          5.1782  -12.8126  -42.0782 C.3       4 UNK         0.1400 
     53 CB          6.1947  -13.3007  -43.1293 C.3       4 UNK        -0.1800 
     54 N           5.1050  -11.3580  -42.0758 N.am      4 UNK        -0.5000 
     55 C           6.0267  -10.4781  -41.6761 C.2       3 UNK         0.5000 
     56 O           7.1158  -10.8066  -41.2031 O.2       3 UNK        -0.5000 
     57 CA          5.6657   -8.9769  -41.7881 C.3       3 UNK         0.1400 
     58 CB          6.7670   -8.1751  -42.5124 C.3       3 UNK        -0.1800 
     59 N           4.3386   -8.6975  -42.3662 N.am      3 UNK        -0.5000 
     60 C           3.9203   -8.9232  -43.6203 C.2       2 UNK         0.5000 
     61 O           4.6287   -9.3856  -44.5179 O.2       2 UNK        -0.5000 
     62 CA          2.4493   -8.6012  -43.9141 C.3       2 UNK         0.1400 
     63 CB          2.3176   -7.2554  -44.6440 C.3       2 UNK        -0.1800 
     64 N           1.9160   -9.6621  -44.7614 N.am      2 UNK        -0.5000 
     65 C           0.8331  -10.4047  -44.5002 C.2       1 UNK         0.5000 
     66 O           0.0948  -10.2136  -43.5314 O.2       1 UNK        -0.5000 
     67 C          -4.3772  -22.4062  -45.5664 C.2       11 UNK         0.5000 
     68 O          -5.2500  -23.2671  -45.6868 O.2       11 UNK        -0.5000 
     69 N          -3.5535  -22.3237  -44.5111 N.am      12 UNK        -0.5000 
     70 CA         -3.5332  -23.2681  -43.3897 C.3       12 UNK         0.1400 
     71 CB         -2.6037  -22.7280  -42.2928 C.3       12 UNK        -0.1800 
     72 C          -3.1231  -24.7028  -43.7888 C.2       12 UNK         0.5000 
     73 O          -3.5414  -25.6545  -43.1296 O.2       12 UNK        -0.5000 
     74 N          -2.3524  -24.8400  -44.8755 N.am      13 UNK        -0.5000 
     75 CA         -1.9278  -26.1032  -45.4812 C.3       13 UNK         0.1400 
     76 CB         -0.4733  -25.9565  -45.9642 C.3       13 UNK        -0.1800 
     77 C          -2.8798  -26.5361  -46.6177 C.2       13 UNK         0.5000 
     78 O          -2.4263  -27.0785  -47.6279 O.2       13 UNK        -0.5000 
     79 N          -4.1844  -26.2745  -46.4432 N.am      14 UNK        -0.5000 
     80 CA         -5.2863  -26.5958  -47.3574 C.3       14 UNK         0.1400 
     81 CB         -5.4964  -28.1227  -47.4374 C.3       14 UNK        -0.1800 
     82 C          -5.1213  -25.9404  -48.7432 C.2       14 UNK         0.5000 
     83 O          -5.3016  -26.6008  -49.7671 O.2       14 UNK        -0.5000 
     84 N          -4.7458  -24.6539  -48.7413 N.am      15 UNK        -0.5000 
     85 CA         -4.4439  -23.8253  -49.9147 C.3       15 UNK         0.1400 
     86 CB         -5.7144  -23.5844  -50.7533 C.3       15 UNK        -0.1800 
     87 C          -3.2627  -24.3845  -50.7325 C.2       15 UNK         0.5000 
     88 O          -3.3414  -24.4674  -51.9598 O.2       15 UNK        -0.5000 
     89 N          -2.2020  -24.7727  -50.0105 N.am      16 UNK        -0.5000 
     90 CA         -0.9983  -25.4666  -50.4735 C.3       16 UNK         0.1400 
     91 CB         -0.1121  -24.5318  -51.3225 C.3       16 UNK        -0.1800 
     92 C          -1.3346  -26.8040  -51.1623 C.2       16 UNK         0.5000 
     93 O          -0.9083  -27.0479  -52.2912 O.2       16 UNK        -0.5000 
     94 N          -2.1208  -27.6315  -50.4582 N.am      17 UNK        -0.5000 
     95 CA         -2.6533  -28.9283  -50.8867 C.3       17 UNK         0.1400 
     96 CB         -1.5211  -29.9703  -51.0010 C.3       17 UNK        -0.1800 
     97 C          -3.5143  -28.8191  -52.1635 C.2       17 UNK         0.5000 
     98 O          -3.2661  -29.5195  -53.1472 O.2       17 UNK        -0.5000 
     99 N          -4.5129  -27.9267  -52.1095 N.am      18 UNK        -0.5000 
    100 CA        -5.4968  -27.6211  -53.1519 C.3       18 UNK         0.1400 
    101 CB        -6.4011  -28.8401  -53.4309 C.3       18 UNK        -0.1800 
    102 C         -4.8863  -27.0123  -54.4331 C.2       18 UNK         0.5000 
    103 O         -5.4184  -27.2161  -55.5257 O.2       18 UNK        -0.5000 
    104 N         -3.8045  -26.2380  -54.2763 N.am      19 UNK        -0.5000 
    105 CA        -3.1713  -25.4568  -55.3434 C.3       19 UNK         0.1400 
    106 CB        -1.6635  -25.3689  -55.0671 C.3       19 UNK        -0.1800 
    107 C         -3.7850  -24.0472  -55.4854 C.2       19 UNK         0.5000 
    108 O         -3.3730  -23.2993  -56.3724 O.2       19 UNK        -0.5000 
    109 N         -4.7481  -23.7142  -54.6123 N.am      20 UNK        -0.5000 
    110 CA        -5.4775  -22.4467  -54.5071 C.3       20 UNK         0.1400 
    111 CB        -6.2166  -22.1019  -55.8179 C.3       20 UNK        -0.1800 
    112 C         -4.6121  -21.2863  -53.9732 C.2       20 UNK         0.5000 
    113 O         -4.8964  -20.1282  -54.2851 O.2       20 UNK        -0.5000 
    114 N         -3.5959  -21.6161  -53.1574 N.am      21 UNK        -0.5000 
    115 CA        -2.6734  -20.7112  -52.4591 C.3       21 UNK         0.1400 
    116 CB        -3.3844  -20.0309  -51.2678 C.3       21 UNK        -0.1800 
    117 C         -1.9874  -19.7114  -53.4143 C.2       21 UNK         0.5000 
    118 O         -1.0122  -20.0800  -54.0703 O.2       21 UNK        -0.5000 
    119 N         -2.5140  -18.4817  -53.4846 N.am      22 UNK        -0.5000 
    120 CA        -2.0837  -17.4244  -54.4145 C.3       22 UNK         0.1400 
    121 C         -2.4168  -17.7100  -55.9091 C.2       22 UNK         0.5000 
    122 N         -3.3466  -18.6040  -56.2248 N.am      22 UNK        -0.7600 
    123 O         -1.8200  -17.1070  -56.7969 O.2       22 UNK        -0.5000 
    124 C124       -2.6295  -16.0276  -54.0129 C.3       23 UNK        -0.0398 
    125 S125       -2.2723  -15.5838  -52.2783 S.3       23 UNK        -0.2404 
    126 C126       -3.9278  -15.1394  -51.6624 C.3       23 UNK        -0.0205 
    127 H127        1.0737   -9.0034  -49.1771 H         1 UNK         0.0600 
    128 H128       -0.0857  -10.2102  -49.7448 H         1 UNK         0.0600 
    129 H129        1.5466  -10.7014  -49.2854 H         1 UNK         0.0600 
    130 H130        1.6032  -11.6906  -47.3114 H         1 UNK         0.3000 
    131 H131        1.2384  -12.3366  -45.2363 H         1 UNK         0.0600 
    132 H132       -1.6472  -11.3687  -45.4532 H         1 UNK         0.0800 
    133 H133       -1.0151  -12.5170  -44.3031 H         1 UNK         0.0800 
    134 H134       -2.6299  -12.1336  -47.8163 H         1 UNK         0.0800 
    135 H135       -3.4973  -12.7091  -46.4091 H         1 UNK         0.0800 
    136 H136       -2.9299  -13.2872  -49.9190 H         1 UNK         0.1150 
    137 H137       -5.0361  -17.0175  -50.0388 H         1 UNK         0.1150 
    138 H138       -4.0543  -15.2294  -46.2678 H         1 UNK         0.1150 
    139 H139       -5.0563  -17.3562  -46.2705 H         1 UNK         0.0800 
    140 H140       -6.3753  -17.3005  -47.4142 H         1 UNK         0.0800 
    141 H141       -5.9104  -20.2405  -46.2326 H         1 UNK         0.0800 
    142 H142       -4.4127  -19.5401  -45.6527 H         1 UNK         0.0800 
    143 H143       -4.5873  -21.8695  -47.6044 H         1 UNK         0.0600 
    144 H144       -2.3431  -20.2974  -46.9860 H         1 UNK         0.3000 
    145 H145        0.1786  -22.8235  -47.5121 H         1 UNK         0.0600 
    146 H146       -0.6207  -20.2530  -48.9809 H         1 UNK         0.0600 
    147 H147        0.9632  -21.0229  -49.0142 H         1 UNK         0.0600 
    148 H148       -0.4384  -21.8292  -49.7035 H         1 UNK         0.0600 
    149 H149        0.1790  -20.0690  -46.5909 H         1 UNK         0.3000 
    150 H150        0.0901  -20.8294  -43.1306 H         1 UNK         0.0600 
    151 H151        2.4822  -21.2638  -43.5522 H         1 UNK         0.0600 
    152 H152        2.2559  -19.5919  -43.0649 H         1 UNK         0.0600 
    153 H153        2.5450  -19.9892  -44.7588 H         1 UNK         0.0600 
    154 H154        0.5521  -18.4545  -44.7368 H         1 UNK         0.3000 
    155 H155       -2.8580  -17.6417  -45.2137 H         1 UNK         0.0600 
    156 H156       -2.6592  -16.7986  -42.9353 H         1 UNK         0.0600 
    157 H157       -2.1819  -15.5145  -44.0372 H         1 UNK         0.0600 
    158 H158       -0.9582  -16.4232  -43.1490 H         1 UNK         0.0600 
    159 H159       -0.4123  -16.2225  -45.6982 H         1 UNK         0.3000 
    160 H160        0.5340  -17.9880  -48.6020 H         1 UNK         0.0600 
    161 H161        0.0831  -16.1022  -50.0673 H         1 UNK         0.0600 
    162 H162       -0.9479  -15.3350  -48.8636 H         1 UNK         0.0600 
    163 H163       -1.4564  -16.8315  -49.6356 H         1 UNK         0.0600 
    164 H164        1.1791  -15.3300  -47.7732 H         1 UNK         0.3000 
    165 H165        4.1546  -16.2221  -46.4612 H         1 UNK         0.0600 
    166 H166        2.1357  -13.9206  -46.6794 H         1 UNK         0.0600 
    167 H167        3.8705  -13.7392  -46.4576 H         1 UNK         0.0600 
    168 H168        3.2509  -14.4479  -47.9380 H         1 UNK         0.0600 
    169 H169        3.9981  -15.8499  -44.2756 H         1 UNK         0.3000 
    170 H170        1.4508  -14.7180  -42.0721 H         1 UNK         0.0600 
    171 H171        3.0710  -17.3192  -42.1966 H         1 UNK         0.0600 
    172 H172        2.3127  -16.6309  -40.7610 H         1 UNK         0.0600 
    173 H173        1.3181  -17.2184  -42.0839 H         1 UNK         0.0600 
    174 H174        4.2581  -15.1930  -41.7424 H         1 UNK         0.3000 
    175 H175        5.4644  -13.1596  -41.0837 H         1 UNK         0.0600 
    176 H176        5.9336  -12.9513  -44.1292 H         1 UNK         0.0600 
    177 H177        7.2022  -12.9501  -42.9062 H         1 UNK         0.0600 
    178 H178        6.2366  -14.3898  -43.1620 H         1 UNK         0.0600 
    179 H179        4.2259  -11.0119  -42.4408 H         1 UNK         0.3000 
    180 H180        5.6210   -8.6097  -40.7618 H         1 UNK         0.0600 
    181 H181        6.9325   -8.5351  -43.5280 H         1 UNK         0.0600 
    182 H182        7.7177   -8.2523  -41.9837 H         1 UNK         0.0600 
    183 H183        6.5135   -7.1164  -42.5674 H         1 UNK         0.0600 
    184 H184        3.6667   -8.3265  -41.7080 H         1 UNK         0.3000 
    185 H185        1.9026   -8.5473  -42.9704 H         1 UNK         0.0600 
    186 H186        1.2738   -7.0277  -44.8610 H         1 UNK         0.0600 
    187 H187        2.7100   -6.4405  -44.0345 H         1 UNK         0.0600 
    188 H188        2.8632   -7.2534  -45.5886 H         1 UNK         0.0600 
    189 H189        2.5002   -9.9149  -45.5467 H         1 UNK         0.3000 
    190 H190       -2.8951  -21.5521  -44.4645 H         1 UNK         0.3000 
    191 H191       -4.5449  -23.3195  -42.9824 H         1 UNK         0.0600 
    192 H192       -1.5734  -22.6541  -42.6406 H         1 UNK         0.0600 
    193 H193       -2.9174  -21.7383  -41.9603 H         1 UNK         0.0600 
    194 H194       -2.6088  -23.3814  -41.4195 H         1 UNK         0.0600 
    195 H195       -2.0798  -24.0060  -45.3795 H         1 UNK         0.3000 
    196 H196       -1.9488  -26.8953  -44.7305 H         1 UNK         0.0600 
    197 H197        0.1812  -25.6417  -45.1512 H         1 UNK         0.0600 
    198 H198       -0.3859  -25.2220  -46.7648 H         1 UNK         0.0600 
    199 H199       -0.0866  -26.9034  -46.3428 H         1 UNK         0.0600 
    200 H200       -4.4498  -25.7846  -45.5999 H         1 UNK         0.3000 
    201 H201       -6.1861  -26.1603  -46.9207 H         1 UNK         0.0600 
    202 H202       -6.3827  -28.3649  -48.0250 H         1 UNK         0.0600 
    203 H203       -5.6381  -28.5531  -46.4462 H         1 UNK         0.0600 
    204 H204       -4.6489  -28.6262  -47.9032 H         1 UNK         0.0600 
    205 H205       -4.5623  -24.2286  -47.8421 H         1 UNK         0.3000 
    206 H206       -4.1122  -22.8587  -49.5416 H         1 UNK         0.0600 
    207 H207       -6.5426  -23.2531  -50.1270 H         1 UNK         0.0600 
    208 H208       -6.0328  -24.4825  -51.2834 H         1 UNK         0.0600 
    209 H209       -5.5435  -22.8047  -51.4924 H         1 UNK         0.0600 
    210 H210       -2.2510  -24.6113  -49.0081 H         1 UNK         0.3000 
    211 H211       -0.4299  -25.7285  -49.5797 H         1 UNK         0.0600 
    212 H212        0.2900  -23.7227  -50.7163 H         1 UNK         0.0600 
    213 H213        0.7428  -25.0656  -51.7391 H         1 UNK         0.0600 
    214 H214       -0.6588  -24.0858  -52.1516 H         1 UNK         0.0600 
    215 H215       -2.3879  -27.3414  -49.5198 H         1 UNK         0.3000 
    216 H216       -3.3239  -29.2594  -50.0924 H         1 UNK         0.0600 
    217 H217       -1.9237  -30.9602  -51.2184 H         1 UNK         0.0600 
    218 H218       -0.8176  -29.7220  -51.7961 H         1 UNK         0.0600 
    219 H219       -0.9609  -30.0456  -50.0690 H         1 UNK         0.0600 
    220 H220       -4.6454  -27.4102  -51.2402 H         1 UNK         0.3000 
    221 H221       -6.1317  -26.8403  -52.7308 H         1 UNK         0.0600 
    222 H222       -5.8546  -29.6483  -53.9177 H         1 UNK         0.0600 
    223 H223       -6.8296  -29.2319  -52.5084 H         1 UNK         0.0600 
    224 H224       -7.2326  -28.5700  -54.0829 H         1 UNK         0.0600 
    225 H225       -3.4421  -26.0840  -53.3417 H         1 UNK         0.3000 
    226 H226       -3.3065  -25.9671  -56.2990 H         1 UNK         0.0600 
    227 H227       -1.2177  -26.3610  -54.9948 H         1 UNK         0.0600 
    228 H228       -1.1453  -24.8372  -55.8660 H         1 UNK         0.0600 
    229 H229       -1.4615  -24.8417  -54.1363 H         1 UNK         0.0600 
    230 H230       -4.9532  -24.3947  -53.8945 H         1 UNK         0.3000 
    231 H231       -6.2454  -22.6124  -53.7511 H         1 UNK         0.0600 
    232 H232       -6.9067  -21.2707  -55.6683 H         1 UNK         0.0600 
    233 H233       -6.8032  -22.9480  -56.1755 H         1 UNK         0.0600 
    234 H234       -5.5276  -21.8098  -56.6106 H         1 UNK         0.0600 
    235 H235       -3.4357  -22.6044  -52.9972 H         1 UNK         0.3000 
    236 H236       -1.8793  -21.3374  -52.0490 H         1 UNK         0.0600 
    237 H237       -3.7085  -20.7672  -50.5342 H         1 UNK         0.0600 
    238 H238       -2.7161  -19.3417  -50.7487 H         1 UNK         0.0600 
    239 H239       -4.2665  -19.4684  -51.5750 H         1 UNK         0.0600 
    240 H240       -3.3308  -18.2773  -52.9290 H         1 UNK         0.3000 
    241 H241       -0.9949  -17.3760  -54.3521 H         1 UNK         0.0600 
    242 H242       -3.8589  -19.0987  -55.4987 H         1 UNK         0.3800 
    243 H243       -3.5541  -18.7840  -57.1938 H         1 UNK         0.3800 
    244 H244       -2.1887  -15.2552  -54.6456 H         1 UNK         0.0800 
    245 H245       -3.7053  -15.9803  -54.1893 H         1 UNK         0.0800 
    246 H246       -4.1995  -14.1505  -52.0344 H         1 UNK         0.0800 
    247 H247       -4.6681  -15.8347  -52.0611 H         1 UNK         0.0800 
@<TRIPOS>BOND
     1    1    2 1    
     2    1  127 1    
     3    1  128 1    
     4    1  129 1    
     5    2    3 2    
     6    2    4 am   BACKBONE|DICT|INTERRES
     7    4    5 1    
     8    4  130 1    
     9    5    6 1    
    10    5   65 1    
    11    5  131 1    
    12    6    7 1    
    13    6  132 1    
    14    6  133 1    
    15    7    8 1    
    16    8    9 1    
    17    8  134 1    
    18    8  135 1    
    19    9   10 ar   
    20    9   14 ar   
    21   10   11 ar   
    22   10  136 1    
    23   11   12 ar   
    24   11  126 1    
    25   12   13 ar   
    26   12  137 1    
    27   13   14 ar   
    28   13   15 1    
    29   14  138 1    
    30   15   16 1    
    31   15  139 1    
    32   15  140 1    
    33   16   17 1    
    34   17   18 1    
    35   17  141 1    
    36   17  142 1    
    37   18   19 1    
    38   18   67 1    
    39   18  143 1    
    40   19   20 am   BACKBONE|DICT|INTERRES
    41   19  144 1    
    42   20   21 2    
    43   20   22 1    
    44   22   23 1    
    45   22   24 1    
    46   22  145 1    
    47   23  146 1    
    48   23  147 1    
    49   23  148 1    
    50   24   25 am   BACKBONE|DICT|INTERRES
    51   24  149 1    
    52   25   26 2    
    53   25   27 1    
    54   27   28 1    
    55   27   29 1    
    56   27  150 1    
    57   28  151 1    
    58   28  152 1    
    59   28  153 1    
    60   29   30 am   BACKBONE|DICT|INTERRES
    61   29  154 1    
    62   30   31 2    
    63   30   32 1    
    64   32   33 1    
    65   32   34 1    
    66   32  155 1    
    67   33  156 1    
    68   33  157 1    
    69   33  158 1    
    70   34   35 am   BACKBONE|DICT|INTERRES
    71   34  159 1    
    72   35   36 2    
    73   35   37 1    
    74   37   38 1    
    75   37   39 1    
    76   37  160 1    
    77   38  161 1    
    78   38  162 1    
    79   38  163 1    
    80   39   40 am   BACKBONE|DICT|INTERRES
    81   39  164 1    
    82   40   41 2    
    83   40   42 1    
    84   42   43 1    
    85   42   44 1    
    86   42  165 1    
    87   43  166 1    
    88   43  167 1    
    89   43  168 1    
    90   44   45 am   BACKBONE|DICT|INTERRES
    91   44  169 1    
    92   45   46 2    
    93   45   47 1    
    94   47   48 1    
    95   47   49 1    
    96   47  170 1    
    97   48  171 1    
    98   48  172 1    
    99   48  173 1    
   100   49   50 am   BACKBONE|DICT|INTERRES
   101   49  174 1    
   102   50   51 2    
   103   50   52 1    
   104   52   53 1    
   105   52   54 1    
   106   52  175 1    
   107   53  176 1    
   108   53  177 1    
   109   53  178 1    
   110   54   55 am   BACKBONE|DICT|INTERRES
   111   54  179 1    
   112   55   56 2    
   113   55   57 1    
   114   57   58 1    
   115   57   59 1    
   116   57  180 1    
   117   58  181 1    
   118   58  182 1    
   119   58  183 1    
   120   59   60 am   BACKBONE|DICT|INTERRES
   121   59  184 1    
   122   60   61 2    
   123   60   62 1    
   124   62   63 1    
   125   62   64 1    
   126   62  185 1    
   127   63  186 1    
   128   63  187 1    
   129   63  188 1    
   130   64   65 am   BACKBONE|DICT|INTERRES
   131   64  189 1    
   132   65   66 2    
   133   67   68 2    
   134   67   69 am   BACKBONE|DICT|INTERRES
   135   69   70 1    
   136   69  190 1    
   137   70   71 1    
   138   70   72 1    
   139   70  191 1    
   140   71  192 1    
   141   71  193 1    
   142   71  194 1    
   143   72   73 2    
   144   72   74 am   BACKBONE|DICT|INTERRES
   145   74   75 1    
   146   74  195 1    
   147   75   76 1    
   148   75   77 1    
   149   75  196 1    
   150   76  197 1    
   151   76  198 1    
   152   76  199 1    
   153   77   78 2    
   154   77   79 am   BACKBONE|DICT|INTERRES
   155   79   80 1    
   156   79  200 1    
   157   80   81 1    
   158   80   82 1    
   159   80  201 1    
   160   81  202 1    
   161   81  203 1    
   162   81  204 1    
   163   82   83 2    
   164   82   84 am   BACKBONE|DICT|INTERRES
   165   84   85 1    
   166   84  205 1    
   167   85   86 1    
   168   85   87 1    
   169   85  206 1    
   170   86  207 1    
   171   86  208 1    
   172   86  209 1    
   173   87   88 2    
   174   87   89 am   BACKBONE|DICT|INTERRES
   175   89   90 1    
   176   89  210 1    
   177   90   91 1    
   178   90   92 1    
   179   90  211 1    
   180   91  212 1    
   181   91  213 1    
   182   91  214 1    
   183   92   93 2    
   184   92   94 am   BACKBONE|DICT|INTERRES
   185   94   95 1    
   186   94  215 1    
   187   95   96 1    
   188   95   97 1    
   189   95  216 1    
   190   96  217 1    
   191   96  218 1    
   192   96  219 1    
   193   97   98 2    
   194   97   99 am   BACKBONE|DICT|INTERRES
   195   99  100 1    
   196   99  220 1    
   197  100  101 1    
   198  100  102 1    
   199  100  221 1    
   200  101  222 1    
   201  101  223 1    
   202  101  224 1    
   203  102  103 2    
   204  102  104 am   BACKBONE|DICT|INTERRES
   205  104  105 1    
   206  104  225 1    
   207  105  106 1    
   208  105  107 1    
   209  105  226 1    
   210  106  227 1    
   211  106  228 1    
   212  106  229 1    
   213  107  108 2    
   214  107  109 am   BACKBONE|DICT|INTERRES
   215  109  110 1    
   216  109  230 1    
   217  110  111 1    
   218  110  112 1    
   219  110  231 1    
   220  111  232 1    
   221  111  233 1    
   222  111  234 1    
   223  112  113 2    
   224  112  114 am   BACKBONE|DICT|INTERRES
   225  114  115 1    
   226  114  235 1    
   227  115  116 1    
   228  115  117 1    
   229  115  236 1    
   230  116  237 1    
   231  116  238 1    
   232  116  239 1    
   233  117  118 2    
   234  117  119 am   BACKBONE|DICT|INTERRES
   235  119  120 1    
   236  119  240 1    
   237  120  121 1    
   238  120  124 1    
   239  120  241 1    
   240  121  122 am   BACKBONE|DICT|INTERRES
   241  121  123 2    
   242  122  242 1    
   243  122  243 1    
   244  124  125 1    
   245  124  244 1    
   246  124  245 1    
   247  125  126 1    
   248  126  246 1    
   249  126  247 1    
@<TRIPOS>SUBSTRUCTURE
     1 UNK         1 GROUP             0       ****    0 ROOT    
