@<TRIPOS>MOLECULE
3R540
247   249    1
SMALL
USER_CHARGES


@<TRIPOS>ATOM
      1 CA          3.5512  -16.1549  -51.5866 C.3       0 UNK        -0.1800 
      2 C           4.4995  -15.1202  -51.0002 C.2       0 UNK         0.5000 
      3 O           4.9516  -14.2275  -51.7172 O.2       0 UNK        -0.5000 
      4 N           4.8117  -15.2405  -49.7027 N.am      1 UNK        -0.5000 
      5 CA          5.7239  -14.3436  -48.9802 C.3       1 UNK         0.1400 
      6 C6          6.3245  -15.0230  -47.7149 C.3       23 UNK        -0.0398 
      7 S7          5.3159  -14.9492  -46.1860 S.3       23 UNK        -0.2404 
      8 C8          4.6902  -16.6508  -46.0243 C.3       23 UNK        -0.0205 
      9 C9          3.6941  -17.0384  -47.1096 C.ar      23 UNK        -0.0193 
     10 C10         2.6209  -16.2003  -47.4313 C.ar      23 UNK        -0.1150 
     11 C11         1.6972  -16.5701  -48.4123 C.ar      23 UNK        -0.0193 
     12 C12         1.8499  -17.7951  -49.0642 C.ar      23 UNK        -0.1150 
     13 C13         2.9000  -18.6549  -48.7402 C.ar      23 UNK        -0.0193 
     14 C14         3.8290  -18.2617  -47.7723 C.ar      23 UNK        -0.1150 
     15 C15         3.0477  -19.9870  -49.4628 C.3       23 UNK        -0.0205 
     16 S16         3.0499  -21.4073  -48.3217 S.3       23 UNK        -0.2404 
     17 C17         1.2723  -21.6852  -47.9905 C.3       23 UNK        -0.0398 
     18 CA          1.0232  -23.1610  -47.5935 C.3       11 UNK         0.1400 
     19 N           1.7690  -23.5445  -46.3922 N.am      11 UNK        -0.5000 
     20 C           2.0926  -24.8021  -46.0678 C.2       10 UNK         0.5000 
     21 O           1.7977  -25.7808  -46.7521 O.2       10 UNK        -0.5000 
     22 CA          2.8258  -24.9954  -44.7279 C.3       10 UNK         0.1400 
     23 CB          4.3335  -24.7570  -44.8976 C.3       10 UNK        -0.1800 
     24 N           2.3091  -24.1124  -43.6799 N.am      10 UNK        -0.5000 
     25 C           1.0704  -24.1884  -43.1730 C.2       9 UNK         0.5000 
     26 O           0.2552  -25.0495  -43.4988 O.2       9 UNK        -0.5000 
     27 CA          0.6534  -23.0915  -42.1772 C.3       9 UNK         0.1400 
     28 CB          0.9951  -23.5110  -40.7401 C.3       9 UNK        -0.1800 
     29 N           1.2635  -21.7906  -42.4620 N.am      9 UNK        -0.5000 
     30 C           1.0313  -21.0576  -43.5592 C.2       8 UNK         0.5000 
     31 O           0.2952  -21.4118  -44.4830 O.2       8 UNK        -0.5000 
     32 CA          1.8161  -19.7388  -43.6659 C.3       8 UNK         0.1400 
     33 CB          2.9947  -19.9056  -44.6361 C.3       8 UNK        -0.1800 
     34 N           0.9995  -18.6020  -44.0940 N.am      8 UNK        -0.5000 
     35 C          -0.0360  -18.0914  -43.4125 C.2       7 UNK         0.5000 
     36 O          -0.4880  -18.5829  -42.3776 O.2       7 UNK        -0.5000 
     37 CA         -0.6514  -16.7906  -43.9508 C.3       7 UNK         0.1400 
     38 CB          0.3570  -15.8923  -44.6971 C.3       7 UNK        -0.1800 
     39 N          -1.7869  -17.0969  -44.8148 N.am      7 UNK        -0.5000 
     40 C          -2.7694  -16.2327  -45.0899 C.2       6 UNK         0.5000 
     41 O          -2.8574  -15.1086  -44.5866 O.2       6 UNK        -0.5000 
     42 CA         -3.8346  -16.6863  -46.0961 C.3       6 UNK         0.1400 
     43 CB         -4.9868  -17.4312  -45.4020 C.3       6 UNK        -0.1800 
     44 N          -4.3392  -15.4972  -46.7702 N.am      6 UNK        -0.5000 
     45 C          -4.8627  -15.4569  -47.9991 C.2       5 UNK         0.5000 
     46 O          -5.0528  -16.4552  -48.6902 O.2       5 UNK        -0.5000 
     47 CA         -5.2307  -14.0666  -48.5542 C.3       5 UNK         0.1400 
     48 CB         -6.7123  -13.7560  -48.2902 C.3       5 UNK        -0.1800 
     49 N          -4.4082  -12.9904  -47.9914 N.am      5 UNK        -0.5000 
     50 C          -3.1426  -12.7472  -48.3567 C.2       4 UNK         0.5000 
     51 O          -2.5514  -13.3821  -49.2304 O.2       4 UNK        -0.5000 
     52 CA         -2.4142  -11.6202  -47.5963 C.3       4 UNK         0.1400 
     53 CB         -1.9028  -12.1383  -46.2422 C.3       4 UNK        -0.1800 
     54 N          -1.2743  -11.0806  -48.3395 N.am      4 UNK        -0.5000 
     55 C          -1.3334  -10.4446  -49.5179 C.2       3 UNK         0.5000 
     56 O          -2.3916  -10.1531  -50.0782 O.2       3 UNK        -0.5000 
     57 CA          0.0057  -10.0400  -50.1749 C.3       3 UNK         0.1400 
     58 CB          0.0394   -8.5303  -50.4688 C.3       3 UNK        -0.1800 
     59 N           1.1831  -10.3791  -49.3684 N.am      3 UNK        -0.5000 
     60 C           1.7851  -11.5738  -49.3388 C.2       2 UNK         0.5000 
     61 O           1.4154  -12.5521  -49.9919 O.2       2 UNK        -0.5000 
     62 CA          2.9785  -11.6923  -48.3816 C.3       2 UNK         0.1400 
     63 CB          2.4990  -11.8237  -46.9248 C.3       2 UNK        -0.1800 
     64 N           3.7669  -12.8691  -48.7228 N.am      2 UNK        -0.5000 
     65 C           5.1018  -12.9577  -48.6824 C.2       1 UNK         0.5000 
     66 O           5.8409  -12.0120  -48.4028 O.2       1 UNK        -0.5000 
     67 C          -0.4768  -23.4933  -47.4461 C.2       11 UNK         0.5000 
     68 O          -1.1353  -23.7841  -48.4456 O.2       11 UNK        -0.5000 
     69 N          -0.9931  -23.4970  -46.2082 N.am      12 UNK        -0.5000 
     70 CA         -2.3379  -23.9719  -45.8794 C.3       12 UNK         0.1400 
     71 CB         -2.7498  -23.4781  -44.4855 C.3       12 UNK        -0.1800 
     72 C          -2.4437  -25.5018  -45.9905 C.2       12 UNK         0.5000 
     73 O          -3.4107  -25.9959  -46.5679 O.2       12 UNK        -0.5000 
     74 N          -1.4244  -26.2228  -45.5007 N.am      13 UNK        -0.5000 
     75 CA         -1.2883  -27.6779  -45.6261 C.3       13 UNK         0.1400 
     76 CB         -0.1038  -28.1584  -44.7746 C.3       13 UNK        -0.1800 
     77 C          -1.1383  -28.1458  -47.0876 C.2       13 UNK         0.5000 
     78 O          -1.6467  -29.2098  -47.4413 O.2       13 UNK        -0.5000 
     79 N          -0.4946  -27.3162  -47.9208 N.am      14 UNK        -0.5000 
     80 CA         -0.3987  -27.4754  -49.3749 C.3       14 UNK         0.1400 
     81 CB          0.7604  -26.6080  -49.8915 C.3       14 UNK        -0.1800 
     82 C          -1.7060  -27.1331  -50.1260 C.2       14 UNK         0.5000 
     83 O          -1.7520  -27.2932  -51.3459 O.2       14 UNK        -0.5000 
     84 N          -2.7299  -26.6598  -49.3992 N.am      15 UNK        -0.5000 
     85 CA         -4.0664  -26.2653  -49.8540 C.3       15 UNK         0.1400 
     86 CB         -4.7973  -27.4314  -50.5510 C.3       15 UNK        -0.1800 
     87 C          -4.0987  -24.9627  -50.6786 C.2       15 UNK         0.5000 
     88 O          -5.1263  -24.6602  -51.2858 O.2       15 UNK        -0.5000 
     89 N          -3.0058  -24.1887  -50.6615 N.am      16 UNK        -0.5000 
     90 CA         -2.9033  -22.8975  -51.3374 C.3       16 UNK         0.1400 
     91 CB         -1.4323  -22.6061  -51.6693 C.3       16 UNK        -0.1800 
     92 C          -3.5299  -21.7863  -50.4799 C.2       16 UNK         0.5000 
     93 O          -4.3716  -21.0400  -50.9776 O.2       16 UNK        -0.5000 
     94 N          -3.1593  -21.7424  -49.1911 N.am      17 UNK        -0.5000 
     95 CA         -3.6991  -20.8017  -48.2007 C.3       17 UNK         0.1400 
     96 CB         -2.6005  -20.3883  -47.2064 C.3       17 UNK        -0.1800 
     97 C          -4.9558  -21.3348  -47.4874 C.2       17 UNK         0.5000 
     98 O          -5.4859  -20.6594  -46.6058 O.2       17 UNK        -0.5000 
     99 N          -5.4363  -22.5183  -47.8963 N.am      18 UNK        -0.5000 
    100 CA        -6.7851  -23.0000  -47.5872 C.3       18 UNK         0.1400 
    101 CB        -6.8535  -24.5140  -47.8325 C.3       18 UNK        -0.1800 
    102 C         -7.8539  -22.2622  -48.4228 C.2       18 UNK         0.5000 
    103 O         -9.0079  -22.1812  -48.0011 O.2       18 UNK        -0.5000 
    104 N         -7.4386  -21.7232  -49.5761 N.am      19 UNK        -0.5000 
    105 CA        -8.1866  -20.7912  -50.4106 C.3       19 UNK         0.1400 
    106 CB        -8.0540  -21.2467  -51.8741 C.3       19 UNK        -0.1800 
    107 C         -7.6026  -19.3782  -50.2295 C.2       19 UNK         0.5000 
    108 O         -6.5470  -19.2154  -49.6160 O.2       19 UNK        -0.5000 
    109 N         -8.2748  -18.3755  -50.8071 N.am      20 UNK        -0.5000 
    110 CA        -7.8584  -16.9674  -50.7800 C.3       20 UNK         0.1400 
    111 CB        -9.0688  -16.0921  -51.1450 C.3       20 UNK        -0.1800 
    112 C         -6.6482  -16.6404  -51.6868 C.2       20 UNK         0.5000 
    113 O         -6.2147  -15.4882  -51.7234 O.2       20 UNK        -0.5000 
    114 N         -6.1411  -17.6383  -52.4236 N.am      21 UNK        -0.5000 
    115 CA        -4.9916  -17.5294  -53.3209 C.3       21 UNK         0.1400 
    116 CB        -4.9603  -18.7693  -54.2283 C.3       21 UNK        -0.1800 
    117 C         -3.6442  -17.3753  -52.5889 C.2       21 UNK         0.5000 
    118 O         -2.7059  -16.8311  -53.1736 O.2       21 UNK        -0.5000 
    119 N         -3.5581  -17.8749  -51.3489 N.am      22 UNK        -0.5000 
    120 CA        -2.3666  -17.9166  -50.4824 C.3       22 UNK         0.1400 
    121 C         -1.2440  -18.8666  -50.9860 C.2       22 UNK         0.5000 
    122 N         -0.8332  -18.7831  -52.2438 N.am      22 UNK        -0.7600 
    123 O         -0.7488  -19.6967  -50.2329 O.2       22 UNK        -0.5000 
    124 C124       -1.8195  -16.5072  -50.1332 C.3       23 UNK        -0.0398 
    125 S125       -1.0722  -16.4258  -48.4650 S.3       23 UNK        -0.2404 
    126 C126        0.5447  -15.6460  -48.7781 C.3       23 UNK        -0.0205 
    127 H127        3.7041  -17.1312  -51.1278 H         1 UNK         0.0600 
    128 H128        3.7177  -16.2622  -52.6585 H         1 UNK         0.0600 
    129 H129        2.5162  -15.8517  -51.4308 H         1 UNK         0.0600 
    130 H130        4.3939  -15.9796  -49.1525 H         1 UNK         0.3000 
    131 H131        6.5651  -14.1524  -49.6503 H         1 UNK         0.0600 
    132 H132        6.5889  -16.0591  -47.9309 H         1 UNK         0.0800 
    133 H133        7.2712  -14.5351  -47.4779 H         1 UNK         0.0800 
    134 H134        5.5359  -17.3398  -46.0022 H         1 UNK         0.0800 
    135 H135        4.1945  -16.7392  -45.0571 H         1 UNK         0.0800 
    136 H136        2.5072  -15.2570  -46.9155 H         1 UNK         0.1150 
    137 H137        1.1480  -18.0752  -49.8321 H         1 UNK         0.1150 
    138 H138        4.6484  -18.9221  -47.5247 H         1 UNK         0.1150 
    139 H139        2.2633  -20.1208  -50.2098 H         1 UNK         0.0800 
    140 H140        3.9916  -19.9786  -50.0090 H         1 UNK         0.0800 
    141 H141        0.7042  -21.4357  -48.8875 H         1 UNK         0.0800 
    142 H142        0.9380  -21.0007  -47.2090 H         1 UNK         0.0800 
    143 H143        1.3895  -23.7759  -48.4180 H         1 UNK         0.0600 
    144 H144        2.0212  -22.7958  -45.7650 H         1 UNK         0.3000 
    145 H145        2.6746  -26.0289  -44.4092 H         1 UNK         0.0600 
    146 H146        4.8712  -24.9578  -43.9708 H         1 UNK         0.0600 
    147 H147        4.7482  -25.4156  -45.6620 H         1 UNK         0.0600 
    148 H148        4.5496  -23.7304  -45.1966 H         1 UNK         0.0600 
    149 H149        2.9214  -23.3804  -43.3521 H         1 UNK         0.3000 
    150 H150       -0.4295  -22.9738  -42.2490 H         1 UNK         0.0600 
    151 H151        2.0709  -23.6183  -40.5954 H         1 UNK         0.0600 
    152 H152        0.5335  -24.4680  -40.4930 H         1 UNK         0.0600 
    153 H153        0.6297  -22.7802  -40.0183 H         1 UNK         0.0600 
    154 H154        1.8890  -21.4286  -41.7566 H         1 UNK         0.3000 
    155 H155        2.2202  -19.4959  -42.6810 H         1 UNK         0.0600 
    156 H156        2.6522  -20.0318  -45.6628 H         1 UNK         0.0600 
    157 H157        3.6002  -20.7764  -44.3814 H         1 UNK         0.0600 
    158 H158        3.6532  -19.0390  -44.6070 H         1 UNK         0.0600 
    159 H159        1.2800  -18.1504  -44.9518 H         1 UNK         0.3000 
    160 H160       -1.0085  -16.2401  -43.0775 H         1 UNK         0.0600 
    161 H161        0.6067  -16.3118  -45.6692 H         1 UNK         0.0600 
    162 H162        1.2813  -15.7673  -44.1316 H         1 UNK         0.0600 
    163 H163       -0.0524  -14.8966  -44.8678 H         1 UNK         0.0600 
    164 H164       -1.7895  -18.0178  -45.2300 H         1 UNK         0.3000 
    165 H165       -3.3670  -17.3426  -46.8315 H         1 UNK         0.0600 
    166 H166       -5.7295  -17.7686  -46.1256 H         1 UNK         0.0600 
    167 H167       -4.6222  -18.3162  -44.8792 H         1 UNK         0.0600 
    168 H168       -5.4919  -16.7989  -44.6711 H         1 UNK         0.0600 
    169 H169       -4.1637  -14.6353  -46.2705 H         1 UNK         0.3000 
    170 H170       -5.0775  -14.0928  -49.6352 H         1 UNK         0.0600 
    171 H171       -7.3551  -14.5220  -48.7246 H         1 UNK         0.0600 
    172 H172       -6.9313  -13.7107  -47.2227 H         1 UNK         0.0600 
    173 H173       -7.0008  -12.8035  -48.7349 H         1 UNK         0.0600 
    174 H174       -4.8333  -12.4252  -47.2705 H         1 UNK         0.3000 
    175 H175       -3.1196  -10.8050  -47.4228 H         1 UNK         0.0600 
    176 H176       -2.7263  -12.4862  -45.6178 H         1 UNK         0.0600 
    177 H177       -1.2123  -12.9741  -46.3665 H         1 UNK         0.0600 
    178 H178       -1.3866  -11.3555  -45.6862 H         1 UNK         0.0600 
    179 H179       -0.3605  -11.2970  -47.9744 H         1 UNK         0.3000 
    180 H180        0.0660  -10.5705  -51.1275 H         1 UNK         0.0600 
    181 H181       -0.0406   -7.9409  -49.5546 H         1 UNK         0.0600 
    182 H182       -0.7838   -8.2370  -51.1216 H         1 UNK         0.0600 
    183 H183        0.9640   -8.2469  -50.9720 H         1 UNK         0.0600 
    184 H184        1.5448   -9.6370  -48.7859 H         1 UNK         0.3000 
    185 H185        3.5856  -10.7906  -48.4866 H         1 UNK         0.0600 
    186 H186        1.9280  -10.9482  -46.6138 H         1 UNK         0.0600 
    187 H187        1.8623  -12.6989  -46.7879 H         1 UNK         0.0600 
    188 H188        3.3428  -11.9180  -46.2408 H         1 UNK         0.0600 
    189 H189        3.2338  -13.6615  -49.0538 H         1 UNK         0.3000 
    190 H190       -0.4184  -23.1687  -45.4411 H         1 UNK         0.3000 
    191 H191       -3.0354  -23.5449  -46.6012 H         1 UNK         0.0600 
    192 H192       -2.6572  -22.3949  -44.4046 H         1 UNK         0.0600 
    193 H193       -3.7901  -23.7322  -44.2787 H         1 UNK         0.0600 
    194 H194       -2.1436  -23.9259  -43.6993 H         1 UNK         0.0600 
    195 H195       -0.6979  -25.7449  -44.9738 H         1 UNK         0.3000 
    196 H196       -2.1984  -28.1308  -45.2276 H         1 UNK         0.0600 
    197 H197       -0.0041  -29.2435  -44.8211 H         1 UNK         0.0600 
    198 H198       -0.2365  -27.8884  -43.7268 H         1 UNK         0.0600 
    199 H199        0.8380  -27.7275  -45.1140 H         1 UNK         0.0600 
    200 H200       -0.0274  -26.5091  -47.5239 H         1 UNK         0.3000 
    201 H201       -0.1643  -28.5197  -49.5906 H         1 UNK         0.0600 
    202 H202        0.9325  -26.7771  -50.9551 H         1 UNK         0.0600 
    203 H203        1.6913  -26.8388  -49.3731 H         1 UNK         0.0600 
    204 H204        0.5550  -25.5461  -49.7603 H         1 UNK         0.0600 
    205 H205       -2.5876  -26.5565  -48.4013 H         1 UNK         0.3000 
    206 H206       -4.6219  -26.0464  -48.9434 H         1 UNK         0.0600 
    207 H207       -4.7613  -28.3375  -49.9461 H         1 UNK         0.0600 
    208 H208       -5.8493  -27.1925  -50.7111 H         1 UNK         0.0600 
    209 H209       -4.3655  -27.6590  -51.5258 H         1 UNK         0.0600 
    210 H210       -2.2232  -24.4567  -50.0754 H         1 UNK         0.3000 
    211 H211       -3.4504  -22.9444  -52.2817 H         1 UNK         0.0600 
    212 H212       -0.8244  -22.4848  -50.7727 H         1 UNK         0.0600 
    213 H213       -1.3441  -21.6888  -52.2513 H         1 UNK         0.0600 
    214 H214       -0.9957  -23.4093  -52.2629 H         1 UNK         0.0600 
    215 H215       -2.4567  -22.4015  -48.8713 H         1 UNK         0.3000 
    216 H216       -4.0290  -19.8983  -48.7133 H         1 UNK         0.0600 
    217 H217       -2.9673  -19.6308  -46.5155 H         1 UNK         0.0600 
    218 H218       -1.7352  -19.9682  -47.7188 H         1 UNK         0.0600 
    219 H219       -2.2598  -21.2227  -46.6017 H         1 UNK         0.0600 
    220 H220       -4.9275  -23.0116  -48.6135 H         1 UNK         0.3000 
    221 H221       -6.9942  -22.8151  -46.5314 H         1 UNK         0.0600 
    222 H222       -6.7050  -24.7588  -48.8844 H         1 UNK         0.0600 
    223 H223       -6.1016  -25.0437  -47.2471 H         1 UNK         0.0600 
    224 H224       -7.8275  -24.9094  -47.5417 H         1 UNK         0.0600 
    225 H225       -6.4529  -21.7726  -49.7935 H         1 UNK         0.3000 
    226 H226       -9.2413  -20.7750  -50.1289 H         1 UNK         0.0600 
    227 H227       -8.6272  -20.6058  -52.5447 H         1 UNK         0.0600 
    228 H228       -7.0155  -21.2306  -52.2088 H         1 UNK         0.0600 
    229 H229       -8.4276  -22.2628  -52.0030 H         1 UNK         0.0600 
    230 H230       -9.1265  -18.5795  -51.3104 H         1 UNK         0.3000 
    231 H231       -7.5633  -16.7233  -49.7579 H         1 UNK         0.0600 
    232 H232       -9.4124  -16.2863  -52.1617 H         1 UNK         0.0600 
    233 H233       -8.8220  -15.0317  -51.0786 H         1 UNK         0.0600 
    234 H234       -9.9037  -16.2700  -50.4669 H         1 UNK         0.0600 
    235 H235       -6.5528  -18.5536  -52.3253 H         1 UNK         0.3000 
    236 H236       -5.1295  -16.6466  -53.9488 H         1 UNK         0.0600 
    237 H237       -5.8779  -18.8572  -54.8102 H         1 UNK         0.0600 
    238 H238       -4.1317  -18.7155  -54.9357 H         1 UNK         0.0600 
    239 H239       -4.8387  -19.6866  -53.6500 H         1 UNK         0.0600 
    240 H240       -4.3807  -18.3223  -50.9649 H         1 UNK         0.3000 
    241 H241       -2.7366  -18.3467  -49.5546 H         1 UNK         0.0600 
    242 H242       -1.2630  -18.0989  -52.8574 H         1 UNK         0.3800 
    243 H243       -0.1083  -19.3939  -52.5818 H         1 UNK         0.3800 
    244 H244       -1.1282  -16.1524  -50.8982 H         1 UNK         0.0800 
    245 H245       -2.6419  -15.7926  -50.1355 H         1 UNK         0.0800 
    246 H246        0.6440  -15.3434  -49.8201 H         1 UNK         0.0800 
    247 H247        0.5913  -14.7247  -48.1956 H         1 UNK         0.0800 
@<TRIPOS>BOND
     1    1    2 1    
     2    1  127 1    
     3    1  128 1    
     4    1  129 1    
     5    2    3 2    
     6    2    4 am   BACKBONE|DICT|INTERRES
     7    4    5 1    
     8    4  130 1    
     9    5    6 1    
    10    5   65 1    
    11    5  131 1    
    12    6    7 1    
    13    6  132 1    
    14    6  133 1    
    15    7    8 1    
    16    8    9 1    
    17    8  134 1    
    18    8  135 1    
    19    9   10 ar   
    20    9   14 ar   
    21   10   11 ar   
    22   10  136 1    
    23   11   12 ar   
    24   11  126 1    
    25   12   13 ar   
    26   12  137 1    
    27   13   14 ar   
    28   13   15 1    
    29   14  138 1    
    30   15   16 1    
    31   15  139 1    
    32   15  140 1    
    33   16   17 1    
    34   17   18 1    
    35   17  141 1    
    36   17  142 1    
    37   18   19 1    
    38   18   67 1    
    39   18  143 1    
    40   19   20 am   BACKBONE|DICT|INTERRES
    41   19  144 1    
    42   20   21 2    
    43   20   22 1    
    44   22   23 1    
    45   22   24 1    
    46   22  145 1    
    47   23  146 1    
    48   23  147 1    
    49   23  148 1    
    50   24   25 am   BACKBONE|DICT|INTERRES
    51   24  149 1    
    52   25   26 2    
    53   25   27 1    
    54   27   28 1    
    55   27   29 1    
    56   27  150 1    
    57   28  151 1    
    58   28  152 1    
    59   28  153 1    
    60   29   30 am   BACKBONE|DICT|INTERRES
    61   29  154 1    
    62   30   31 2    
    63   30   32 1    
    64   32   33 1    
    65   32   34 1    
    66   32  155 1    
    67   33  156 1    
    68   33  157 1    
    69   33  158 1    
    70   34   35 am   BACKBONE|DICT|INTERRES
    71   34  159 1    
    72   35   36 2    
    73   35   37 1    
    74   37   38 1    
    75   37   39 1    
    76   37  160 1    
    77   38  161 1    
    78   38  162 1    
    79   38  163 1    
    80   39   40 am   BACKBONE|DICT|INTERRES
    81   39  164 1    
    82   40   41 2    
    83   40   42 1    
    84   42   43 1    
    85   42   44 1    
    86   42  165 1    
    87   43  166 1    
    88   43  167 1    
    89   43  168 1    
    90   44   45 am   BACKBONE|DICT|INTERRES
    91   44  169 1    
    92   45   46 2    
    93   45   47 1    
    94   47   48 1    
    95   47   49 1    
    96   47  170 1    
    97   48  171 1    
    98   48  172 1    
    99   48  173 1    
   100   49   50 am   BACKBONE|DICT|INTERRES
   101   49  174 1    
   102   50   51 2    
   103   50   52 1    
   104   52   53 1    
   105   52   54 1    
   106   52  175 1    
   107   53  176 1    
   108   53  177 1    
   109   53  178 1    
   110   54   55 am   BACKBONE|DICT|INTERRES
   111   54  179 1    
   112   55   56 2    
   113   55   57 1    
   114   57   58 1    
   115   57   59 1    
   116   57  180 1    
   117   58  181 1    
   118   58  182 1    
   119   58  183 1    
   120   59   60 am   BACKBONE|DICT|INTERRES
   121   59  184 1    
   122   60   61 2    
   123   60   62 1    
   124   62   63 1    
   125   62   64 1    
   126   62  185 1    
   127   63  186 1    
   128   63  187 1    
   129   63  188 1    
   130   64   65 am   BACKBONE|DICT|INTERRES
   131   64  189 1    
   132   65   66 2    
   133   67   68 2    
   134   67   69 am   BACKBONE|DICT|INTERRES
   135   69   70 1    
   136   69  190 1    
   137   70   71 1    
   138   70   72 1    
   139   70  191 1    
   140   71  192 1    
   141   71  193 1    
   142   71  194 1    
   143   72   73 2    
   144   72   74 am   BACKBONE|DICT|INTERRES
   145   74   75 1    
   146   74  195 1    
   147   75   76 1    
   148   75   77 1    
   149   75  196 1    
   150   76  197 1    
   151   76  198 1    
   152   76  199 1    
   153   77   78 2    
   154   77   79 am   BACKBONE|DICT|INTERRES
   155   79   80 1    
   156   79  200 1    
   157   80   81 1    
   158   80   82 1    
   159   80  201 1    
   160   81  202 1    
   161   81  203 1    
   162   81  204 1    
   163   82   83 2    
   164   82   84 am   BACKBONE|DICT|INTERRES
   165   84   85 1    
   166   84  205 1    
   167   85   86 1    
   168   85   87 1    
   169   85  206 1    
   170   86  207 1    
   171   86  208 1    
   172   86  209 1    
   173   87   88 2    
   174   87   89 am   BACKBONE|DICT|INTERRES
   175   89   90 1    
   176   89  210 1    
   177   90   91 1    
   178   90   92 1    
   179   90  211 1    
   180   91  212 1    
   181   91  213 1    
   182   91  214 1    
   183   92   93 2    
   184   92   94 am   BACKBONE|DICT|INTERRES
   185   94   95 1    
   186   94  215 1    
   187   95   96 1    
   188   95   97 1    
   189   95  216 1    
   190   96  217 1    
   191   96  218 1    
   192   96  219 1    
   193   97   98 2    
   194   97   99 am   BACKBONE|DICT|INTERRES
   195   99  100 1    
   196   99  220 1    
   197  100  101 1    
   198  100  102 1    
   199  100  221 1    
   200  101  222 1    
   201  101  223 1    
   202  101  224 1    
   203  102  103 2    
   204  102  104 am   BACKBONE|DICT|INTERRES
   205  104  105 1    
   206  104  225 1    
   207  105  106 1    
   208  105  107 1    
   209  105  226 1    
   210  106  227 1    
   211  106  228 1    
   212  106  229 1    
   213  107  108 2    
   214  107  109 am   BACKBONE|DICT|INTERRES
   215  109  110 1    
   216  109  230 1    
   217  110  111 1    
   218  110  112 1    
   219  110  231 1    
   220  111  232 1    
   221  111  233 1    
   222  111  234 1    
   223  112  113 2    
   224  112  114 am   BACKBONE|DICT|INTERRES
   225  114  115 1    
   226  114  235 1    
   227  115  116 1    
   228  115  117 1    
   229  115  236 1    
   230  116  237 1    
   231  116  238 1    
   232  116  239 1    
   233  117  118 2    
   234  117  119 am   BACKBONE|DICT|INTERRES
   235  119  120 1    
   236  119  240 1    
   237  120  121 1    
   238  120  124 1    
   239  120  241 1    
   240  121  122 am   BACKBONE|DICT|INTERRES
   241  121  123 2    
   242  122  242 1    
   243  122  243 1    
   244  124  125 1    
   245  124  244 1    
   246  124  245 1    
   247  125  126 1    
   248  126  246 1    
   249  126  247 1    
@<TRIPOS>SUBSTRUCTURE
     1 UNK         1 GROUP             0       ****    0 ROOT    
