@<TRIPOS>MOLECULE
3R540
247   249    1
SMALL
USER_CHARGES


@<TRIPOS>ATOM
      1 CA          6.2774  -19.3044  -49.0427 C.3       0 UNK        -0.1800 
      2 C           5.2086  -18.3324  -48.5638 C.2       0 UNK         0.5000 
      3 O           4.7481  -18.4426  -47.4275 O.2       0 UNK        -0.5000 
      4 N           4.8082  -17.3907  -49.4280 N.am      1 UNK        -0.5000 
      5 CA          3.8058  -16.3598  -49.1485 C.3       1 UNK         0.1400 
      6 C6          3.4437  -15.5669  -50.4282 C.3       23 UNK        -0.0398 
      7 S7          1.8738  -14.6453  -50.2703 S.3       23 UNK        -0.2404 
      8 C8          0.8179  -15.4911  -51.4891 C.3       23 UNK        -0.0205 
      9 C9          0.3056  -16.8231  -50.9658 C.ar      23 UNK        -0.0193 
     10 C10        -0.8562  -16.8620  -50.1892 C.ar      23 UNK        -0.1150 
     11 C11        -1.3436  -18.0774  -49.7041 C.ar      23 UNK        -0.0193 
     12 C12        -0.6741  -19.2598  -50.0242 C.ar      23 UNK        -0.1150 
     13 C13         0.4978  -19.2365  -50.7860 C.ar      23 UNK        -0.0193 
     14 C14         0.9817  -18.0131  -51.2580 C.ar      23 UNK        -0.1150 
     15 C15         1.2239  -20.5368  -51.1096 C.3       23 UNK        -0.0205 
     16 S16         2.7100  -20.8210  -50.0807 S.3       23 UNK        -0.2404 
     17 C17         2.0748  -20.7101  -48.3691 C.3       23 UNK        -0.0398 
     18 CA          1.6616  -22.0503  -47.7086 C.3       11 UNK         0.1400 
     19 N           1.3183  -21.8694  -46.2952 N.am      11 UNK        -0.5000 
     20 C           1.1850  -22.8619  -45.4030 C.2       10 UNK         0.5000 
     21 O           1.4151  -24.0430  -45.6621 O.2       10 UNK        -0.5000 
     22 CA          0.6624  -22.4793  -44.0023 C.3       10 UNK         0.1400 
     23 CB          1.8238  -22.0589  -43.0903 C.3       10 UNK        -0.1800 
     24 N          -0.3346  -21.4066  -44.0340 N.am      10 UNK        -0.5000 
     25 C          -1.5444  -21.5065  -44.6057 C.2       9 UNK         0.5000 
     26 O          -1.9786  -22.5528  -45.0855 O.2       9 UNK        -0.5000 
     27 CA         -2.3841  -20.2144  -44.7239 C.3       9 UNK         0.1400 
     28 CB         -3.3846  -20.1107  -43.5652 C.3       9 UNK        -0.1800 
     29 N          -1.5870  -18.9856  -44.7776 N.am      9 UNK        -0.5000 
     30 C          -0.6152  -18.7267  -45.6628 C.2       8 UNK         0.5000 
     31 O          -0.3291  -19.4970  -46.5761 O.2       8 UNK        -0.5000 
     32 CA          0.2083  -17.4364  -45.4869 C.3       8 UNK         0.1400 
     33 CB         -0.0471  -16.4565  -46.6405 C.3       8 UNK        -0.1800 
     34 N          -0.0299  -16.7523  -44.2173 N.am      8 UNK        -0.5000 
     35 C           0.3487  -17.1972  -43.0109 C.2       7 UNK         0.5000 
     36 O           0.9373  -18.2633  -42.8279 O.2       7 UNK        -0.5000 
     37 CA         -0.0389  -16.3164  -41.8119 C.3       7 UNK         0.1400 
     38 CB          0.9743  -15.1786  -41.6162 C.3       7 UNK        -0.1800 
     39 N          -1.3777  -15.7512  -41.9843 N.am      7 UNK        -0.5000 
     40 C          -2.5128  -16.4118  -41.7184 C.2       6 UNK         0.5000 
     41 O          -2.5463  -17.5446  -41.2383 O.2       6 UNK        -0.5000 
     42 CA         -3.8339  -15.6951  -42.0560 C.3       6 UNK         0.1400 
     43 CB         -4.3093  -14.8522  -40.8631 C.3       6 UNK        -0.1800 
     44 N          -3.7394  -14.8400  -43.2404 N.am      6 UNK        -0.5000 
     45 C          -3.6000  -15.2944  -44.4932 C.2       5 UNK         0.5000 
     46 O          -3.5388  -16.4867  -44.7891 O.2       5 UNK        -0.5000 
     47 CA         -3.4753  -14.2341  -45.6033 C.3       5 UNK         0.1400 
     48 CB         -4.8651  -13.8126  -46.1043 C.3       5 UNK        -0.1800 
     49 N          -2.7209  -13.0350  -45.2234 N.am      5 UNK        -0.5000 
     50 C          -1.4597  -13.0215  -44.7738 C.2       4 UNK         0.5000 
     51 O          -0.8120  -14.0360  -44.5080 O.2       4 UNK        -0.5000 
     52 CA         -0.7992  -11.6444  -44.6033 C.3       4 UNK         0.1400 
     53 CB         -0.3407  -11.4292  -43.1528 C.3       4 UNK        -0.1800 
     54 N           0.3547  -11.5493  -45.4915 N.am      4 UNK        -0.5000 
     55 C           0.2929  -11.4188  -46.8218 C.2       3 UNK         0.5000 
     56 O          -0.7530  -11.1998  -47.4340 O.2       3 UNK        -0.5000 
     57 CA          1.6049  -11.5992  -47.6107 C.3       3 UNK         0.1400 
     58 CB          2.4463  -10.3087  -47.6178 C.3       3 UNK        -0.1800 
     59 N           2.3910  -12.7690  -47.1923 N.am      3 UNK        -0.5000 
     60 C           3.0614  -12.9801  -46.0485 C.2       2 UNK         0.5000 
     61 O           3.1454  -12.1475  -45.1450 O.2       2 UNK        -0.5000 
     62 CA          3.7015  -14.3693  -45.8479 C.3       2 UNK         0.1400 
     63 CB          3.1482  -15.0310  -44.5767 C.3       2 UNK        -0.1800 
     64 N           3.4617  -15.2680  -46.9802 N.am      2 UNK        -0.5000 
     65 C           4.2832  -15.4124  -48.0261 C.2       1 UNK         0.5000 
     66 O           5.3601  -14.8230  -48.1425 O.2       1 UNK        -0.5000 
     67 C           0.5000  -22.7378  -48.4497 C.2       11 UNK         0.5000 
     68 O           0.7443  -23.6553  -49.2312 O.2       11 UNK        -0.5000 
     69 N          -0.7429  -22.3225  -48.1589 N.am      12 UNK        -0.5000 
     70 CA         -1.9524  -22.9125  -48.7381 C.3       12 UNK         0.1400 
     71 CB         -3.1855  -22.0731  -48.3782 C.3       12 UNK        -0.1800 
     72 C          -2.1515  -24.3795  -48.3244 C.2       12 UNK         0.5000 
     73 O          -2.5259  -25.1991  -49.1615 O.2       12 UNK        -0.5000 
     74 N          -1.8543  -24.6910  -47.0556 N.am      13 UNK        -0.5000 
     75 CA         -1.8486  -26.0482  -46.5126 C.3       13 UNK         0.1400 
     76 CB         -1.6671  -25.9896  -44.9885 C.3       13 UNK        -0.1800 
     77 C          -0.7735  -26.9407  -47.1609 C.2       13 UNK         0.5000 
     78 O          -1.0622  -28.0935  -47.4820 O.2       13 UNK        -0.5000 
     79 N           0.4311  -26.3882  -47.3674 N.am      14 UNK        -0.5000 
     80 CA          1.5505  -27.0624  -48.0284 C.3       14 UNK         0.1400 
     81 CB          2.8371  -26.2489  -47.8203 C.3       14 UNK        -0.1800 
     82 C           1.2969  -27.3137  -49.5271 C.2       14 UNK         0.5000 
     83 O           1.5895  -28.4045  -50.0185 O.2       14 UNK        -0.5000 
     84 N           0.7424  -26.3100  -50.2201 N.am      15 UNK        -0.5000 
     85 CA          0.3647  -26.3756  -51.6340 C.3       15 UNK         0.1400 
     86 CB          0.1404  -24.9464  -52.1537 C.3       15 UNK        -0.1800 
     87 C          -0.8876  -27.2359  -51.8938 C.2       15 UNK         0.5000 
     88 O          -1.0774  -27.6966  -53.0200 O.2       15 UNK        -0.5000 
     89 N          -1.7190  -27.4130  -50.8568 N.am      16 UNK        -0.5000 
     90 CA         -3.0305  -28.0683  -50.8497 C.3       16 UNK         0.1400 
     91 CB         -2.9114  -29.5646  -51.2067 C.3       16 UNK        -0.1800 
     92 C          -4.0801  -27.3178  -51.6992 C.2       16 UNK         0.5000 
     93 O          -5.0072  -27.9373  -52.2243 O.2       16 UNK        -0.5000 
     94 N          -3.9228  -25.9935  -51.8066 N.am      17 UNK        -0.5000 
     95 CA         -4.7770  -25.0734  -52.5475 C.3       17 UNK         0.1400 
     96 CB         -4.5921  -25.2608  -54.0653 C.3       17 UNK        -0.1800 
     97 C          -4.4098  -23.6420  -52.1382 C.2       17 UNK         0.5000 
     98 O          -3.2306  -23.3548  -51.9242 O.2       17 UNK        -0.5000 
     99 N          -5.4160  -22.7660  -52.0533 N.am      18 UNK        -0.5000 
    100 CA        -5.2437  -21.3439  -51.7682 C.3       18 UNK         0.1400 
    101 CB        -6.5789  -20.7705  -51.2675 C.3       18 UNK        -0.1800 
    102 C         -4.7557  -20.5983  -53.0229 C.2       18 UNK         0.5000 
    103 O         -5.4319  -20.6424  -54.0532 O.2       18 UNK        -0.5000 
    104 N         -3.5982  -19.9343  -52.9182 N.am      19 UNK        -0.5000 
    105 CA        -3.0213  -19.1174  -53.9903 C.3       19 UNK         0.1400 
    106 CB        -1.4977  -19.0719  -53.8147 C.3       19 UNK        -0.1800 
    107 C         -3.5949  -17.6869  -54.0133 C.2       19 UNK         0.5000 
    108 O         -3.5610  -17.0363  -55.0587 O.2       19 UNK        -0.5000 
    109 N         -4.1043  -17.2296  -52.8652 N.am      20 UNK        -0.5000 
    110 CA        -4.7590  -15.9431  -52.6558 C.3       20 UNK         0.1400 
    111 CB        -3.8126  -15.0330  -51.8460 C.3       20 UNK        -0.1800 
    112 C         -6.1095  -16.2037  -51.9614 C.2       20 UNK         0.5000 
    113 O         -6.7379  -17.2308  -52.2276 O.2       20 UNK        -0.5000 
    114 N         -6.5386  -15.2916  -51.0776 N.am      21 UNK        -0.5000 
    115 CA        -7.7014  -15.4838  -50.2061 C.3       21 UNK         0.1400 
    116 CB        -8.0796  -14.1468  -49.5488 C.3       21 UNK        -0.1800 
    117 C         -7.4340  -16.5656  -49.1420 C.2       21 UNK         0.5000 
    118 O         -8.2601  -17.4591  -48.9562 O.2       21 UNK        -0.5000 
    119 N         -6.2602  -16.4687  -48.5005 N.am      22 UNK        -0.5000 
    120 CA        -5.6805  -17.4534  -47.5674 C.3       22 UNK         0.1400 
    121 C         -6.5094  -17.7339  -46.2743 C.2       22 UNK         0.5000 
    122 N         -7.4126  -16.8500  -45.8674 N.am      22 UNK        -0.7600 
    123 O         -6.3210  -18.7524  -45.6152 O.2       22 UNK        -0.5000 
    124 C124       -5.2264  -18.7547  -48.2864 C.3       23 UNK        -0.0398 
    125 S125       -4.0909  -18.4490  -49.6872 S.3       23 UNK        -0.2404 
    126 C126       -2.5540  -18.1131  -48.7863 C.3       23 UNK        -0.0205 
    127 H127        6.5888  -19.0937  -50.0660 H         1 UNK         0.0600 
    128 H128        5.8958  -20.3250  -49.0077 H         1 UNK         0.0600 
    129 H129        7.1553  -19.2444  -48.3996 H         1 UNK         0.0600 
    130 H130        5.2486  -17.3405  -50.3351 H         1 UNK         0.3000 
    131 H131        2.9090  -16.8862  -48.8119 H         1 UNK         0.0600 
    132 H132        4.2365  -14.8657  -50.6957 H         1 UNK         0.0800 
    133 H133        3.3661  -16.2475  -51.2758 H         1 UNK         0.0800 
    134 H134        1.3592  -15.6265  -52.4266 H         1 UNK         0.0800 
    135 H135       -0.0293  -14.8449  -51.7238 H         1 UNK         0.0800 
    136 H136       -1.3681  -15.9421  -49.9453 H         1 UNK         0.1150 
    137 H137       -1.0546  -20.1986  -49.6565 H         1 UNK         0.1150 
    138 H138        1.8806  -17.9929  -51.8571 H         1 UNK         0.1150 
    139 H139        0.5457  -21.3854  -51.0124 H         1 UNK         0.0800 
    140 H140        1.5268  -20.5228  -52.1574 H         1 UNK         0.0800 
    141 H141        1.2687  -19.9849  -48.3370 H         1 UNK         0.0800 
    142 H142        2.8713  -20.2671  -47.7723 H         1 UNK         0.0800 
    143 H143        2.5219  -22.7214  -47.7551 H         1 UNK         0.0600 
    144 H144        1.0168  -20.9385  -46.0341 H         1 UNK         0.3000 
    145 H145        0.1913  -23.3650  -43.5710 H         1 UNK         0.0600 
    146 H146        1.4777  -21.8678  -42.0743 H         1 UNK         0.0600 
    147 H147        2.5803  -22.8429  -43.0337 H         1 UNK         0.0600 
    148 H148        2.3132  -21.1538  -43.4527 H         1 UNK         0.0600 
    149 H149       -0.0513  -20.5101  -43.6616 H         1 UNK         0.3000 
    150 H150       -2.9480  -20.2737  -45.6563 H         1 UNK         0.0600 
    151 H151       -4.0264  -20.9916  -43.5224 H         1 UNK         0.0600 
    152 H152       -4.0335  -19.2419  -43.6827 H         1 UNK         0.0600 
    153 H153       -2.8776  -20.0236  -42.6034 H         1 UNK         0.0600 
    154 H154       -1.7986  -18.2785  -44.0882 H         1 UNK         0.3000 
    155 H155        1.2613  -17.7240  -45.5165 H         1 UNK         0.0600 
    156 H156       -1.1014  -16.1924  -46.7111 H         1 UNK         0.0600 
    157 H157        0.5150  -15.5314  -46.5166 H         1 UNK         0.0600 
    158 H158        0.2534  -16.8943  -47.5922 H         1 UNK         0.0600 
    159 H159       -0.4735  -15.8386  -44.2785 H         1 UNK         0.3000 
    160 H160       -0.0225  -16.9405  -40.9157 H         1 UNK         0.0600 
    161 H161        0.7409  -14.5933  -40.7268 H         1 UNK         0.0600 
    162 H162        1.9841  -15.5718  -41.4919 H         1 UNK         0.0600 
    163 H163        0.9893  -14.4988  -42.4678 H         1 UNK         0.0600 
    164 H164       -1.4337  -14.8482  -42.4347 H         1 UNK         0.3000 
    165 H165       -4.5852  -16.4635  -42.2517 H         1 UNK         0.0600 
    166 H166       -5.2827  -14.4028  -41.0605 H         1 UNK         0.0600 
    167 H167       -4.4120  -15.4665  -39.9675 H         1 UNK         0.0600 
    168 H168       -3.6083  -14.0492  -40.6317 H         1 UNK         0.0600 
    169 H169       -3.7764  -13.8426  -43.0907 H         1 UNK         0.3000 
    170 H170       -2.9454  -14.7000  -46.4359 H         1 UNK         0.0600 
    171 H171       -5.4655  -14.6790  -46.3780 H         1 UNK         0.0600 
    172 H172       -5.4177  -13.2635  -45.3411 H         1 UNK         0.0600 
    173 H173       -4.7911  -13.1780  -46.9877 H         1 UNK         0.0600 
    174 H174       -3.1687  -12.1517  -45.4207 H         1 UNK         0.3000 
    175 H175       -1.5138  -10.8598  -44.8606 H         1 UNK         0.0600 
    176 H176        0.4157  -12.1560  -42.8551 H         1 UNK         0.0600 
    177 H177        0.0846  -10.4343  -43.0198 H         1 UNK         0.0600 
    178 H178       -1.1777  -11.5211  -42.4595 H         1 UNK         0.0600 
    179 H179        1.2646  -11.7479  -45.0866 H         1 UNK         0.3000 
    180 H180        1.3187  -11.8009  -48.6443 H         1 UNK         0.0600 
    181 H181        2.7404  -10.0029  -46.6137 H         1 UNK         0.0600 
    182 H182        1.8826   -9.4832  -48.0541 H         1 UNK         0.0600 
    183 H183        3.3525  -10.4327  -48.2107 H         1 UNK         0.0600 
    184 H184        2.3731  -13.5357  -47.8496 H         1 UNK         0.3000 
    185 H185        4.7750  -14.2217  -45.7130 H         1 UNK         0.0600 
    186 H186        2.0608  -15.0793  -44.6006 H         1 UNK         0.0600 
    187 H187        3.5310  -16.0441  -44.4511 H         1 UNK         0.0600 
    188 H188        3.4283  -14.4655  -43.6872 H         1 UNK         0.0600 
    189 H189        2.6073  -15.8036  -46.9522 H         1 UNK         0.3000 
    190 H190       -0.8606  -21.5683  -47.4951 H         1 UNK         0.3000 
    191 H191       -1.8328  -22.8895  -49.8219 H         1 UNK         0.0600 
    192 H192       -3.3536  -22.0324  -47.3029 H         1 UNK         0.0600 
    193 H193       -4.0844  -22.4919  -48.8322 H         1 UNK         0.0600 
    194 H194       -3.0853  -21.0550  -48.7450 H         1 UNK         0.0600 
    195 H195       -1.6324  -23.9388  -46.4101 H         1 UNK         0.3000 
    196 H196       -2.8229  -26.4948  -46.7218 H         1 UNK         0.0600 
    197 H197       -1.6924  -26.9895  -44.5536 H         1 UNK         0.0600 
    198 H198       -2.4622  -25.4097  -44.5192 H         1 UNK         0.0600 
    199 H199       -0.7155  -25.5351  -44.7124 H         1 UNK         0.0600 
    200 H200        0.6012  -25.4456  -47.0355 H         1 UNK         0.3000 
    201 H201        1.6866  -28.0339  -47.5485 H         1 UNK         0.0600 
    202 H202        3.0631  -26.1342  -46.7600 H         1 UNK         0.0600 
    203 H203        2.7601  -25.2519  -48.2546 H         1 UNK         0.0600 
    204 H204        3.6915  -26.7439  -48.2835 H         1 UNK         0.0600 
    205 H205        0.5987  -25.4147  -49.7565 H         1 UNK         0.3000 
    206 H206        1.1924  -26.8178  -52.1923 H         1 UNK         0.0600 
    207 H207        1.0398  -24.3401  -52.0442 H         1 UNK         0.0600 
    208 H208       -0.1252  -24.9487  -53.2116 H         1 UNK         0.0600 
    209 H209       -0.6657  -24.4469  -51.6146 H         1 UNK         0.0600 
    210 H210       -1.4893  -26.9264  -49.9990 H         1 UNK         0.3000 
    211 H211       -3.3833  -28.0069  -49.8192 H         1 UNK         0.0600 
    212 H212       -2.6421  -29.7136  -52.2525 H         1 UNK         0.0600 
    213 H213       -3.8561  -30.0823  -51.0372 H         1 UNK         0.0600 
    214 H214       -2.1580  -30.0568  -50.5915 H         1 UNK         0.0600 
    215 H215       -3.1709  -25.5477  -51.2905 H         1 UNK         0.3000 
    216 H216       -5.8172  -25.2661  -52.2776 H         1 UNK         0.0600 
    217 H217       -5.1852  -24.5357  -54.6240 H         1 UNK         0.0600 
    218 H218       -4.9078  -26.2523  -54.3891 H         1 UNK         0.0600 
    219 H219       -3.5498  -25.1295  -54.3588 H         1 UNK         0.0600 
    220 H220       -6.3515  -23.0635  -52.2890 H         1 UNK         0.3000 
    221 H221       -4.5055  -21.2275  -50.9724 H         1 UNK         0.0600 
    222 H222       -7.3776  -20.9081  -51.9973 H         1 UNK         0.0600 
    223 H223       -6.8877  -21.2456  -50.3363 H         1 UNK         0.0600 
    224 H224       -6.4986  -19.7005  -51.0755 H         1 UNK         0.0600 
    225 H225       -3.0879  -19.9611  -52.0471 H         1 UNK         0.3000 
    226 H226       -3.2366  -19.5829  -54.9544 H         1 UNK         0.0600 
    227 H227       -1.0696  -20.0730  -53.7585 H         1 UNK         0.0600 
    228 H228       -1.0231  -18.5584  -54.6516 H         1 UNK         0.0600 
    229 H229       -1.2258  -18.5348  -52.9077 H         1 UNK         0.0600 
    230 H230       -4.1384  -17.8588  -52.0745 H         1 UNK         0.3000 
    231 H231       -4.9778  -15.4659  -53.6129 H         1 UNK         0.0600 
    232 H232       -4.2042  -14.0186  -51.7656 H         1 UNK         0.0600 
    233 H233       -2.8369  -14.9588  -52.3270 H         1 UNK         0.0600 
    234 H234       -3.6528  -15.4148  -50.8368 H         1 UNK         0.0600 
    235 H235       -5.9863  -14.4603  -50.9277 H         1 UNK         0.3000 
    236 H236       -8.5441  -15.8125  -50.8184 H         1 UNK         0.0600 
    237 H237       -8.3355  -13.3988  -50.2995 H         1 UNK         0.0600 
    238 H238       -8.9486  -14.2643  -48.9000 H         1 UNK         0.0600 
    239 H239       -7.2675  -13.7465  -48.9408 H         1 UNK         0.0600 
    240 H240       -5.6586  -15.6965  -48.7413 H         1 UNK         0.3000 
    241 H241       -4.7768  -16.9791  -47.1869 H         1 UNK         0.0600 
    242 H242       -7.6015  -16.0213  -46.4065 H         1 UNK         0.3800 
    243 H243       -7.9417  -17.0365  -45.0305 H         1 UNK         0.3800 
    244 H244       -4.7316  -19.4307  -47.5874 H         1 UNK         0.0800 
    245 H245       -6.0958  -19.2963  -48.6602 H         1 UNK         0.0800 
    246 H246       -2.6493  -17.1654  -48.2563 H         1 UNK         0.0800 
    247 H247       -2.4104  -18.8775  -48.0240 H         1 UNK         0.0800 
@<TRIPOS>BOND
     1    1    2 1    
     2    1  127 1    
     3    1  128 1    
     4    1  129 1    
     5    2    3 2    
     6    2    4 am   BACKBONE|DICT|INTERRES
     7    4    5 1    
     8    4  130 1    
     9    5    6 1    
    10    5   65 1    
    11    5  131 1    
    12    6    7 1    
    13    6  132 1    
    14    6  133 1    
    15    7    8 1    
    16    8    9 1    
    17    8  134 1    
    18    8  135 1    
    19    9   10 ar   
    20    9   14 ar   
    21   10   11 ar   
    22   10  136 1    
    23   11   12 ar   
    24   11  126 1    
    25   12   13 ar   
    26   12  137 1    
    27   13   14 ar   
    28   13   15 1    
    29   14  138 1    
    30   15   16 1    
    31   15  139 1    
    32   15  140 1    
    33   16   17 1    
    34   17   18 1    
    35   17  141 1    
    36   17  142 1    
    37   18   19 1    
    38   18   67 1    
    39   18  143 1    
    40   19   20 am   BACKBONE|DICT|INTERRES
    41   19  144 1    
    42   20   21 2    
    43   20   22 1    
    44   22   23 1    
    45   22   24 1    
    46   22  145 1    
    47   23  146 1    
    48   23  147 1    
    49   23  148 1    
    50   24   25 am   BACKBONE|DICT|INTERRES
    51   24  149 1    
    52   25   26 2    
    53   25   27 1    
    54   27   28 1    
    55   27   29 1    
    56   27  150 1    
    57   28  151 1    
    58   28  152 1    
    59   28  153 1    
    60   29   30 am   BACKBONE|DICT|INTERRES
    61   29  154 1    
    62   30   31 2    
    63   30   32 1    
    64   32   33 1    
    65   32   34 1    
    66   32  155 1    
    67   33  156 1    
    68   33  157 1    
    69   33  158 1    
    70   34   35 am   BACKBONE|DICT|INTERRES
    71   34  159 1    
    72   35   36 2    
    73   35   37 1    
    74   37   38 1    
    75   37   39 1    
    76   37  160 1    
    77   38  161 1    
    78   38  162 1    
    79   38  163 1    
    80   39   40 am   BACKBONE|DICT|INTERRES
    81   39  164 1    
    82   40   41 2    
    83   40   42 1    
    84   42   43 1    
    85   42   44 1    
    86   42  165 1    
    87   43  166 1    
    88   43  167 1    
    89   43  168 1    
    90   44   45 am   BACKBONE|DICT|INTERRES
    91   44  169 1    
    92   45   46 2    
    93   45   47 1    
    94   47   48 1    
    95   47   49 1    
    96   47  170 1    
    97   48  171 1    
    98   48  172 1    
    99   48  173 1    
   100   49   50 am   BACKBONE|DICT|INTERRES
   101   49  174 1    
   102   50   51 2    
   103   50   52 1    
   104   52   53 1    
   105   52   54 1    
   106   52  175 1    
   107   53  176 1    
   108   53  177 1    
   109   53  178 1    
   110   54   55 am   BACKBONE|DICT|INTERRES
   111   54  179 1    
   112   55   56 2    
   113   55   57 1    
   114   57   58 1    
   115   57   59 1    
   116   57  180 1    
   117   58  181 1    
   118   58  182 1    
   119   58  183 1    
   120   59   60 am   BACKBONE|DICT|INTERRES
   121   59  184 1    
   122   60   61 2    
   123   60   62 1    
   124   62   63 1    
   125   62   64 1    
   126   62  185 1    
   127   63  186 1    
   128   63  187 1    
   129   63  188 1    
   130   64   65 am   BACKBONE|DICT|INTERRES
   131   64  189 1    
   132   65   66 2    
   133   67   68 2    
   134   67   69 am   BACKBONE|DICT|INTERRES
   135   69   70 1    
   136   69  190 1    
   137   70   71 1    
   138   70   72 1    
   139   70  191 1    
   140   71  192 1    
   141   71  193 1    
   142   71  194 1    
   143   72   73 2    
   144   72   74 am   BACKBONE|DICT|INTERRES
   145   74   75 1    
   146   74  195 1    
   147   75   76 1    
   148   75   77 1    
   149   75  196 1    
   150   76  197 1    
   151   76  198 1    
   152   76  199 1    
   153   77   78 2    
   154   77   79 am   BACKBONE|DICT|INTERRES
   155   79   80 1    
   156   79  200 1    
   157   80   81 1    
   158   80   82 1    
   159   80  201 1    
   160   81  202 1    
   161   81  203 1    
   162   81  204 1    
   163   82   83 2    
   164   82   84 am   BACKBONE|DICT|INTERRES
   165   84   85 1    
   166   84  205 1    
   167   85   86 1    
   168   85   87 1    
   169   85  206 1    
   170   86  207 1    
   171   86  208 1    
   172   86  209 1    
   173   87   88 2    
   174   87   89 am   BACKBONE|DICT|INTERRES
   175   89   90 1    
   176   89  210 1    
   177   90   91 1    
   178   90   92 1    
   179   90  211 1    
   180   91  212 1    
   181   91  213 1    
   182   91  214 1    
   183   92   93 2    
   184   92   94 am   BACKBONE|DICT|INTERRES
   185   94   95 1    
   186   94  215 1    
   187   95   96 1    
   188   95   97 1    
   189   95  216 1    
   190   96  217 1    
   191   96  218 1    
   192   96  219 1    
   193   97   98 2    
   194   97   99 am   BACKBONE|DICT|INTERRES
   195   99  100 1    
   196   99  220 1    
   197  100  101 1    
   198  100  102 1    
   199  100  221 1    
   200  101  222 1    
   201  101  223 1    
   202  101  224 1    
   203  102  103 2    
   204  102  104 am   BACKBONE|DICT|INTERRES
   205  104  105 1    
   206  104  225 1    
   207  105  106 1    
   208  105  107 1    
   209  105  226 1    
   210  106  227 1    
   211  106  228 1    
   212  106  229 1    
   213  107  108 2    
   214  107  109 am   BACKBONE|DICT|INTERRES
   215  109  110 1    
   216  109  230 1    
   217  110  111 1    
   218  110  112 1    
   219  110  231 1    
   220  111  232 1    
   221  111  233 1    
   222  111  234 1    
   223  112  113 2    
   224  112  114 am   BACKBONE|DICT|INTERRES
   225  114  115 1    
   226  114  235 1    
   227  115  116 1    
   228  115  117 1    
   229  115  236 1    
   230  116  237 1    
   231  116  238 1    
   232  116  239 1    
   233  117  118 2    
   234  117  119 am   BACKBONE|DICT|INTERRES
   235  119  120 1    
   236  119  240 1    
   237  120  121 1    
   238  120  124 1    
   239  120  241 1    
   240  121  122 am   BACKBONE|DICT|INTERRES
   241  121  123 2    
   242  122  242 1    
   243  122  243 1    
   244  124  125 1    
   245  124  244 1    
   246  124  245 1    
   247  125  126 1    
   248  126  246 1    
   249  126  247 1    
@<TRIPOS>SUBSTRUCTURE
     1 UNK         1 GROUP             0       ****    0 ROOT    
