@<TRIPOS>MOLECULE
3R540
247   249    1
SMALL
USER_CHARGES


@<TRIPOS>ATOM
      1 CA          5.4892  -11.2112  -48.5032 C.3       0 UNK        -0.1800 
      2 C           4.1948  -11.3118  -47.7085 C.2       0 UNK         0.5000 
      3 O           3.6158  -10.2842  -47.3565 O.2       0 UNK        -0.5000 
      4 N           3.7493  -12.5448  -47.4291 N.am      1 UNK        -0.5000 
      5 CA          2.5307  -12.8912  -46.6822 C.3       1 UNK         0.1400 
      6 C6          1.2137  -12.4902  -47.4028 C.3       23 UNK        -0.0398 
      7 S7          1.0378  -13.2281  -49.0628 S.3       23 UNK        -0.2404 
      8 C8          0.1967  -14.7830  -48.6432 C.3       23 UNK        -0.0205 
      9 C9         -0.3484  -15.4779  -49.8777 C.ar      23 UNK        -0.0193 
     10 C10        -1.6712  -15.2684  -50.2810 C.ar      23 UNK        -0.1150 
     11 C11        -2.1817  -15.8917  -51.4245 C.ar      23 UNK        -0.0193 
     12 C12        -1.3356  -16.7254  -52.1667 C.ar      23 UNK        -0.1150 
     13 C13        -0.0240  -16.9736  -51.7538 C.ar      23 UNK        -0.0193 
     14 C14         0.4677  -16.3406  -50.6118 C.ar      23 UNK        -0.1150 
     15 C15         0.8578  -17.9299  -52.5435 C.3       23 UNK        -0.0205 
     16 S16         0.9337  -19.5861  -51.7838 S.3       23 UNK        -0.2404 
     17 C17        -0.8203  -20.1035  -51.8110 C.3       23 UNK        -0.0398 
     18 CA         -1.3991  -20.4868  -50.4238 C.3       11 UNK         0.1400 
     19 N          -0.9862  -19.5850  -49.3370 N.am      11 UNK        -0.5000 
     20 C          -0.5357  -20.0166  -48.1502 C.2       10 UNK         0.5000 
     21 O          -0.4601  -21.2044  -47.8373 O.2       10 UNK        -0.5000 
     22 CA         -0.1051  -18.9533  -47.1218 C.3       10 UNK         0.1400 
     23 CB          1.3474  -18.5300  -47.3879 C.3       10 UNK        -0.1800 
     24 N          -0.9502  -17.7567  -47.0308 N.am      10 UNK        -0.5000 
     25 C          -2.2873  -17.7281  -46.9224 C.2       9 UNK         0.5000 
     26 O          -3.0031  -18.7268  -47.0136 O.2       9 UNK        -0.5000 
     27 CA         -2.9036  -16.3524  -46.6146 C.3       9 UNK         0.1400 
     28 CB         -4.4202  -16.3874  -46.3538 C.3       9 UNK        -0.1800 
     29 N          -2.2179  -15.7837  -45.4586 N.am      9 UNK        -0.5000 
     30 C          -1.9696  -14.4833  -45.2684 C.2       8 UNK         0.5000 
     31 O          -2.3655  -13.5941  -46.0221 O.2       8 UNK        -0.5000 
     32 CA         -1.1111  -14.1080  -44.0421 C.3       8 UNK         0.1400 
     33 CB         -2.0205  -13.7357  -42.8608 C.3       8 UNK        -0.1800 
     34 N          -0.1527  -15.1319  -43.6017 N.am      8 UNK        -0.5000 
     35 C           0.7769  -15.7346  -44.3592 C.2       7 UNK         0.5000 
     36 O           0.8734  -15.5598  -45.5723 O.2       7 UNK        -0.5000 
     37 CA          1.7587  -16.6961  -43.6627 C.3       7 UNK         0.1400 
     38 CB          3.1989  -16.4938  -44.1680 C.3       7 UNK        -0.1800 
     39 N           1.7508  -16.5390  -42.2087 N.am      7 UNK        -0.5000 
     40 C           1.0827  -17.3164  -41.3458 C.2       6 UNK         0.5000 
     41 O           0.3346  -18.2292  -41.6982 O.2       6 UNK        -0.5000 
     42 CA          1.2664  -17.0035  -39.8440 C.3       6 UNK         0.1400 
     43 CB          1.0152  -18.2259  -38.9368 C.3       6 UNK        -0.1800 
     44 N           2.5565  -16.3734  -39.5400 N.am      6 UNK        -0.5000 
     45 C           3.7844  -16.8953  -39.7007 C.2       5 UNK         0.5000 
     46 O           3.9919  -18.0557  -40.0573 O.2       5 UNK        -0.5000 
     47 CA          4.9885  -15.9609  -39.4574 C.3       5 UNK         0.1400 
     48 CB          5.9009  -15.9199  -40.6955 C.3       5 UNK        -0.1800 
     49 N           4.5682  -14.5929  -39.1494 N.am      5 UNK        -0.5000 
     50 C           4.4446  -14.0789  -37.9179 C.2       4 UNK         0.5000 
     51 O           4.7454  -14.6861  -36.8899 O.2       4 UNK        -0.5000 
     52 CA          3.8635  -12.6528  -37.8120 C.3       4 UNK         0.1400 
     53 CB          4.9954  -11.6219  -37.6840 C.3       4 UNK        -0.1800 
     54 N           3.0105  -12.2817  -38.9450 N.am      4 UNK        -0.5000 
     55 C           1.8382  -12.8567  -39.2501 C.2       3 UNK         0.5000 
     56 O           1.3187  -13.7455  -38.5762 O.2       3 UNK        -0.5000 
     57 CA          1.1734  -12.4230  -40.5704 C.3       3 UNK         0.1400 
     58 CB          0.1710  -11.2853  -40.3305 C.3       3 UNK        -0.1800 
     59 N           2.1347  -12.0165  -41.5995 N.am      3 UNK        -0.5000 
     60 C           3.0454  -12.8293  -42.1492 C.2       2 UNK         0.5000 
     61 O           3.1647  -14.0179  -41.8429 O.2       2 UNK        -0.5000 
     62 CA          3.9997  -12.2025  -43.1826 C.3       2 UNK         0.1400 
     63 CB          5.4629  -12.5358  -42.8495 C.3       2 UNK        -0.1800 
     64 N           3.7118  -12.6387  -44.5481 N.am      2 UNK        -0.5000 
     65 C           2.5853  -12.3745  -45.2250 C.2       1 UNK         0.5000 
     66 O           1.6480  -11.7263  -44.7560 O.2       1 UNK        -0.5000 
     67 C          -2.9345  -20.6613  -50.4833 C.2       11 UNK         0.5000 
     68 O          -3.4314  -21.3670  -51.3637 O.2       11 UNK        -0.5000 
     69 N          -3.6700  -20.0168  -49.5659 N.am      12 UNK        -0.5000 
     70 CA         -5.0957  -20.2581  -49.3427 C.3       12 UNK         0.1400 
     71 CB         -5.7737  -18.9706  -48.8539 C.3       12 UNK        -0.1800 
     72 C          -5.2848  -21.3817  -48.3115 C.2       12 UNK         0.5000 
     73 O          -6.2138  -22.1783  -48.4480 O.2       12 UNK        -0.5000 
     74 N          -4.3829  -21.4425  -47.3183 N.am      13 UNK        -0.5000 
     75 CA         -4.2937  -22.4788  -46.2895 C.3       13 UNK         0.1400 
     76 CB         -3.1034  -22.1687  -45.3689 C.3       13 UNK        -0.1800 
     77 C          -4.1679  -23.8809  -46.9143 C.2       13 UNK         0.5000 
     78 O          -3.1760  -24.1661  -47.5906 O.2       13 UNK        -0.5000 
     79 N          -5.2259  -24.6898  -46.7514 N.am      14 UNK        -0.5000 
     80 CA         -5.4381  -26.0091  -47.3649 C.3       14 UNK         0.1400 
     81 CB         -4.4665  -27.0437  -46.7596 C.3       14 UNK        -0.1800 
     82 C          -5.3801  -25.9919  -48.9104 C.2       14 UNK         0.5000 
     83 O          -5.0749  -27.0172  -49.5215 O.2       14 UNK        -0.5000 
     84 N          -5.6117  -24.8160  -49.5175 N.am      15 UNK        -0.5000 
     85 CA         -5.4628  -24.5017  -50.9422 C.3       15 UNK         0.1400 
     86 CB         -6.5548  -25.2318  -51.7535 C.3       15 UNK        -0.1800 
     87 C          -4.0374  -24.7389  -51.4980 C.2       15 UNK         0.5000 
     88 O          -3.8825  -24.9091  -52.7104 O.2       15 UNK        -0.5000 
     89 N          -3.0322  -24.7741  -50.6068 N.am      16 UNK        -0.5000 
     90 CA         -1.6540  -25.2220  -50.8416 C.3       16 UNK         0.1400 
     91 CB         -0.9290  -24.3068  -51.8497 C.3       16 UNK        -0.1800 
     92 C          -1.5940  -26.7107  -51.2478 C.2       16 UNK         0.5000 
     93 O          -0.8430  -27.0713  -52.1527 O.2       16 UNK        -0.5000 
     94 N          -2.4301  -27.5413  -50.6054 N.am      17 UNK        -0.5000 
     95 CA         -2.7059  -28.9457  -50.9360 C.3       17 UNK         0.1400 
     96 CB         -1.4542  -29.8293  -50.7505 C.3       17 UNK        -0.1800 
     97 C          -3.3578  -29.0811  -52.3289 C.2       17 UNK         0.5000 
     98 O          -3.0025  -29.9698  -53.1043 O.2       17 UNK        -0.5000 
     99 N          -4.2866  -28.1559  -52.6152 N.am      18 UNK        -0.5000 
    100 CA        -5.0297  -27.9667  -53.8677 C.3       18 UNK         0.1400 
    101 CB        -5.9022  -29.1990  -54.1837 C.3       18 UNK        -0.1800 
    102 C         -4.1684  -27.5278  -55.0728 C.2       18 UNK         0.5000 
    103 O         -4.6609  -27.5527  -56.2020 O.2       18 UNK        -0.5000 
    104 N         -2.9139  -27.1213  -54.8339 N.am      19 UNK        -0.5000 
    105 CA        -1.9772  -26.7060  -55.8775 C.3       19 UNK         0.1400 
    106 CB        -0.5390  -26.9287  -55.3869 C.3       19 UNK        -0.1800 
    107 C         -2.1624  -25.2429  -56.3177 C.2       19 UNK         0.5000 
    108 O         -1.7776  -24.9146  -57.4413 O.2       19 UNK        -0.5000 
    109 N         -2.7116  -24.3909  -55.4403 N.am      20 UNK        -0.5000 
    110 CA        -2.8390  -22.9504  -55.6721 C.3       20 UNK         0.1400 
    111 CB        -1.9918  -22.1912  -54.6421 C.3       20 UNK        -0.1800 
    112 C         -4.2990  -22.4901  -55.6034 C.2       20 UNK         0.5000 
    113 O         -4.7606  -21.8225  -56.5294 O.2       20 UNK        -0.5000 
    114 N         -4.9893  -22.8479  -54.5096 N.am      21 UNK        -0.5000 
    115 CA        -6.3710  -22.4704  -54.1881 C.3       21 UNK         0.1400 
    116 CB        -7.3593  -23.2142  -55.1106 C.3       21 UNK        -0.1800 
    117 C         -6.5976  -20.9434  -54.1522 C.2       21 UNK         0.5000 
    118 O         -7.5504  -20.4448  -54.7555 O.2       21 UNK        -0.5000 
    119 N         -5.7067  -20.2275  -53.4508 N.am      22 UNK        -0.5000 
    120 CA        -5.8166  -18.7767  -53.2207 C.3       22 UNK         0.1400 
    121 C         -6.9854  -18.3857  -52.2640 C.2       22 UNK         0.5000 
    122 N         -7.2977  -17.1026  -52.1494 N.am      22 UNK        -0.7600 
    123 O         -7.6062  -19.2244  -51.6148 O.2       22 UNK        -0.5000 
    124 C124       -4.4540  -18.1723  -52.7851 C.3       23 UNK        -0.0398 
    125 S125       -4.2400  -16.4419  -53.3349 S.3       23 UNK        -0.2404 
    126 C126       -3.6402  -15.6230  -51.8115 C.3       23 UNK        -0.0205 
    127 H127        5.3164  -10.6713  -49.4342 H         1 UNK         0.0600 
    128 H128        5.8921  -12.1937  -48.7504 H         1 UNK         0.0600 
    129 H129        6.2412  -10.6703  -47.9286 H         1 UNK         0.0600 
    130 H130        4.2808  -13.3356  -47.7649 H         1 UNK         0.3000 
    131 H131        2.5438  -13.9779  -46.6092 H         1 UNK         0.0600 
    132 H132        1.1516  -11.4062  -47.5081 H         1 UNK         0.0800 
    133 H133        0.3480  -12.7779  -46.8040 H         1 UNK         0.0800 
    134 H134        0.9030  -15.4386  -48.1339 H         1 UNK         0.0800 
    135 H135       -0.6132  -14.5849  -47.9423 H         1 UNK         0.0800 
    136 H136       -2.3040  -14.6054  -49.7073 H         1 UNK         0.1150 
    137 H137       -1.6878  -17.2023  -53.0680 H         1 UNK         0.1150 
    138 H138        1.4873  -16.5161  -50.2983 H         1 UNK         0.1150 
    139 H139        0.5020  -18.0215  -53.5710 H         1 UNK         0.0800 
    140 H140        1.8684  -17.5242  -52.6079 H         1 UNK         0.0800 
    141 H141       -0.8746  -20.9668  -52.4710 H         1 UNK         0.0800 
    142 H142       -1.4300  -19.3436  -52.2922 H         1 UNK         0.0800 
    143 H143       -1.0108  -21.4828  -50.2080 H         1 UNK         0.0600 
    144 H144       -0.9949  -18.5944  -49.5345 H         1 UNK         0.3000 
    145 H145       -0.1396  -19.4303  -46.1403 H         1 UNK         0.0600 
    146 H146        1.7259  -17.8876  -46.5955 H         1 UNK         0.0600 
    147 H147        2.0061  -19.3980  -47.4387 H         1 UNK         0.0600 
    148 H148        1.4431  -17.9925  -48.3311 H         1 UNK         0.0600 
    149 H149       -0.4514  -16.8862  -46.8984 H         1 UNK         0.3000 
    150 H150       -2.7246  -15.7262  -47.4898 H         1 UNK         0.0600 
    151 H151       -4.9613  -16.6380  -47.2646 H         1 UNK         0.0600 
    152 H152       -4.7888  -15.4148  -46.0276 H         1 UNK         0.0600 
    153 H153       -4.6848  -17.1182  -45.5887 H         1 UNK         0.0600 
    154 H154       -1.8445  -16.4472  -44.7942 H         1 UNK         0.3000 
    155 H155       -0.5331  -13.2245  -44.3167 H         1 UNK         0.0600 
    156 H156       -2.7390  -12.9664  -43.1472 H         1 UNK         0.0600 
    157 H157       -1.4474  -13.3402  -42.0240 H         1 UNK         0.0600 
    158 H158       -2.5871  -14.5966  -42.5038 H         1 UNK         0.0600 
    159 H159       -0.1624  -15.3588  -42.6193 H         1 UNK         0.3000 
    160 H160        1.4527  -17.7094  -43.9300 H         1 UNK         0.0600 
    161 H161        3.5520  -15.4789  -43.9906 H         1 UNK         0.0600 
    162 H162        3.2763  -16.6809  -45.2391 H         1 UNK         0.0600 
    163 H163        3.8882  -17.1768  -43.6712 H         1 UNK         0.0600 
    164 H164        2.3181  -15.7747  -41.8515 H         1 UNK         0.3000 
    165 H165        0.5068  -16.2591  -39.6018 H         1 UNK         0.0600 
    166 H166        1.6827  -19.0543  -39.1752 H         1 UNK         0.0600 
    167 H167        1.1559  -17.9723  -37.8861 H         1 UNK         0.0600 
    168 H168       -0.0068  -18.5905  -39.0466 H         1 UNK         0.0600 
    169 H169        2.4919  -15.4155  -39.2184 H         1 UNK         0.3000 
    170 H170        5.5622  -16.3743  -38.6256 H         1 UNK         0.0600 
    171 H171        6.3261  -16.9028  -40.9013 H         1 UNK         0.0600 
    172 H172        5.3556  -15.6085  -41.5868 H         1 UNK         0.0600 
    173 H173        6.7334  -15.2309  -40.5522 H         1 UNK         0.0600 
    174 H174        4.2630  -14.0428  -39.9421 H         1 UNK         0.3000 
    175 H175        3.2564  -12.6119  -36.9052 H         1 UNK         0.0600 
    176 H176        5.6257  -11.6038  -38.5740 H         1 UNK         0.0600 
    177 H177        4.5996  -10.6177  -37.5309 H         1 UNK         0.0600 
    178 H178        5.6371  -11.8498  -36.8318 H         1 UNK         0.0600 
    179 H179        3.3611  -11.5599  -39.5574 H         1 UNK         0.3000 
    180 H180        0.6283  -13.2876  -40.9525 H         1 UNK         0.0600 
    181 H181        0.6645  -10.3838  -39.9655 H         1 UNK         0.0600 
    182 H182       -0.5772  -11.5735  -39.5908 H         1 UNK         0.0600 
    183 H183       -0.3616  -11.0296  -41.2468 H         1 UNK         0.0600 
    184 H184        2.0721  -11.0621  -41.9244 H         1 UNK         0.3000 
    185 H185        3.8885  -11.1168  -43.1463 H         1 UNK         0.0600 
    186 H186        5.7076  -12.2520  -41.8250 H         1 UNK         0.0600 
    187 H187        5.6681  -13.6018  -42.9527 H         1 UNK         0.0600 
    188 H188        6.1478  -11.9995  -43.5065 H         1 UNK         0.0600 
    189 H189        4.4361  -13.1689  -45.0093 H         1 UNK         0.3000 
    190 H190       -3.1961  -19.4694  -48.8558 H         1 UNK         0.3000 
    191 H191       -5.5720  -20.5611  -50.2772 H         1 UNK         0.0600 
    192 H192       -5.5088  -18.7453  -47.8222 H         1 UNK         0.0600 
    193 H193       -5.5069  -18.1130  -49.4713 H         1 UNK         0.0600 
    194 H194       -6.8587  -19.0733  -48.8884 H         1 UNK         0.0600 
    195 H195       -3.6833  -20.7119  -47.2696 H         1 UNK         0.3000 
    196 H196       -5.2065  -22.4320  -45.6925 H         1 UNK         0.0600 
    197 H197       -3.2088  -21.1886  -44.9031 H         1 UNK         0.0600 
    198 H198       -2.1593  -22.1787  -45.9146 H         1 UNK         0.0600 
    199 H199       -3.0275  -22.9051  -44.5681 H         1 UNK         0.0600 
    200 H200       -6.0088  -24.3392  -46.2164 H         1 UNK         0.3000 
    201 H201       -6.4530  -26.3121  -47.1045 H         1 UNK         0.0600 
    202 H202       -4.7036  -28.0525  -47.0998 H         1 UNK         0.0600 
    203 H203       -4.5252  -27.0495  -45.6713 H         1 UNK         0.0600 
    204 H204       -3.4321  -26.8399  -47.0382 H         1 UNK         0.0600 
    205 H205       -5.8559  -24.0203  -48.9335 H         1 UNK         0.3000 
    206 H206       -5.6342  -23.4288  -51.0367 H         1 UNK         0.0600 
    207 H207       -7.5472  -24.8893  -51.4608 H         1 UNK         0.0600 
    208 H208       -6.5248  -26.3104  -51.6038 H         1 UNK         0.0600 
    209 H209       -6.4586  -25.0557  -52.8234 H         1 UNK         0.0600 
    210 H210       -3.2550  -24.5828  -49.6350 H         1 UNK         0.3000 
    211 H211       -1.1390  -25.1372  -49.8837 H         1 UNK         0.0600 
    212 H212       -1.0754  -23.2572  -51.6094 H         1 UNK         0.0600 
    213 H213        0.1445  -24.4976  -51.8446 H         1 UNK         0.0600 
    214 H214       -1.2790  -24.4678  -52.8688 H         1 UNK         0.0600 
    215 H215       -3.0665  -27.1426  -49.9246 H         1 UNK         0.3000 
    216 H216       -3.4535  -29.2856  -50.2178 H         1 UNK         0.0600 
    217 H217       -1.7069  -30.8851  -50.8532 H         1 UNK         0.0600 
    218 H218       -0.6828  -29.6081  -51.4883 H         1 UNK         0.0600 
    219 H219       -1.0204  -29.6947  -49.7598 H         1 UNK         0.0600 
    220 H220       -4.4881  -27.4796  -51.8912 H         1 UNK         0.3000 
    221 H221       -5.7084  -27.1345  -53.6901 H         1 UNK         0.0600 
    222 H222       -5.2994  -30.0634  -54.4626 H         1 UNK         0.0600 
    223 H223       -6.5152  -29.4782  -53.3267 H         1 UNK         0.0600 
    224 H224       -6.5815  -28.9964  -55.0125 H         1 UNK         0.0600 
    225 H225       -2.5721  -27.1143  -53.8824 H         1 UNK         0.3000 
    226 H226       -2.1280  -27.3384  -56.7552 H         1 UNK         0.0600 
    227 H227       -0.3934  -27.9481  -55.0288 H         1 UNK         0.0600 
    228 H228        0.1764  -26.7607  -56.1929 H         1 UNK         0.0600 
    229 H229       -0.2801  -26.2461  -54.5772 H         1 UNK         0.0600 
    230 H230       -3.0415  -24.7466  -54.5489 H         1 UNK         0.3000 
    231 H231       -2.4669  -22.6815  -56.6628 H         1 UNK         0.0600 
    232 H232       -2.0564  -21.1137  -54.7990 H         1 UNK         0.0600 
    233 H233       -0.9403  -22.4701  -54.7123 H         1 UNK         0.0600 
    234 H234       -2.3273  -22.3963  -53.6260 H         1 UNK         0.0600 
    235 H235       -4.5177  -23.4218  -53.8187 H         1 UNK         0.3000 
    236 H236       -6.5594  -22.8028  -53.1694 H         1 UNK         0.0600 
    237 H237       -7.1915  -24.2908  -55.0840 H         1 UNK         0.0600 
    238 H238       -8.3903  -23.0391  -54.8011 H         1 UNK         0.0600 
    239 H239       -7.2689  -22.8886  -56.1473 H         1 UNK         0.0600 
    240 H240       -4.9648  -20.7104  -52.9603 H         1 UNK         0.3000 
    241 H241       -6.0717  -18.3472  -54.1919 H         1 UNK         0.0600 
    242 H242       -8.0510  -16.8330  -51.5364 H         1 UNK         0.3800 
    243 H243       -6.7932  -16.3953  -52.6620 H         1 UNK         0.3800 
    244 H244       -4.3155  -18.2491  -51.7065 H         1 UNK         0.0800 
    245 H245       -3.6368  -18.7393  -53.2323 H         1 UNK         0.0800 
    246 H246       -4.2900  -15.9006  -50.9800 H         1 UNK         0.0800 
    247 H247       -3.7609  -14.5473  -51.9466 H         1 UNK         0.0800 
@<TRIPOS>BOND
     1    1    2 1    
     2    1  127 1    
     3    1  128 1    
     4    1  129 1    
     5    2    3 2    
     6    2    4 am   BACKBONE|DICT|INTERRES
     7    4    5 1    
     8    4  130 1    
     9    5    6 1    
    10    5   65 1    
    11    5  131 1    
    12    6    7 1    
    13    6  132 1    
    14    6  133 1    
    15    7    8 1    
    16    8    9 1    
    17    8  134 1    
    18    8  135 1    
    19    9   10 ar   
    20    9   14 ar   
    21   10   11 ar   
    22   10  136 1    
    23   11   12 ar   
    24   11  126 1    
    25   12   13 ar   
    26   12  137 1    
    27   13   14 ar   
    28   13   15 1    
    29   14  138 1    
    30   15   16 1    
    31   15  139 1    
    32   15  140 1    
    33   16   17 1    
    34   17   18 1    
    35   17  141 1    
    36   17  142 1    
    37   18   19 1    
    38   18   67 1    
    39   18  143 1    
    40   19   20 am   BACKBONE|DICT|INTERRES
    41   19  144 1    
    42   20   21 2    
    43   20   22 1    
    44   22   23 1    
    45   22   24 1    
    46   22  145 1    
    47   23  146 1    
    48   23  147 1    
    49   23  148 1    
    50   24   25 am   BACKBONE|DICT|INTERRES
    51   24  149 1    
    52   25   26 2    
    53   25   27 1    
    54   27   28 1    
    55   27   29 1    
    56   27  150 1    
    57   28  151 1    
    58   28  152 1    
    59   28  153 1    
    60   29   30 am   BACKBONE|DICT|INTERRES
    61   29  154 1    
    62   30   31 2    
    63   30   32 1    
    64   32   33 1    
    65   32   34 1    
    66   32  155 1    
    67   33  156 1    
    68   33  157 1    
    69   33  158 1    
    70   34   35 am   BACKBONE|DICT|INTERRES
    71   34  159 1    
    72   35   36 2    
    73   35   37 1    
    74   37   38 1    
    75   37   39 1    
    76   37  160 1    
    77   38  161 1    
    78   38  162 1    
    79   38  163 1    
    80   39   40 am   BACKBONE|DICT|INTERRES
    81   39  164 1    
    82   40   41 2    
    83   40   42 1    
    84   42   43 1    
    85   42   44 1    
    86   42  165 1    
    87   43  166 1    
    88   43  167 1    
    89   43  168 1    
    90   44   45 am   BACKBONE|DICT|INTERRES
    91   44  169 1    
    92   45   46 2    
    93   45   47 1    
    94   47   48 1    
    95   47   49 1    
    96   47  170 1    
    97   48  171 1    
    98   48  172 1    
    99   48  173 1    
   100   49   50 am   BACKBONE|DICT|INTERRES
   101   49  174 1    
   102   50   51 2    
   103   50   52 1    
   104   52   53 1    
   105   52   54 1    
   106   52  175 1    
   107   53  176 1    
   108   53  177 1    
   109   53  178 1    
   110   54   55 am   BACKBONE|DICT|INTERRES
   111   54  179 1    
   112   55   56 2    
   113   55   57 1    
   114   57   58 1    
   115   57   59 1    
   116   57  180 1    
   117   58  181 1    
   118   58  182 1    
   119   58  183 1    
   120   59   60 am   BACKBONE|DICT|INTERRES
   121   59  184 1    
   122   60   61 2    
   123   60   62 1    
   124   62   63 1    
   125   62   64 1    
   126   62  185 1    
   127   63  186 1    
   128   63  187 1    
   129   63  188 1    
   130   64   65 am   BACKBONE|DICT|INTERRES
   131   64  189 1    
   132   65   66 2    
   133   67   68 2    
   134   67   69 am   BACKBONE|DICT|INTERRES
   135   69   70 1    
   136   69  190 1    
   137   70   71 1    
   138   70   72 1    
   139   70  191 1    
   140   71  192 1    
   141   71  193 1    
   142   71  194 1    
   143   72   73 2    
   144   72   74 am   BACKBONE|DICT|INTERRES
   145   74   75 1    
   146   74  195 1    
   147   75   76 1    
   148   75   77 1    
   149   75  196 1    
   150   76  197 1    
   151   76  198 1    
   152   76  199 1    
   153   77   78 2    
   154   77   79 am   BACKBONE|DICT|INTERRES
   155   79   80 1    
   156   79  200 1    
   157   80   81 1    
   158   80   82 1    
   159   80  201 1    
   160   81  202 1    
   161   81  203 1    
   162   81  204 1    
   163   82   83 2    
   164   82   84 am   BACKBONE|DICT|INTERRES
   165   84   85 1    
   166   84  205 1    
   167   85   86 1    
   168   85   87 1    
   169   85  206 1    
   170   86  207 1    
   171   86  208 1    
   172   86  209 1    
   173   87   88 2    
   174   87   89 am   BACKBONE|DICT|INTERRES
   175   89   90 1    
   176   89  210 1    
   177   90   91 1    
   178   90   92 1    
   179   90  211 1    
   180   91  212 1    
   181   91  213 1    
   182   91  214 1    
   183   92   93 2    
   184   92   94 am   BACKBONE|DICT|INTERRES
   185   94   95 1    
   186   94  215 1    
   187   95   96 1    
   188   95   97 1    
   189   95  216 1    
   190   96  217 1    
   191   96  218 1    
   192   96  219 1    
   193   97   98 2    
   194   97   99 am   BACKBONE|DICT|INTERRES
   195   99  100 1    
   196   99  220 1    
   197  100  101 1    
   198  100  102 1    
   199  100  221 1    
   200  101  222 1    
   201  101  223 1    
   202  101  224 1    
   203  102  103 2    
   204  102  104 am   BACKBONE|DICT|INTERRES
   205  104  105 1    
   206  104  225 1    
   207  105  106 1    
   208  105  107 1    
   209  105  226 1    
   210  106  227 1    
   211  106  228 1    
   212  106  229 1    
   213  107  108 2    
   214  107  109 am   BACKBONE|DICT|INTERRES
   215  109  110 1    
   216  109  230 1    
   217  110  111 1    
   218  110  112 1    
   219  110  231 1    
   220  111  232 1    
   221  111  233 1    
   222  111  234 1    
   223  112  113 2    
   224  112  114 am   BACKBONE|DICT|INTERRES
   225  114  115 1    
   226  114  235 1    
   227  115  116 1    
   228  115  117 1    
   229  115  236 1    
   230  116  237 1    
   231  116  238 1    
   232  116  239 1    
   233  117  118 2    
   234  117  119 am   BACKBONE|DICT|INTERRES
   235  119  120 1    
   236  119  240 1    
   237  120  121 1    
   238  120  124 1    
   239  120  241 1    
   240  121  122 am   BACKBONE|DICT|INTERRES
   241  121  123 2    
   242  122  242 1    
   243  122  243 1    
   244  124  125 1    
   245  124  244 1    
   246  124  245 1    
   247  125  126 1    
   248  126  246 1    
   249  126  247 1    
@<TRIPOS>SUBSTRUCTURE
     1 UNK         1 GROUP             0       ****    0 ROOT    
