@<TRIPOS>MOLECULE
3R540
247   249    1
SMALL
USER_CHARGES


@<TRIPOS>ATOM
      1 CA         -0.7895   -9.2680  -52.7922 C.3       0 UNK        -0.1800 
      2 C          -0.4892   -9.0306  -51.3191 C.2       0 UNK         0.5000 
      3 O          -0.8214   -7.9703  -50.7891 O.2       0 UNK        -0.5000 
      4 N           0.1393  -10.0115  -50.6589 N.am      1 UNK        -0.5000 
      5 CA          0.4833   -9.9864  -49.2311 C.3       1 UNK         0.1400 
      6 C6          1.5347  -11.0658  -48.8672 C.3       23 UNK        -0.0398 
      7 S7          1.0870  -12.7551  -49.4035 S.3       23 UNK        -0.2404 
      8 C8          2.1833  -13.7389  -48.3418 C.3       23 UNK        -0.0205 
      9 C9          2.0347  -15.2226  -48.6280 C.ar      23 UNK        -0.0193 
     10 C10         2.7894  -15.8232  -49.6384 C.ar      23 UNK        -0.1150 
     11 C11         2.6503  -17.1868  -49.9143 C.ar      23 UNK        -0.0193 
     12 C12         1.7536  -17.9525  -49.1626 C.ar      23 UNK        -0.1150 
     13 C13         1.0038  -17.3636  -48.1400 C.ar      23 UNK        -0.0193 
     14 C14         1.1449  -15.9977  -47.8810 C.ar      23 UNK        -0.1150 
     15 C15         0.0538  -18.2039  -47.3047 C.3       23 UNK        -0.0205 
     16 S16         0.9693  -19.1477  -46.0500 S.3       23 UNK        -0.2404 
     17 C17        -0.3757  -19.6411  -44.9282 C.3       23 UNK        -0.0398 
     18 CA         -1.3223  -20.7335  -45.4833 C.3       11 UNK         0.1400 
     19 N          -0.6324  -21.9076  -46.0266 N.am      11 UNK        -0.5000 
     20 C          -1.2190  -22.8476  -46.7842 C.2       10 UNK         0.5000 
     21 O          -2.3985  -22.8054  -47.1308 O.2       10 UNK        -0.5000 
     22 CA         -0.3652  -24.0602  -47.1959 C.3       10 UNK         0.1400 
     23 CB          0.4009  -23.7573  -48.4906 C.3       10 UNK        -0.1800 
     24 N           0.5752  -24.4695  -46.1545 N.am      10 UNK        -0.5000 
     25 C           0.2216  -24.9339  -44.9467 C.2       9 UNK         0.5000 
     26 O          -0.9427  -25.1479  -44.6131 O.2       9 UNK        -0.5000 
     27 CA          1.3558  -25.1238  -43.9199 C.3       9 UNK         0.1400 
     28 CB          1.8995  -26.5587  -43.9748 C.3       9 UNK        -0.1800 
     29 N           2.4597  -24.1763  -44.1101 N.am      9 UNK        -0.5000 
     30 C           2.3389  -22.8451  -44.0188 C.2       8 UNK         0.5000 
     31 O           1.2878  -22.2763  -43.7099 O.2       8 UNK        -0.5000 
     32 CA          3.5709  -22.0272  -44.4392 C.3       8 UNK         0.1400 
     33 CB          3.6679  -21.9611  -45.9727 C.3       8 UNK        -0.1800 
     34 N           3.5170  -20.6637  -43.9218 N.am      8 UNK        -0.5000 
     35 C           3.8356  -20.3081  -42.6715 C.2       7 UNK         0.5000 
     36 O           4.2037  -21.1116  -41.8119 O.2       7 UNK        -0.5000 
     37 CA          3.7372  -18.8028  -42.3338 C.3       7 UNK         0.1400 
     38 CB          4.6581  -18.3925  -41.1665 C.3       7 UNK        -0.1800 
     39 N           3.9490  -17.9112  -43.4820 N.am      7 UNK        -0.5000 
     40 C           5.0274  -17.8394  -44.2814 C.2       6 UNK         0.5000 
     41 O           6.0190  -18.5606  -44.1676 O.2       6 UNK        -0.5000 
     42 CA          4.9966  -16.7843  -45.4061 C.3       6 UNK         0.1400 
     43 CB          4.6048  -17.4334  -46.7414 C.3       6 UNK        -0.1800 
     44 N           4.0839  -15.6741  -45.1256 N.am      6 UNK        -0.5000 
     45 C           4.3276  -14.7079  -44.2288 C.2       5 UNK         0.5000 
     46 O           5.3895  -14.6002  -43.6143 O.2       5 UNK        -0.5000 
     47 CA          3.1920  -13.7045  -43.9493 C.3       5 UNK         0.1400 
     48 CB          3.4070  -12.4049  -44.7406 C.3       5 UNK        -0.1800 
     49 N           1.8468  -14.2196  -44.2235 N.am      5 UNK        -0.5000 
     50 C           1.2490  -15.2290  -43.5772 C.2       4 UNK         0.5000 
     51 O           1.8271  -15.9245  -42.7414 O.2       4 UNK        -0.5000 
     52 CA         -0.2372  -15.4985  -43.9134 C.3       4 UNK         0.1400 
     53 CB         -0.8840  -16.4929  -42.9310 C.3       4 UNK        -0.1800 
     54 N          -1.0581  -14.2827  -43.9404 N.am      4 UNK        -0.5000 
     55 C          -1.0482  -13.3385  -44.8888 C.2       3 UNK         0.5000 
     56 O          -0.3083  -13.3741  -45.8743 O.2       3 UNK        -0.5000 
     57 CA         -1.9638  -12.1251  -44.6513 C.3       3 UNK         0.1400 
     58 CB         -1.2987  -11.1413  -43.6758 C.3       3 UNK        -0.1800 
     59 N          -2.2444  -11.4191  -45.8975 N.am      3 UNK        -0.5000 
     60 C          -3.0798  -11.8301  -46.8556 C.2       2 UNK         0.5000 
     61 O          -3.8020  -12.8225  -46.7501 O.2       2 UNK        -0.5000 
     62 CA         -3.1189  -10.9968  -48.1531 C.3       2 UNK         0.1400 
     63 CB         -3.8864   -9.6765  -47.9484 C.3       2 UNK        -0.1800 
     64 N          -1.8068  -10.7607  -48.7725 N.am      2 UNK        -0.5000 
     65 C          -0.7564  -10.0619  -48.3121 C.2       1 UNK         0.5000 
     66 O          -0.7344   -9.4801  -47.2260 O.2       1 UNK        -0.5000 
     67 C          -2.3280  -21.1476  -44.3950 C.2       11 UNK         0.5000 
     68 O          -3.4658  -20.6782  -44.4092 O.2       11 UNK        -0.5000 
     69 N          -1.9041  -22.0591  -43.5058 N.am      12 UNK        -0.5000 
     70 CA         -2.7410  -22.6599  -42.4618 C.3       12 UNK         0.1400 
     71 CB         -1.8666  -23.5270  -41.5438 C.3       12 UNK        -0.1800 
     72 C          -3.9179  -23.4756  -43.0349 C.2       12 UNK         0.5000 
     73 O          -4.9975  -23.4906  -42.4438 O.2       12 UNK        -0.5000 
     74 N          -3.7005  -24.0866  -44.2063 N.am      13 UNK        -0.5000 
     75 CA         -4.7022  -24.7806  -45.0139 C.3       13 UNK         0.1400 
     76 CB         -3.9891  -25.8384  -45.8733 C.3       13 UNK        -0.1800 
     77 C          -5.5596  -23.8368  -45.8878 C.2       13 UNK         0.5000 
     78 O          -6.2887  -24.3324  -46.7458 O.2       13 UNK        -0.5000 
     79 N          -5.4652  -22.5132  -45.6838 N.am      14 UNK        -0.5000 
     80 CA         -6.2061  -21.4520  -46.3764 C.3       14 UNK         0.1400 
     81 CB         -7.7180  -21.5509  -46.0815 C.3       14 UNK        -0.1800 
     82 C          -5.8865  -21.4038  -47.8829 C.2       14 UNK         0.5000 
     83 O          -6.7867  -21.5082  -48.7175 O.2       14 UNK        -0.5000 
     84 N          -4.5881  -21.2865  -48.1930 N.am      15 UNK        -0.5000 
     85 CA         -3.9873  -21.3100  -49.5319 C.3       15 UNK         0.1400 
     86 CB         -4.4356  -20.0934  -50.3668 C.3       15 UNK        -0.1800 
     87 C          -4.2242  -22.6572  -50.2422 C.2       15 UNK         0.5000 
     88 O          -4.5331  -22.6814  -51.4359 O.2       15 UNK        -0.5000 
     89 N          -4.0892  -23.7418  -49.4638 N.am      16 UNK        -0.5000 
     90 CA         -4.3672  -25.1385  -49.8110 C.3       16 UNK         0.1400 
     91 CB         -3.3206  -25.6691  -50.8104 C.3       16 UNK        -0.1800 
     92 C          -5.8221  -25.3411  -50.2830 C.2       16 UNK         0.5000 
     93 O          -6.0547  -25.8231  -51.3912 O.2       16 UNK        -0.5000 
     94 N          -6.7717  -24.9413  -49.4257 N.am      17 UNK        -0.5000 
     95 CA         -8.2230  -24.9563  -49.6296 C.3       17 UNK         0.1400 
     96 CB         -8.7517  -26.4036  -49.7157 C.3       17 UNK        -0.1800 
     97 C          -8.6588  -24.0723  -50.8158 C.2       17 UNK         0.5000 
     98 O          -9.4229  -24.5148  -51.6759 O.2       17 UNK        -0.5000 
     99 N          -8.1486  -22.8320  -50.8303 N.am      18 UNK        -0.5000 
    100 CA        -8.3852  -21.7811  -51.8245 C.3       18 UNK         0.1400 
    101 CB        -9.8525  -21.3060  -51.7784 C.3       18 UNK        -0.1800 
    102 C         -7.9137  -22.1490  -53.2483 C.2       18 UNK         0.5000 
    103 O         -8.4889  -21.6742  -54.2294 O.2       18 UNK        -0.5000 
    104 N         -6.8567  -22.9670  -53.3427 N.am      19 UNK        -0.5000 
    105 CA        -6.2164  -23.3559  -54.6013 C.3       19 UNK         0.1400 
    106 CB        -5.4866  -24.6916  -54.4000 C.3       19 UNK        -0.1800 
    107 C         -5.2392  -22.2885  -55.1305 C.2       19 UNK         0.5000 
    108 O         -4.8080  -22.3947  -56.2793 O.2       19 UNK        -0.5000 
    109 N         -4.9045  -21.2982  -54.2876 N.am      20 UNK        -0.5000 
    110 CA        -3.9342  -20.2233  -54.5146 C.3       20 UNK         0.1400 
    111 CB        -4.3487  -19.3208  -55.6961 C.3       20 UNK        -0.1800 
    112 C         -2.5074  -20.7890  -54.6398 C.2       20 UNK         0.5000 
    113 O         -1.8197  -20.5453  -55.6326 O.2       20 UNK        -0.5000 
    114 N         -2.1045  -21.5524  -53.6127 N.am      21 UNK        -0.5000 
    115 CA        -0.8479  -22.3049  -53.5076 C.3       21 UNK         0.1400 
    116 CB        -0.7813  -22.9402  -52.1110 C.3       21 UNK        -0.1800 
    117 C          0.4459  -21.5090  -53.7813 C.2       21 UNK         0.5000 
    118 O          1.4267  -22.0977  -54.2380 O.2       21 UNK        -0.5000 
    119 N          0.4269  -20.1977  -53.5097 N.am      22 UNK        -0.5000 
    120 CA         1.5156  -19.2624  -53.8360 C.3       22 UNK         0.1400 
    121 C          1.6408  -18.9202  -55.3552 C.2       22 UNK         0.5000 
    122 N          0.6701  -19.2445  -56.2016 N.am      22 UNK        -0.7600 
    123 O          2.6486  -18.3661  -55.7847 O.2       22 UNK        -0.5000 
    124 C124        1.4311  -17.9885  -52.9529 C.3       23 UNK        -0.0398 
    125 S125        3.0576  -17.2092  -52.6648 S.3       23 UNK        -0.2404 
    126 C126        3.4883  -17.8318  -51.0083 C.3       23 UNK        -0.0205 
    127 H127       -0.4374  -10.2446  -53.1257 H         1 UNK         0.0600 
    128 H128       -0.3046   -8.5055  -53.4017 H         1 UNK         0.0600 
    129 H129       -1.8638   -9.2154  -52.9691 H         1 UNK         0.0600 
    130 H130        0.3921  -10.8599  -51.1467 H         1 UNK         0.3000 
    131 H131        0.9456   -9.0168  -49.0328 H         1 UNK         0.0600 
    132 H132        2.4868  -10.8126  -49.3355 H         1 UNK         0.0800 
    133 H133        1.7263  -11.0643  -47.7921 H         1 UNK         0.0800 
    134 H134        1.9439  -13.5374  -47.2984 H         1 UNK         0.0800 
    135 H135        3.2187  -13.4297  -48.4930 H         1 UNK         0.0800 
    136 H136        3.4810  -15.2277  -50.2179 H         1 UNK         0.1150 
    137 H137        1.6485  -19.0102  -49.3594 H         1 UNK         0.1150 
    138 H138        0.5599  -15.5335  -47.1009 H         1 UNK         0.1150 
    139 H139       -0.6898  -17.5667  -46.8240 H         1 UNK         0.0800 
    140 H140       -0.4957  -18.8926  -47.9483 H         1 UNK         0.0800 
    141 H141       -0.9541  -18.7507  -44.6817 H         1 UNK         0.0800 
    142 H142        0.0895  -19.9636  -43.9954 H         1 UNK         0.0800 
    143 H143       -1.8943  -20.2877  -46.2999 H         1 UNK         0.0600 
    144 H144        0.3242  -22.0346  -45.7283 H         1 UNK         0.3000 
    145 H145       -1.0417  -24.8954  -47.3873 H         1 UNK         0.0600 
    146 H146        1.1045  -22.9334  -48.3627 H         1 UNK         0.0600 
    147 H147        0.9598  -24.6284  -48.8326 H         1 UNK         0.0600 
    148 H148       -0.2881  -23.4817  -49.2890 H         1 UNK         0.0600 
    149 H149        1.5561  -24.3354  -46.3477 H         1 UNK         0.3000 
    150 H150        0.9341  -24.9532  -42.9272 H         1 UNK         0.0600 
    151 H151        1.1009  -27.2845  -43.8148 H         1 UNK         0.0600 
    152 H152        2.6488  -26.7267  -43.2010 H         1 UNK         0.0600 
    153 H153        2.3563  -26.7807  -44.9401 H         1 UNK         0.0600 
    154 H154        3.3508  -24.5723  -44.3733 H         1 UNK         0.3000 
    155 H155        4.4667  -22.5177  -44.0522 H         1 UNK         0.0600 
    156 H156        3.7970  -22.9545  -46.4035 H         1 UNK         0.0600 
    157 H157        4.5225  -21.3614  -46.2873 H         1 UNK         0.0600 
    158 H158        2.7736  -21.5250  -46.4187 H         1 UNK         0.0600 
    159 H159        3.1784  -19.9524  -44.5529 H         1 UNK         0.3000 
    160 H160        2.7078  -18.6373  -42.0128 H         1 UNK         0.0600 
    161 H161        4.5491  -17.3328  -40.9349 H         1 UNK         0.0600 
    162 H162        5.7076  -18.5798  -41.3956 H         1 UNK         0.0600 
    163 H163        4.4157  -18.9473  -40.2595 H         1 UNK         0.0600 
    164 H164        3.2095  -17.2335  -43.6249 H         1 UNK         0.3000 
    165 H165        6.0077  -16.3847  -45.5093 H         1 UNK         0.0600 
    166 H166        3.5892  -17.8269  -46.7153 H         1 UNK         0.0600 
    167 H167        4.6666  -16.7164  -47.5597 H         1 UNK         0.0600 
    168 H168        5.2703  -18.2620  -46.9865 H         1 UNK         0.0600 
    169 H169        3.1912  -15.6846  -45.5959 H         1 UNK         0.3000 
    170 H170        3.2329  -13.4613  -42.8856 H         1 UNK         0.0600 
    171 H171        3.4378  -12.5840  -45.8147 H         1 UNK         0.0600 
    172 H172        2.6156  -11.6820  -44.5409 H         1 UNK         0.0600 
    173 H173        4.3519  -11.9354  -44.4641 H         1 UNK         0.0600 
    174 H174        1.2893  -13.7173  -44.9087 H         1 UNK         0.3000 
    175 H175       -0.2578  -15.9522  -44.9053 H         1 UNK         0.0600 
    176 H176       -0.9428  -16.0785  -41.9239 H         1 UNK         0.0600 
    177 H177       -1.8942  -16.7572  -43.2444 H         1 UNK         0.0600 
    178 H178       -0.3124  -17.4191  -42.8649 H         1 UNK         0.0600 
    179 H179       -1.6614  -14.1491  -43.1416 H         1 UNK         0.3000 
    180 H180       -2.9058  -12.4721  -44.2216 H         1 UNK         0.0600 
    181 H181       -0.3503  -10.7688  -44.0660 H         1 UNK         0.0600 
    182 H182       -1.0952  -11.6142  -42.7143 H         1 UNK         0.0600 
    183 H183       -1.9416  -10.2819  -43.4838 H         1 UNK         0.0600 
    184 H184       -1.6471  -10.6267  -46.1198 H         1 UNK         0.3000 
    185 H185       -3.6805  -11.5849  -48.8807 H         1 UNK         0.0600 
    186 H186       -3.9815   -9.1280  -48.8856 H         1 UNK         0.0600 
    187 H187       -4.8947   -9.8670  -47.5789 H         1 UNK         0.0600 
    188 H188       -3.3943   -9.0235  -47.2273 H         1 UNK         0.0600 
    189 H189       -1.6786  -11.2139  -49.6662 H         1 UNK         0.3000 
    190 H190       -0.9445  -22.3789  -43.5638 H         1 UNK         0.3000 
    191 H191       -3.1614  -21.8477  -41.8652 H         1 UNK         0.0600 
    192 H192       -1.4282  -24.3686  -42.0797 H         1 UNK         0.0600 
    193 H193       -1.0532  -22.9462  -41.1084 H         1 UNK         0.0600 
    194 H194       -2.4533  -23.9346  -40.7196 H         1 UNK         0.0600 
    195 H195       -2.7574  -24.0800  -44.5775 H         1 UNK         0.3000 
    196 H196       -5.3892  -25.3020  -44.3447 H         1 UNK         0.0600 
    197 H197       -3.4073  -26.5214  -45.2540 H         1 UNK         0.0600 
    198 H198       -3.3097  -25.3796  -46.5908 H         1 UNK         0.0600 
    199 H199       -4.7038  -26.4428  -46.4331 H         1 UNK         0.0600 
    200 H200       -4.8019  -22.1847  -44.9920 H         1 UNK         0.3000 
    201 H201       -5.8545  -20.5080  -45.9578 H         1 UNK         0.0600 
    202 H202       -8.2522  -20.6996  -46.5051 H         1 UNK         0.0600 
    203 H203       -7.9101  -21.5535  -45.0086 H         1 UNK         0.0600 
    204 H204       -8.1607  -22.4535  -46.5036 H         1 UNK         0.0600 
    205 H205       -3.9215  -21.3365  -47.4325 H         1 UNK         0.3000 
    206 H206       -2.9092  -21.2278  -49.3866 H         1 UNK         0.0600 
    207 H207       -5.4890  -20.1510  -50.6414 H         1 UNK         0.0600 
    208 H208       -3.8583  -20.0246  -51.2879 H         1 UNK         0.0600 
    209 H209       -4.2820  -19.1630  -49.8204 H         1 UNK         0.0600 
    210 H210       -3.8027  -23.5745  -48.5060 H         1 UNK         0.3000 
    211 H211       -4.2604  -25.7147  -48.8917 H         1 UNK         0.0600 
    212 H212       -2.3087  -25.5394  -50.4266 H         1 UNK         0.0600 
    213 H213       -3.4645  -26.7342  -50.9949 H         1 UNK         0.0600 
    214 H214       -3.3845  -25.1615  -51.7720 H         1 UNK         0.0600 
    215 H215       -6.4810  -24.5826  -48.5170 H         1 UNK         0.3000 
    216 H216       -8.6569  -24.5027  -48.7372 H         1 UNK         0.0600 
    217 H217       -9.8417  -26.4184  -49.7465 H         1 UNK         0.0600 
    218 H218       -8.3932  -26.9161  -50.6088 H         1 UNK         0.0600 
    219 H219       -8.4440  -26.9867  -48.8478 H         1 UNK         0.0600 
    220 H220       -7.5491  -22.5502  -50.0565 H         1 UNK         0.3000 
    221 H221       -7.7632  -20.9400  -51.5160 H         1 UNK         0.0600 
    222 H222      -10.5390  -22.0743  -52.1349 H         1 UNK         0.0600 
    223 H223      -10.1469  -21.0364  -50.7641 H         1 UNK         0.0600 
    224 H224       -9.9986  -20.4230  -52.4015 H         1 UNK         0.0600 
    225 H225       -6.4112  -23.2943  -52.4933 H         1 UNK         0.3000 
    226 H226       -6.9859  -23.5030  -55.3620 H         1 UNK         0.0600 
    227 H227       -6.1785  -25.4748  -54.0903 H         1 UNK         0.0600 
    228 H228       -5.0124  -25.0257  -55.3236 H         1 UNK         0.0600 
    229 H229       -4.7082  -24.6095  -53.6416 H         1 UNK         0.0600 
    230 H230       -5.2807  -21.3626  -53.3515 H         1 UNK         0.3000 
    231 H231       -3.9443  -19.6006  -53.6198 H         1 UNK         0.0600 
    232 H232       -3.6883  -18.4563  -55.7719 H         1 UNK         0.0600 
    233 H233       -5.3633  -18.9442  -55.5666 H         1 UNK         0.0600 
    234 H234       -4.3049  -19.8445  -56.6512 H         1 UNK         0.0600 
    235 H235       -2.7746  -21.7270  -52.8765 H         1 UNK         0.3000 
    236 H236       -0.8943  -23.1062  -54.2475 H         1 UNK         0.0600 
    237 H237       -1.6316  -23.5969  -51.9373 H         1 UNK         0.0600 
    238 H238        0.1211  -23.5416  -51.9929 H         1 UNK         0.0600 
    239 H239       -0.7778  -22.1815  -51.3275 H         1 UNK         0.0600 
    240 H240       -0.4258  -19.7943  -53.1528 H         1 UNK         0.3000 
    241 H241        2.4429  -19.7763  -53.5745 H         1 UNK         0.0600 
    242 H242        0.7775  -19.0221  -57.1782 H         1 UNK         0.3800 
    243 H243       -0.1733  -19.7224  -55.8921 H         1 UNK         0.3800 
    244 H244        0.7588  -17.2508  -53.3944 H         1 UNK         0.0800 
    245 H245        0.9966  -18.2296  -51.9823 H         1 UNK         0.0800 
    246 H246        4.5408  -17.6193  -50.8156 H         1 UNK         0.0800 
    247 H247        3.3879  -18.9183  -50.9921 H         1 UNK         0.0800 
@<TRIPOS>BOND
     1    1    2 1    
     2    1  127 1    
     3    1  128 1    
     4    1  129 1    
     5    2    3 2    
     6    2    4 am   BACKBONE|DICT|INTERRES
     7    4    5 1    
     8    4  130 1    
     9    5    6 1    
    10    5   65 1    
    11    5  131 1    
    12    6    7 1    
    13    6  132 1    
    14    6  133 1    
    15    7    8 1    
    16    8    9 1    
    17    8  134 1    
    18    8  135 1    
    19    9   10 ar   
    20    9   14 ar   
    21   10   11 ar   
    22   10  136 1    
    23   11   12 ar   
    24   11  126 1    
    25   12   13 ar   
    26   12  137 1    
    27   13   14 ar   
    28   13   15 1    
    29   14  138 1    
    30   15   16 1    
    31   15  139 1    
    32   15  140 1    
    33   16   17 1    
    34   17   18 1    
    35   17  141 1    
    36   17  142 1    
    37   18   19 1    
    38   18   67 1    
    39   18  143 1    
    40   19   20 am   BACKBONE|DICT|INTERRES
    41   19  144 1    
    42   20   21 2    
    43   20   22 1    
    44   22   23 1    
    45   22   24 1    
    46   22  145 1    
    47   23  146 1    
    48   23  147 1    
    49   23  148 1    
    50   24   25 am   BACKBONE|DICT|INTERRES
    51   24  149 1    
    52   25   26 2    
    53   25   27 1    
    54   27   28 1    
    55   27   29 1    
    56   27  150 1    
    57   28  151 1    
    58   28  152 1    
    59   28  153 1    
    60   29   30 am   BACKBONE|DICT|INTERRES
    61   29  154 1    
    62   30   31 2    
    63   30   32 1    
    64   32   33 1    
    65   32   34 1    
    66   32  155 1    
    67   33  156 1    
    68   33  157 1    
    69   33  158 1    
    70   34   35 am   BACKBONE|DICT|INTERRES
    71   34  159 1    
    72   35   36 2    
    73   35   37 1    
    74   37   38 1    
    75   37   39 1    
    76   37  160 1    
    77   38  161 1    
    78   38  162 1    
    79   38  163 1    
    80   39   40 am   BACKBONE|DICT|INTERRES
    81   39  164 1    
    82   40   41 2    
    83   40   42 1    
    84   42   43 1    
    85   42   44 1    
    86   42  165 1    
    87   43  166 1    
    88   43  167 1    
    89   43  168 1    
    90   44   45 am   BACKBONE|DICT|INTERRES
    91   44  169 1    
    92   45   46 2    
    93   45   47 1    
    94   47   48 1    
    95   47   49 1    
    96   47  170 1    
    97   48  171 1    
    98   48  172 1    
    99   48  173 1    
   100   49   50 am   BACKBONE|DICT|INTERRES
   101   49  174 1    
   102   50   51 2    
   103   50   52 1    
   104   52   53 1    
   105   52   54 1    
   106   52  175 1    
   107   53  176 1    
   108   53  177 1    
   109   53  178 1    
   110   54   55 am   BACKBONE|DICT|INTERRES
   111   54  179 1    
   112   55   56 2    
   113   55   57 1    
   114   57   58 1    
   115   57   59 1    
   116   57  180 1    
   117   58  181 1    
   118   58  182 1    
   119   58  183 1    
   120   59   60 am   BACKBONE|DICT|INTERRES
   121   59  184 1    
   122   60   61 2    
   123   60   62 1    
   124   62   63 1    
   125   62   64 1    
   126   62  185 1    
   127   63  186 1    
   128   63  187 1    
   129   63  188 1    
   130   64   65 am   BACKBONE|DICT|INTERRES
   131   64  189 1    
   132   65   66 2    
   133   67   68 2    
   134   67   69 am   BACKBONE|DICT|INTERRES
   135   69   70 1    
   136   69  190 1    
   137   70   71 1    
   138   70   72 1    
   139   70  191 1    
   140   71  192 1    
   141   71  193 1    
   142   71  194 1    
   143   72   73 2    
   144   72   74 am   BACKBONE|DICT|INTERRES
   145   74   75 1    
   146   74  195 1    
   147   75   76 1    
   148   75   77 1    
   149   75  196 1    
   150   76  197 1    
   151   76  198 1    
   152   76  199 1    
   153   77   78 2    
   154   77   79 am   BACKBONE|DICT|INTERRES
   155   79   80 1    
   156   79  200 1    
   157   80   81 1    
   158   80   82 1    
   159   80  201 1    
   160   81  202 1    
   161   81  203 1    
   162   81  204 1    
   163   82   83 2    
   164   82   84 am   BACKBONE|DICT|INTERRES
   165   84   85 1    
   166   84  205 1    
   167   85   86 1    
   168   85   87 1    
   169   85  206 1    
   170   86  207 1    
   171   86  208 1    
   172   86  209 1    
   173   87   88 2    
   174   87   89 am   BACKBONE|DICT|INTERRES
   175   89   90 1    
   176   89  210 1    
   177   90   91 1    
   178   90   92 1    
   179   90  211 1    
   180   91  212 1    
   181   91  213 1    
   182   91  214 1    
   183   92   93 2    
   184   92   94 am   BACKBONE|DICT|INTERRES
   185   94   95 1    
   186   94  215 1    
   187   95   96 1    
   188   95   97 1    
   189   95  216 1    
   190   96  217 1    
   191   96  218 1    
   192   96  219 1    
   193   97   98 2    
   194   97   99 am   BACKBONE|DICT|INTERRES
   195   99  100 1    
   196   99  220 1    
   197  100  101 1    
   198  100  102 1    
   199  100  221 1    
   200  101  222 1    
   201  101  223 1    
   202  101  224 1    
   203  102  103 2    
   204  102  104 am   BACKBONE|DICT|INTERRES
   205  104  105 1    
   206  104  225 1    
   207  105  106 1    
   208  105  107 1    
   209  105  226 1    
   210  106  227 1    
   211  106  228 1    
   212  106  229 1    
   213  107  108 2    
   214  107  109 am   BACKBONE|DICT|INTERRES
   215  109  110 1    
   216  109  230 1    
   217  110  111 1    
   218  110  112 1    
   219  110  231 1    
   220  111  232 1    
   221  111  233 1    
   222  111  234 1    
   223  112  113 2    
   224  112  114 am   BACKBONE|DICT|INTERRES
   225  114  115 1    
   226  114  235 1    
   227  115  116 1    
   228  115  117 1    
   229  115  236 1    
   230  116  237 1    
   231  116  238 1    
   232  116  239 1    
   233  117  118 2    
   234  117  119 am   BACKBONE|DICT|INTERRES
   235  119  120 1    
   236  119  240 1    
   237  120  121 1    
   238  120  124 1    
   239  120  241 1    
   240  121  122 am   BACKBONE|DICT|INTERRES
   241  121  123 2    
   242  122  242 1    
   243  122  243 1    
   244  124  125 1    
   245  124  244 1    
   246  124  245 1    
   247  125  126 1    
   248  126  246 1    
   249  126  247 1    
@<TRIPOS>SUBSTRUCTURE
     1 UNK         1 GROUP             0       ****    0 ROOT    
