@<TRIPOS>MOLECULE
3R540
247   249    1
SMALL
USER_CHARGES


@<TRIPOS>ATOM
      1 CA          2.0143   -8.3710  -51.3803 C.3       0 UNK        -0.1800 
      2 C           2.0406   -9.7216  -50.6783 C.2       0 UNK         0.5000 
      3 O           2.8765  -10.5648  -51.0049 O.2       0 UNK        -0.5000 
      4 N           1.1254   -9.9299  -49.7245 N.am      1 UNK        -0.5000 
      5 CA          1.0160  -11.1494  -48.9172 C.3       1 UNK         0.1400 
      6 C6         -0.3379  -11.2287  -48.1662 C.3       23 UNK        -0.0398 
      7 S7         -1.7744  -11.2566  -49.2898 S.3       23 UNK        -0.2404 
      8 C8         -2.0910  -13.0453  -49.4278 C.3       23 UNK        -0.0205 
      9 C9         -0.9831  -13.7574  -50.1895 C.ar      23 UNK        -0.0193 
     10 C10        -0.8732  -13.5930  -51.5723 C.ar      23 UNK        -0.1150 
     11 C11         0.1350  -14.2450  -52.2864 C.ar      23 UNK        -0.0193 
     12 C12         1.0524  -15.0475  -51.6050 C.ar      23 UNK        -0.1150 
     13 C13         0.9354  -15.2463  -50.2267 C.ar      23 UNK        -0.0193 
     14 C14        -0.0801  -14.5906  -49.5218 C.ar      23 UNK        -0.1150 
     15 C15         1.8677  -16.2192  -49.5144 C.3       23 UNK        -0.0205 
     16 S16         1.7410  -17.9199  -50.1720 S.3       23 UNK        -0.2404 
     17 C17        -0.0664  -18.1368  -50.3082 C.3       23 UNK        -0.0398 
     18 CA         -0.5231  -19.6076  -50.1660 C.3       11 UNK         0.1400 
     19 N          -0.2580  -20.1288  -48.8208 N.am      11 UNK        -0.5000 
     20 C           0.2778  -21.3251  -48.5477 C.2       10 UNK         0.5000 
     21 O           0.7396  -22.0744  -49.4073 O.2       10 UNK        -0.5000 
     22 CA          0.3073  -21.7862  -47.0740 C.3       10 UNK         0.1400 
     23 CB          1.7515  -21.9420  -46.5717 C.3       10 UNK        -0.1800 
     24 N          -0.4322  -20.9214  -46.1509 N.am      10 UNK        -0.5000 
     25 C          -1.7665  -20.8116  -46.0944 C.2       9 UNK         0.5000 
     26 O          -2.5342  -21.4596  -46.8016 O.2       9 UNK        -0.5000 
     27 CA         -2.3429  -19.7618  -45.1276 C.3       9 UNK         0.1400 
     28 CB         -2.5534  -20.3719  -43.7340 C.3       9 UNK        -0.1800 
     29 N          -1.5148  -18.5578  -45.0246 N.am      9 UNK        -0.5000 
     30 C          -1.2469  -17.7264  -46.0429 C.2       8 UNK         0.5000 
     31 O          -1.7028  -17.8688  -47.1775 O.2       8 UNK        -0.5000 
     32 CA         -0.2513  -16.5846  -45.7660 C.3       8 UNK         0.1400 
     33 CB         -0.9202  -15.4163  -45.0283 C.3       8 UNK        -0.1800 
     34 N           0.9214  -17.0389  -45.0199 N.am      8 UNK        -0.5000 
     35 C           1.8187  -17.9180  -45.4891 C.2       7 UNK         0.5000 
     36 O           1.7923  -18.3784  -46.6282 O.2       7 UNK        -0.5000 
     37 CA          2.9000  -18.3998  -44.5080 C.3       7 UNK         0.1400 
     38 CB          4.0823  -17.4226  -44.4653 C.3       7 UNK        -0.1800 
     39 N           2.3665  -18.5923  -43.1600 N.am      7 UNK        -0.5000 
     40 C           1.5310  -19.5832  -42.8178 C.2       6 UNK         0.5000 
     41 O           1.1535  -20.4580  -43.5961 O.2       6 UNK        -0.5000 
     42 CA          0.9979  -19.5694  -41.3738 C.3       6 UNK         0.1400 
     43 CB          2.0039  -20.2280  -40.4181 C.3       6 UNK        -0.1800 
     44 N           0.6923  -18.2182  -40.9017 N.am      6 UNK        -0.5000 
     45 C          -0.2868  -17.4476  -41.3963 C.2       5 UNK         0.5000 
     46 O          -1.0598  -17.8092  -42.2820 O.2       5 UNK        -0.5000 
     47 CA         -0.3859  -16.0148  -40.8428 C.3       5 UNK         0.1400 
     48 CB         -1.2468  -15.9848  -39.5714 C.3       5 UNK        -0.1800 
     49 N           0.9202  -15.4117  -40.5623 N.am      5 UNK        -0.5000 
     50 C           1.8560  -15.1658  -41.4880 C.2       4 UNK         0.5000 
     51 O           1.7376  -15.4623  -42.6792 O.2       4 UNK        -0.5000 
     52 CA          3.1628  -14.5293  -40.9921 C.3       4 UNK         0.1400 
     53 CB          4.2811  -15.5797  -40.9092 C.3       4 UNK        -0.1800 
     54 N           3.5737  -13.4537  -41.8904 N.am      4 UNK        -0.5000 
     55 C           3.0870  -12.2071  -41.8400 C.2       3 UNK         0.5000 
     56 O           2.2873  -11.8191  -40.9869 O.2       3 UNK        -0.5000 
     57 CA          3.5811  -11.2223  -42.9155 C.3       3 UNK         0.1400 
     58 CB          4.8496  -10.4980  -42.4383 C.3       3 UNK        -0.1800 
     59 N           3.8480  -11.8551  -44.2095 N.am      3 UNK        -0.5000 
     60 C           2.8954  -12.2851  -45.0463 C.2       2 UNK         0.5000 
     61 O           1.6890  -12.2530  -44.7908 O.2       2 UNK        -0.5000 
     62 CA          3.3765  -12.8425  -46.4012 C.3       2 UNK         0.1400 
     63 CB          3.5380  -14.3675  -46.3283 C.3       2 UNK        -0.1800 
     64 N           2.4451  -12.5171  -47.4813 N.am      2 UNK        -0.5000 
     65 C           2.1776  -11.2764  -47.9104 C.2       1 UNK         0.5000 
     66 O           2.7718  -10.2696  -47.5132 O.2       1 UNK        -0.5000 
     67 C          -2.0229  -19.7251  -50.5220 C.2       11 UNK         0.5000 
     68 O          -2.4130  -19.3154  -51.6198 O.2       11 UNK        -0.5000 
     69 N          -2.8439  -20.2509  -49.6051 N.am      12 UNK        -0.5000 
     70 CA         -4.2917  -20.3693  -49.7180 C.3       12 UNK         0.1400 
     71 CB         -4.9266  -19.4859  -48.6297 C.3       12 UNK        -0.1800 
     72 C          -4.7183  -21.8361  -49.5498 C.2       12 UNK         0.5000 
     73 O          -3.9018  -22.6999  -49.2272 O.2       12 UNK        -0.5000 
     74 N          -6.0190  -22.0925  -49.7380 N.am      13 UNK        -0.5000 
     75 CA         -6.6435  -23.3979  -49.4993 C.3       13 UNK         0.1400 
     76 CB         -8.0330  -23.4159  -50.1540 C.3       13 UNK        -0.1800 
     77 C          -6.7419  -23.7691  -48.0032 C.2       13 UNK         0.5000 
     78 O          -7.0381  -24.9220  -47.6882 O.2       13 UNK        -0.5000 
     79 N          -6.4842  -22.7982  -47.1135 N.am      14 UNK        -0.5000 
     80 CA         -6.4718  -22.9322  -45.6558 C.3       14 UNK         0.1400 
     81 CB         -6.1405  -21.5663  -45.0356 C.3       14 UNK        -0.1800 
     82 C          -5.4997  -24.0079  -45.1357 C.2       14 UNK         0.5000 
     83 O          -5.8118  -24.6771  -44.1503 O.2       14 UNK        -0.5000 
     84 N          -4.3702  -24.2015  -45.8302 N.am      15 UNK        -0.5000 
     85 CA         -3.3810  -25.2476  -45.5614 C.3       15 UNK         0.1400 
     86 CB         -2.0105  -24.7765  -46.0763 C.3       15 UNK        -0.1800 
     87 C          -3.8023  -26.6275  -46.1215 C.2       15 UNK         0.5000 
     88 O          -3.0018  -27.2975  -46.7746 O.2       15 UNK        -0.5000 
     89 N          -5.0489  -27.0294  -45.8312 N.am      16 UNK        -0.5000 
     90 CA         -5.6880  -28.3086  -46.1619 C.3       16 UNK         0.1400 
     91 CB         -5.0202  -29.4610  -45.3815 C.3       16 UNK        -0.1800 
     92 C          -5.7934  -28.5837  -47.6785 C.2       16 UNK         0.5000 
     93 O          -5.5387  -29.7073  -48.1185 O.2       16 UNK        -0.5000 
     94 N          -6.1982  -27.5530  -48.4368 N.am      17 UNK        -0.5000 
     95 CA         -6.3725  -27.5154  -49.8952 C.3       17 UNK         0.1400 
     96 CB         -7.4420  -28.5329  -50.3472 C.3       17 UNK        -0.1800 
     97 C          -5.0524  -27.6676  -50.6831 C.2       17 UNK         0.5000 
     98 O          -3.9808  -27.8104  -50.0926 O.2       17 UNK        -0.5000 
     99 N          -5.1483  -27.5752  -52.0190 N.am      18 UNK        -0.5000 
    100 CA        -4.0926  -27.7141  -53.0407 C.3       18 UNK         0.1400 
    101 CB        -3.4669  -29.1212  -52.9981 C.3       18 UNK        -0.1800 
    102 C         -2.9948  -26.6260  -53.0320 C.2       18 UNK         0.5000 
    103 O         -2.4662  -26.2937  -54.0926 O.2       18 UNK        -0.5000 
    104 N         -2.6904  -26.0687  -51.8565 N.am      19 UNK        -0.5000 
    105 CA        -1.6873  -25.0345  -51.5972 C.3       19 UNK         0.1400 
    106 CB        -1.3639  -25.0635  -50.0947 C.3       19 UNK        -0.1800 
    107 C         -2.0989  -23.6155  -52.0478 C.2       19 UNK         0.5000 
    108 O         -1.3450  -22.6704  -51.8163 O.2       19 UNK        -0.5000 
    109 N         -3.2760  -23.4768  -52.6740 N.am      20 UNK        -0.5000 
    110 CA        -3.8721  -22.2339  -53.1651 C.3       20 UNK         0.1400 
    111 CB        -5.3593  -22.4910  -53.4645 C.3       20 UNK        -0.1800 
    112 C         -3.1185  -21.6159  -54.3632 C.2       20 UNK         0.5000 
    113 O         -3.6591  -21.5363  -55.4677 O.2       20 UNK        -0.5000 
    114 N         -1.8759  -21.1886  -54.1151 N.am      21 UNK        -0.5000 
    115 CA        -1.0114  -20.4651  -55.0453 C.3       21 UNK         0.1400 
    116 CB         0.3970  -20.3602  -54.4394 C.3       21 UNK        -0.1800 
    117 C         -1.5571  -19.0672  -55.3885 C.2       21 UNK         0.5000 
    118 O         -1.4805  -18.6562  -56.5474 O.2       21 UNK        -0.5000 
    119 N         -2.1138  -18.3850  -54.3806 N.am      22 UNK        -0.5000 
    120 CA        -2.7934  -17.0867  -54.5062 C.3       22 UNK         0.1400 
    121 C         -4.2301  -17.1212  -53.9169 C.2       22 UNK         0.5000 
    122 N         -4.5274  -17.9592  -52.9297 N.am      22 UNK        -0.7600 
    123 O         -5.0966  -16.3798  -54.3719 O.2       22 UNK        -0.5000 
    124 C124       -1.9852  -15.9337  -53.8606 C.3       23 UNK        -0.0398 
    125 S125       -0.3372  -15.6815  -54.6087 S.3       23 UNK        -0.2404 
    126 C126        0.1946  -14.1344  -53.8017 C.3       23 UNK        -0.0205 
    127 H127        1.8577   -8.5072  -52.4504 H         1 UNK         0.0600 
    128 H128        2.9636   -7.8549  -51.2363 H         1 UNK         0.0600 
    129 H129        1.2182   -7.7310  -50.9992 H         1 UNK         0.0600 
    130 H130        0.4716   -9.1957  -49.4952 H         1 UNK         0.3000 
    131 H131        1.0875  -11.9960  -49.6017 H         1 UNK         0.0600 
    132 H132       -0.3813  -12.1117  -47.5257 H         1 UNK         0.0800 
    133 H133       -0.4502  -10.3733  -47.4974 H         1 UNK         0.0800 
    134 H134       -3.0367  -13.1957  -49.9505 H         1 UNK         0.0800 
    135 H135       -2.2228  -13.4744  -48.4333 H         1 UNK         0.0800 
    136 H136       -1.5855  -12.9681  -52.0927 H         1 UNK         0.1150 
    137 H137        1.8215  -15.5681  -52.1584 H         1 UNK         0.1150 
    138 H138       -0.1826  -14.7395  -48.4575 H         1 UNK         0.1150 
    139 H139        2.8967  -15.8739  -49.6200 H         1 UNK         0.0800 
    140 H140        1.6620  -16.2446  -48.4447 H         1 UNK         0.0800 
    141 H141       -0.3566  -17.7310  -51.2794 H         1 UNK         0.0800 
    142 H142       -0.5625  -17.5186  -49.5588 H         1 UNK         0.0800 
    143 H143        0.0126  -20.1991  -50.9110 H         1 UNK         0.0600 
    144 H144       -0.5791  -19.5487  -48.0553 H         1 UNK         0.3000 
    145 H145       -0.1573  -22.7727  -47.0522 H         1 UNK         0.0600 
    146 H146        1.7759  -22.3391  -45.5568 H         1 UNK         0.0600 
    147 H147        2.3137  -22.6323  -47.2017 H         1 UNK         0.0600 
    148 H148        2.2833  -20.9913  -46.5743 H         1 UNK         0.0600 
    149 H149        0.1250  -20.3822  -45.4986 H         1 UNK         0.3000 
    150 H150       -3.3168  -19.4578  -45.5157 H         1 UNK         0.0600 
    151 H151       -3.1665  -21.2724  -43.7877 H         1 UNK         0.0600 
    152 H152       -3.0606  -19.6717  -43.0702 H         1 UNK         0.0600 
    153 H153       -1.6066  -20.6478  -43.2693 H         1 UNK         0.0600 
    154 H154       -1.1436  -18.3417  -44.1029 H         1 UNK         0.3000 
    155 H155        0.0966  -16.2142  -46.7294 H         1 UNK         0.0600 
    156 H156       -1.2955  -15.7176  -44.0507 H         1 UNK         0.0600 
    157 H157       -1.7641  -15.0274  -45.5993 H         1 UNK         0.0600 
    158 H158       -0.2203  -14.5933  -44.8785 H         1 UNK         0.0600 
    159 H159        1.0537  -16.6544  -44.0892 H         1 UNK         0.3000 
    160 H160        3.2723  -19.3613  -44.8683 H         1 UNK         0.0600 
    161 H161        3.7776  -16.4400  -44.1075 H         1 UNK         0.0600 
    162 H162        4.5138  -17.2914  -45.4584 H         1 UNK         0.0600 
    163 H163        4.8744  -17.7889  -43.8122 H         1 UNK         0.0600 
    164 H164        2.5846  -17.8820  -42.4778 H         1 UNK         0.3000 
    165 H165        0.0751  -20.1532  -41.3538 H         1 UNK         0.0600 
    166 H166        1.6027  -20.2918  -39.4065 H         1 UNK         0.0600 
    167 H167        2.2377  -21.2442  -40.7385 H         1 UNK         0.0600 
    168 H168        2.9422  -19.6736  -40.3734 H         1 UNK         0.0600 
    169 H169        1.2803  -17.8423  -40.1728 H         1 UNK         0.3000 
    170 H170       -0.8781  -15.4026  -41.6012 H         1 UNK         0.0600 
    171 H171       -2.2333  -16.4114  -39.7584 H         1 UNK         0.0600 
    172 H172       -0.7908  -16.5548  -38.7610 H         1 UNK         0.0600 
    173 H173       -1.3976  -14.9635  -39.2211 H         1 UNK         0.0600 
    174 H174        1.0951  -15.1449  -39.6041 H         1 UNK         0.3000 
    175 H175        3.0065  -14.1223  -39.9907 H         1 UNK         0.0600 
    176 H176        4.5164  -16.0025  -41.8853 H         1 UNK         0.0600 
    177 H177        5.1963  -15.1455  -40.5063 H         1 UNK         0.0600 
    178 H178        3.9977  -16.4036  -40.2530 H         1 UNK         0.0600 
    179 H179        4.1845  -13.7044  -42.6530 H         1 UNK         0.3000 
    180 H180        2.7993  -10.4728  -43.0577 H         1 UNK         0.0600 
    181 H181        5.6807  -11.1901  -42.2972 H         1 UNK         0.0600 
    182 H182        4.6769   -9.9945  -41.4861 H         1 UNK         0.0600 
    183 H183        5.1626   -9.7374  -43.1538 H         1 UNK         0.0600 
    184 H184        4.8162  -11.9141  -44.4909 H         1 UNK         0.3000 
    185 H185        4.3439  -12.3987  -46.6458 H         1 UNK         0.0600 
    186 H186        4.2893  -14.6375  -45.5862 H         1 UNK         0.0600 
    187 H187        2.6048  -14.8584  -46.0488 H         1 UNK         0.0600 
    188 H188        3.8643  -14.7808  -47.2827 H         1 UNK         0.0600 
    189 H189        1.9029  -13.2860  -47.8432 H         1 UNK         0.3000 
    190 H190       -2.4509  -20.6713  -48.7699 H         1 UNK         0.3000 
    191 H191       -4.6376  -20.0273  -50.6944 H         1 UNK         0.0600 
    192 H192       -4.6706  -19.8339  -47.6285 H         1 UNK         0.0600 
    193 H193       -6.0140  -19.4719  -48.7075 H         1 UNK         0.0600 
    194 H194       -4.5856  -18.4538  -48.7162 H         1 UNK         0.0600 
    195 H195       -6.6399  -21.3416  -50.0047 H         1 UNK         0.3000 
    196 H196       -6.0292  -24.1610  -49.9817 H         1 UNK         0.0600 
    197 H197       -8.6930  -22.6656  -49.7168 H         1 UNK         0.0600 
    198 H198       -8.5131  -24.3874  -50.0287 H         1 UNK         0.0600 
    199 H199       -7.9694  -23.2242  -51.2251 H         1 UNK         0.0600 
    200 H200       -6.2518  -21.8871  -47.4766 H         1 UNK         0.3000 
    201 H201       -7.4775  -23.2197  -45.3431 H         1 UNK         0.0600 
    202 H202       -6.8854  -20.8178  -45.3063 H         1 UNK         0.0600 
    203 H203       -5.1662  -21.2044  -45.3650 H         1 UNK         0.0600 
    204 H204       -6.1194  -21.6238  -43.9464 H         1 UNK         0.0600 
    205 H205       -4.1929  -23.6168  -46.6372 H         1 UNK         0.3000 
    206 H206       -3.2893  -25.3717  -44.4804 H         1 UNK         0.0600 
    207 H207       -1.6927  -23.8754  -45.5526 H         1 UNK         0.0600 
    208 H208       -1.2396  -25.5300  -45.9115 H         1 UNK         0.0600 
    209 H209       -2.0376  -24.5534  -47.1427 H         1 UNK         0.0600 
    210 H210       -5.6138  -26.3872  -45.2862 H         1 UNK         0.3000 
    211 H211       -6.7155  -28.2300  -45.8040 H         1 UNK         0.0600 
    212 H212       -3.9960  -29.6343  -45.7133 H         1 UNK         0.0600 
    213 H213       -5.5693  -30.3939  -45.5144 H         1 UNK         0.0600 
    214 H214       -4.9956  -29.2512  -44.3122 H         1 UNK         0.0600 
    215 H215       -6.3843  -26.6686  -47.9701 H         1 UNK         0.3000 
    216 H216       -6.7523  -26.5182  -50.1183 H         1 UNK         0.0600 
    217 H217       -7.7337  -28.3693  -51.3849 H         1 UNK         0.0600 
    218 H218       -8.3468  -28.4463  -49.7454 H         1 UNK         0.0600 
    219 H219       -7.0856  -29.5605  -50.2697 H         1 UNK         0.0600 
    220 H220       -6.0686  -27.4108  -52.4026 H         1 UNK         0.3000 
    221 H221       -4.6039  -27.6173  -53.9998 H         1 UNK         0.0600 
    222 H222       -2.9166  -29.2949  -52.0730 H         1 UNK         0.0600 
    223 H223       -4.2299  -29.8948  -53.0849 H         1 UNK         0.0600 
    224 H224       -2.7671  -29.2613  -53.8229 H         1 UNK         0.0600 
    225 H225       -3.1418  -26.4704  -51.0385 H         1 UNK         0.3000 
    226 H226       -0.7801  -25.2920  -52.1469 H         1 UNK         0.0600 
    227 H227       -0.5842  -24.3457  -49.8415 H         1 UNK         0.0600 
    228 H228       -1.0112  -26.0468  -49.7834 H         1 UNK         0.0600 
    229 H229       -2.2427  -24.8202  -49.4972 H         1 UNK         0.0600 
    230 H230       -3.8006  -24.3197  -52.8494 H         1 UNK         0.3000 
    231 H231       -3.8236  -21.5020  -52.3610 H         1 UNK         0.0600 
    232 H232       -5.8580  -21.5744  -53.7824 H         1 UNK         0.0600 
    233 H233       -5.8830  -22.8538  -52.5808 H         1 UNK         0.0600 
    234 H234       -5.4888  -23.2294  -54.2567 H         1 UNK         0.0600 
    235 H235       -1.5012  -21.3798  -53.1897 H         1 UNK         0.3000 
    236 H236       -0.9497  -21.0421  -55.9702 H         1 UNK         0.0600 
    237 H237        0.3912  -19.8051  -53.5002 H         1 UNK         0.0600 
    238 H238        0.8165  -21.3469  -54.2424 H         1 UNK         0.0600 
    239 H239        1.0770  -19.8463  -55.1200 H         1 UNK         0.0600 
    240 H240       -2.1419  -18.8131  -53.4613 H         1 UNK         0.3000 
    241 H241       -2.9185  -16.8464  -55.5637 H         1 UNK         0.0600 
    242 H242       -5.4669  -17.9649  -52.5676 H         1 UNK         0.3800 
    243 H243       -3.8069  -18.5145  -52.4775 H         1 UNK         0.3800 
    244 H244       -1.8563  -16.1273  -52.7942 H         1 UNK         0.0800 
    245 H245       -2.5345  -14.9937  -53.9402 H         1 UNK         0.0800 
    246 H246        1.2149  -13.9021  -54.1097 H         1 UNK         0.0800 
    247 H247       -0.4290  -13.3119  -54.1554 H         1 UNK         0.0800 
@<TRIPOS>BOND
     1    1    2 1    
     2    1  127 1    
     3    1  128 1    
     4    1  129 1    
     5    2    3 2    
     6    2    4 am   BACKBONE|DICT|INTERRES
     7    4    5 1    
     8    4  130 1    
     9    5    6 1    
    10    5   65 1    
    11    5  131 1    
    12    6    7 1    
    13    6  132 1    
    14    6  133 1    
    15    7    8 1    
    16    8    9 1    
    17    8  134 1    
    18    8  135 1    
    19    9   10 ar   
    20    9   14 ar   
    21   10   11 ar   
    22   10  136 1    
    23   11   12 ar   
    24   11  126 1    
    25   12   13 ar   
    26   12  137 1    
    27   13   14 ar   
    28   13   15 1    
    29   14  138 1    
    30   15   16 1    
    31   15  139 1    
    32   15  140 1    
    33   16   17 1    
    34   17   18 1    
    35   17  141 1    
    36   17  142 1    
    37   18   19 1    
    38   18   67 1    
    39   18  143 1    
    40   19   20 am   BACKBONE|DICT|INTERRES
    41   19  144 1    
    42   20   21 2    
    43   20   22 1    
    44   22   23 1    
    45   22   24 1    
    46   22  145 1    
    47   23  146 1    
    48   23  147 1    
    49   23  148 1    
    50   24   25 am   BACKBONE|DICT|INTERRES
    51   24  149 1    
    52   25   26 2    
    53   25   27 1    
    54   27   28 1    
    55   27   29 1    
    56   27  150 1    
    57   28  151 1    
    58   28  152 1    
    59   28  153 1    
    60   29   30 am   BACKBONE|DICT|INTERRES
    61   29  154 1    
    62   30   31 2    
    63   30   32 1    
    64   32   33 1    
    65   32   34 1    
    66   32  155 1    
    67   33  156 1    
    68   33  157 1    
    69   33  158 1    
    70   34   35 am   BACKBONE|DICT|INTERRES
    71   34  159 1    
    72   35   36 2    
    73   35   37 1    
    74   37   38 1    
    75   37   39 1    
    76   37  160 1    
    77   38  161 1    
    78   38  162 1    
    79   38  163 1    
    80   39   40 am   BACKBONE|DICT|INTERRES
    81   39  164 1    
    82   40   41 2    
    83   40   42 1    
    84   42   43 1    
    85   42   44 1    
    86   42  165 1    
    87   43  166 1    
    88   43  167 1    
    89   43  168 1    
    90   44   45 am   BACKBONE|DICT|INTERRES
    91   44  169 1    
    92   45   46 2    
    93   45   47 1    
    94   47   48 1    
    95   47   49 1    
    96   47  170 1    
    97   48  171 1    
    98   48  172 1    
    99   48  173 1    
   100   49   50 am   BACKBONE|DICT|INTERRES
   101   49  174 1    
   102   50   51 2    
   103   50   52 1    
   104   52   53 1    
   105   52   54 1    
   106   52  175 1    
   107   53  176 1    
   108   53  177 1    
   109   53  178 1    
   110   54   55 am   BACKBONE|DICT|INTERRES
   111   54  179 1    
   112   55   56 2    
   113   55   57 1    
   114   57   58 1    
   115   57   59 1    
   116   57  180 1    
   117   58  181 1    
   118   58  182 1    
   119   58  183 1    
   120   59   60 am   BACKBONE|DICT|INTERRES
   121   59  184 1    
   122   60   61 2    
   123   60   62 1    
   124   62   63 1    
   125   62   64 1    
   126   62  185 1    
   127   63  186 1    
   128   63  187 1    
   129   63  188 1    
   130   64   65 am   BACKBONE|DICT|INTERRES
   131   64  189 1    
   132   65   66 2    
   133   67   68 2    
   134   67   69 am   BACKBONE|DICT|INTERRES
   135   69   70 1    
   136   69  190 1    
   137   70   71 1    
   138   70   72 1    
   139   70  191 1    
   140   71  192 1    
   141   71  193 1    
   142   71  194 1    
   143   72   73 2    
   144   72   74 am   BACKBONE|DICT|INTERRES
   145   74   75 1    
   146   74  195 1    
   147   75   76 1    
   148   75   77 1    
   149   75  196 1    
   150   76  197 1    
   151   76  198 1    
   152   76  199 1    
   153   77   78 2    
   154   77   79 am   BACKBONE|DICT|INTERRES
   155   79   80 1    
   156   79  200 1    
   157   80   81 1    
   158   80   82 1    
   159   80  201 1    
   160   81  202 1    
   161   81  203 1    
   162   81  204 1    
   163   82   83 2    
   164   82   84 am   BACKBONE|DICT|INTERRES
   165   84   85 1    
   166   84  205 1    
   167   85   86 1    
   168   85   87 1    
   169   85  206 1    
   170   86  207 1    
   171   86  208 1    
   172   86  209 1    
   173   87   88 2    
   174   87   89 am   BACKBONE|DICT|INTERRES
   175   89   90 1    
   176   89  210 1    
   177   90   91 1    
   178   90   92 1    
   179   90  211 1    
   180   91  212 1    
   181   91  213 1    
   182   91  214 1    
   183   92   93 2    
   184   92   94 am   BACKBONE|DICT|INTERRES
   185   94   95 1    
   186   94  215 1    
   187   95   96 1    
   188   95   97 1    
   189   95  216 1    
   190   96  217 1    
   191   96  218 1    
   192   96  219 1    
   193   97   98 2    
   194   97   99 am   BACKBONE|DICT|INTERRES
   195   99  100 1    
   196   99  220 1    
   197  100  101 1    
   198  100  102 1    
   199  100  221 1    
   200  101  222 1    
   201  101  223 1    
   202  101  224 1    
   203  102  103 2    
   204  102  104 am   BACKBONE|DICT|INTERRES
   205  104  105 1    
   206  104  225 1    
   207  105  106 1    
   208  105  107 1    
   209  105  226 1    
   210  106  227 1    
   211  106  228 1    
   212  106  229 1    
   213  107  108 2    
   214  107  109 am   BACKBONE|DICT|INTERRES
   215  109  110 1    
   216  109  230 1    
   217  110  111 1    
   218  110  112 1    
   219  110  231 1    
   220  111  232 1    
   221  111  233 1    
   222  111  234 1    
   223  112  113 2    
   224  112  114 am   BACKBONE|DICT|INTERRES
   225  114  115 1    
   226  114  235 1    
   227  115  116 1    
   228  115  117 1    
   229  115  236 1    
   230  116  237 1    
   231  116  238 1    
   232  116  239 1    
   233  117  118 2    
   234  117  119 am   BACKBONE|DICT|INTERRES
   235  119  120 1    
   236  119  240 1    
   237  120  121 1    
   238  120  124 1    
   239  120  241 1    
   240  121  122 am   BACKBONE|DICT|INTERRES
   241  121  123 2    
   242  122  242 1    
   243  122  243 1    
   244  124  125 1    
   245  124  244 1    
   246  124  245 1    
   247  125  126 1    
   248  126  246 1    
   249  126  247 1    
@<TRIPOS>SUBSTRUCTURE
     1 UNK         1 GROUP             0       ****    0 ROOT    
