@<TRIPOS>MOLECULE
3R540
247   249    1
SMALL
USER_CHARGES


@<TRIPOS>ATOM
      1 CA          5.6218  -11.4501  -45.9052 C.3       0 UNK        -0.1800 
      2 C           4.2785  -11.6698  -46.5848 C.2       0 UNK         0.5000 
      3 O           3.5081  -10.7208  -46.7335 O.2       0 UNK        -0.5000 
      4 N           3.9901  -12.9171  -46.9848 N.am      1 UNK        -0.5000 
      5 CA          2.7430  -13.3594  -47.6202 C.3       1 UNK         0.1400 
      6 C6          2.6215  -12.8534  -49.0874 C.3       23 UNK        -0.0398 
      7 S7          1.1798  -13.4941  -50.0078 S.3       23 UNK        -0.2404 
      8 C8          1.6408  -15.2319  -50.3107 C.3       23 UNK        -0.0205 
      9 C9          0.4248  -16.0493  -50.7219 C.ar      23 UNK        -0.0193 
     10 C10         0.3510  -16.6470  -51.9846 C.ar      23 UNK        -0.1150 
     11 C11        -0.7823  -17.3785  -52.3582 C.ar      23 UNK        -0.0193 
     12 C12        -1.8496  -17.4969  -51.4620 C.ar      23 UNK        -0.1150 
     13 C13        -1.7888  -16.8988  -50.1992 C.ar      23 UNK        -0.0193 
     14 C14        -0.6413  -16.1953  -49.8296 C.ar      23 UNK        -0.1150 
     15 C15        -2.9800  -16.9532  -49.2537 C.3       23 UNK        -0.0205 
     16 S16        -3.4238  -18.6445  -48.7658 S.3       23 UNK        -0.2404 
     17 C17        -2.0588  -19.1174  -47.6522 C.3       23 UNK        -0.0398 
     18 CA         -1.7710  -20.6413  -47.6050 C.3       11 UNK         0.1400 
     19 N          -0.6780  -20.9450  -46.6766 N.am      11 UNK        -0.5000 
     20 C          -0.1346  -22.1539  -46.4803 C.2       10 UNK         0.5000 
     21 O          -0.4456  -23.1526  -47.1245 O.2       10 UNK        -0.5000 
     22 CA          0.8927  -22.2877  -45.3415 C.3       10 UNK         0.1400 
     23 CB          2.2907  -21.8660  -45.8141 C.3       10 UNK        -0.1800 
     24 N           0.5143  -21.5305  -44.1468 N.am      10 UNK        -0.5000 
     25 C          -0.5677  -21.7926  -43.3984 C.2       9 UNK         0.5000 
     26 O          -1.3289  -22.7373  -43.6079 O.2       9 UNK        -0.5000 
     27 CA         -0.8840  -20.8106  -42.2557 C.3       9 UNK         0.1400 
     28 CB         -0.0321  -21.1166  -41.0153 C.3       9 UNK        -0.1800 
     29 N          -0.7033  -19.4136  -42.6528 N.am      9 UNK        -0.5000 
     30 C          -1.4348  -18.7939  -43.5904 C.2       8 UNK         0.5000 
     31 O          -2.3855  -19.3223  -44.1685 O.2       8 UNK        -0.5000 
     32 CA         -0.9938  -17.3714  -43.9919 C.3       8 UNK         0.1400 
     33 CB         -1.5177  -16.3257  -42.9973 C.3       8 UNK        -0.1800 
     34 N           0.4607  -17.2537  -44.1138 N.am      8 UNK        -0.5000 
     35 C           1.1961  -17.9162  -45.0180 C.2       7 UNK         0.5000 
     36 O           0.7104  -18.6224  -45.8991 O.2       7 UNK        -0.5000 
     37 CA          2.7262  -17.8335  -44.8865 C.3       7 UNK         0.1400 
     38 CB          3.2880  -16.6282  -45.6458 C.3       7 UNK        -0.1800 
     39 N           3.1539  -17.7867  -43.4896 N.am      7 UNK        -0.5000 
     40 C           3.1267  -18.8451  -42.6683 C.2       6 UNK         0.5000 
     41 O           2.7659  -19.9689  -43.0172 O.2       6 UNK        -0.5000 
     42 CA          3.5328  -18.5955  -41.2049 C.3       6 UNK         0.1400 
     43 CB          5.0607  -18.6300  -41.0526 C.3       6 UNK        -0.1800 
     44 N           3.0211  -17.3245  -40.6898 N.am      6 UNK        -0.5000 
     45 C           1.7221  -17.0571  -40.4949 C.2       5 UNK         0.5000 
     46 O           0.8206  -17.8682  -40.7030 O.2       5 UNK        -0.5000 
     47 CA          1.3688  -15.6315  -40.0307 C.3       5 UNK         0.1400 
     48 CB          1.4136  -15.5372  -38.4984 C.3       5 UNK        -0.1800 
     49 N           2.2340  -14.5976  -40.6075 N.am      5 UNK        -0.5000 
     50 C           2.3212  -14.3233  -41.9157 C.2       4 UNK         0.5000 
     51 O           1.7045  -14.9437  -42.7825 O.2       4 UNK        -0.5000 
     52 CA          3.2887  -13.2034  -42.3203 C.3       4 UNK         0.1400 
     53 CB          4.4405  -13.7546  -43.1754 C.3       4 UNK        -0.1800 
     54 N           2.5770  -12.1763  -43.0791 N.am      4 UNK        -0.5000 
     55 C           2.3376  -10.9355  -42.6297 C.2       3 UNK         0.5000 
     56 O           2.6654  -10.5511  -41.5059 O.2       3 UNK        -0.5000 
     57 CA          1.6438   -9.9308  -43.5728 C.3       3 UNK         0.1400 
     58 CB          2.6189   -8.8120  -43.9749 C.3       3 UNK        -0.1800 
     59 N           1.1093  -10.5436  -44.7880 N.am      3 UNK        -0.5000 
     60 C          -0.1143  -11.0813  -44.8924 C.2       2 UNK         0.5000 
     61 O          -0.9328  -11.0935  -43.9722 O.2       2 UNK        -0.5000 
     62 CA         -0.4943  -11.7206  -46.2461 C.3       2 UNK         0.1400 
     63 CB         -1.3576  -10.7569  -47.0741 C.3       2 UNK        -0.1800 
     64 N           0.6527  -12.1406  -47.0558 N.am      2 UNK        -0.5000 
     65 C           1.5443  -13.0688  -46.6860 C.2       1 UNK         0.5000 
     66 O           1.4815  -13.6587  -45.6092 O.2       1 UNK        -0.5000 
     67 C          -3.0311  -21.4799  -47.2858 C.2       11 UNK         0.5000 
     68 O          -3.6356  -22.0473  -48.1972 O.2       11 UNK        -0.5000 
     69 N          -3.3886  -21.5688  -45.9991 N.am      12 UNK        -0.5000 
     70 CA         -4.5015  -22.3830  -45.5244 C.3       12 UNK         0.1400 
     71 CB         -4.8277  -22.0107  -44.0686 C.3       12 UNK        -0.1800 
     72 C          -4.2303  -23.8912  -45.6820 C.2       12 UNK         0.5000 
     73 O          -4.9574  -24.5656  -46.4140 O.2       12 UNK        -0.5000 
     74 N          -3.2034  -24.3876  -44.9812 N.am      13 UNK        -0.5000 
     75 CA         -2.9248  -25.8120  -44.8250 C.3       13 UNK         0.1400 
     76 CB         -2.1910  -26.0441  -43.4922 C.3       13 UNK        -0.1800 
     77 C          -2.1476  -26.4038  -46.0111 C.2       13 UNK         0.5000 
     78 O          -2.6997  -27.2177  -46.7510 O.2       13 UNK        -0.5000 
     79 N          -0.8728  -26.0154  -46.1496 N.am      14 UNK        -0.5000 
     80 CA          0.0957  -26.6181  -47.0721 C.3       14 UNK         0.1400 
     81 CB          1.4973  -26.0581  -46.7823 C.3       14 UNK        -0.1800 
     82 C          -0.2648  -26.4492  -48.5588 C.2       14 UNK         0.5000 
     83 O          -0.1187  -27.3963  -49.3323 O.2       14 UNK        -0.5000 
     84 N          -0.7523  -25.2578  -48.9232 N.am      15 UNK        -0.5000 
     85 CA         -1.2315  -24.9287  -50.2659 C.3       15 UNK         0.1400 
     86 CB         -1.1522  -23.4081  -50.4687 C.3       15 UNK        -0.1800 
     87 C          -2.6597  -25.4405  -50.5384 C.2       15 UNK         0.5000 
     88 O          -3.0952  -25.3821  -51.6868 O.2       15 UNK        -0.5000 
     89 N          -3.3544  -25.9283  -49.4979 N.am      16 UNK        -0.5000 
     90 CA         -4.7155  -26.4692  -49.5040 C.3       16 UNK         0.1400 
     91 CB         -4.7680  -27.7968  -50.2881 C.3       16 UNK        -0.1800 
     92 C          -5.7413  -25.4338  -50.0023 C.2       16 UNK         0.5000 
     93 O          -6.2539  -25.5517  -51.1171 O.2       16 UNK        -0.5000 
     94 N          -5.9942  -24.4241  -49.1584 N.am      17 UNK        -0.5000 
     95 CA         -6.8990  -23.2929  -49.3821 C.3       17 UNK         0.1400 
     96 CB         -8.3652  -23.7652  -49.4753 C.3       17 UNK        -0.1800 
     97 C          -6.4622  -22.4273  -50.5806 C.2       17 UNK         0.5000 
     98 O          -7.1769  -22.3207  -51.5803 O.2       17 UNK        -0.5000 
     99 N          -5.2698  -21.8333  -50.4456 N.am      18 UNK        -0.5000 
    100 CA        -4.6491  -20.8537  -51.3425 C.3       18 UNK         0.1400 
    101 CB        -5.5268  -19.5861  -51.4516 C.3       18 UNK        -0.1800 
    102 C         -4.2678  -21.3920  -52.7315 C.2       18 UNK         0.5000 
    103 O         -4.0046  -20.5851  -53.6214 O.2       18 UNK        -0.5000 
    104 N         -4.2560  -22.7207  -52.9129 N.am      19 UNK        -0.5000 
    105 CA        -4.0035  -23.4288  -54.1739 C.3       19 UNK         0.1400 
    106 CB        -2.5183  -23.3077  -54.5767 C.3       19 UNK        -0.1800 
    107 C         -4.9682  -22.9984  -55.3000 C.2       19 UNK         0.5000 
    108 O         -4.5417  -22.8130  -56.4414 O.2       19 UNK        -0.5000 
    109 N         -6.2476  -22.8068  -54.9390 N.am      20 UNK        -0.5000 
    110 CA        -7.3356  -22.3147  -55.7923 C.3       20 UNK         0.1400 
    111 CB        -7.7067  -23.3642  -56.8613 C.3       20 UNK        -0.1800 
    112 C         -7.0293  -20.9214  -56.3853 C.2       20 UNK         0.5000 
    113 O         -7.1651  -20.7147  -57.5925 O.2       20 UNK        -0.5000 
    114 N         -6.6033  -20.0041  -55.5045 N.am      21 UNK        -0.5000 
    115 CA        -6.1510  -18.6381  -55.7868 C.3       21 UNK         0.1400 
    116 CB        -7.2754  -17.7832  -56.4103 C.3       21 UNK        -0.1800 
    117 C         -4.8362  -18.6167  -56.5931 C.2       21 UNK         0.5000 
    118 O         -4.7517  -17.9771  -57.6437 O.2       21 UNK        -0.5000 
    119 N         -3.8280  -19.3071  -56.0490 N.am      22 UNK        -0.5000 
    120 CA        -2.4335  -19.3517  -56.5115 C.3       22 UNK         0.1400 
    121 C         -2.2379  -20.0682  -57.8815 C.2       22 UNK         0.5000 
    122 N         -3.0061  -21.1051  -58.1906 N.am      22 UNK        -0.7600 
    123 O         -1.3725  -19.7003  -58.6723 O.2       22 UNK        -0.5000 
    124 C124       -1.7114  -17.9729  -56.4328 C.3       23 UNK        -0.0398 
    125 S125       -1.9321  -17.0793  -54.8516 S.3       23 UNK        -0.2404 
    126 C126       -0.8628  -18.0330  -53.7304 C.3       23 UNK        -0.0205 
    127 H127        6.2305  -10.7627  -46.4923 H         1 UNK         0.0600 
    128 H128        6.1750  -12.3822  -45.7879 H         1 UNK         0.0600 
    129 H129        5.4731  -11.0159  -44.9165 H         1 UNK         0.0600 
    130 H130        4.6631  -13.6496  -46.8096 H         1 UNK         0.3000 
    131 H131        2.8175  -14.4450  -47.6592 H         1 UNK         0.0600 
    132 H132        2.5845  -11.7635  -49.1155 H         1 UNK         0.0800 
    133 H133        3.5197  -13.1280  -49.6422 H         1 UNK         0.0800 
    134 H134        2.4174  -15.2694  -51.0762 H         1 UNK         0.0800 
    135 H135        2.0654  -15.6780  -49.4118 H         1 UNK         0.0800 
    136 H136        1.1720  -16.5383  -52.6794 H         1 UNK         0.1150 
    137 H137       -2.7352  -18.0418  -51.7562 H         1 UNK         0.1150 
    138 H138       -0.5883  -15.7250  -48.8575 H         1 UNK         0.1150 
    139 H139       -2.7999  -16.3597  -48.3559 H         1 UNK         0.0800 
    140 H140       -3.8381  -16.5002  -49.7518 H         1 UNK         0.0800 
    141 H141       -2.3016  -18.7409  -46.6601 H         1 UNK         0.0800 
    142 H142       -1.1547  -18.5911  -47.9608 H         1 UNK         0.0800 
    143 H143       -1.4304  -20.9368  -48.5984 H         1 UNK         0.0600 
    144 H144       -0.2987  -20.1563  -46.1586 H         1 UNK         0.3000 
    145 H145        0.9387  -23.3415  -45.0603 H         1 UNK         0.0600 
    146 H146        3.0304  -21.9919  -45.0232 H         1 UNK         0.0600 
    147 H147        2.6134  -22.4723  -46.6614 H         1 UNK         0.0600 
    148 H148        2.3120  -20.8242  -46.1318 H         1 UNK         0.0600 
    149 H149        1.1299  -20.7725  -43.8706 H         1 UNK         0.3000 
    150 H150       -1.9332  -20.9468  -41.9853 H         1 UNK         0.0600 
    151 H151       -0.1720  -22.1485  -40.6908 H         1 UNK         0.0600 
    152 H152       -0.3083  -20.4725  -40.1802 H         1 UNK         0.0600 
    153 H153        1.0310  -20.9742  -41.2083 H         1 UNK         0.0600 
    154 H154        0.0218  -18.8913  -42.1701 H         1 UNK         0.3000 
    155 H155       -1.4267  -17.1503  -44.9694 H         1 UNK         0.0600 
    156 H156       -1.2254  -15.3181  -43.2944 H         1 UNK         0.0600 
    157 H157       -1.1394  -16.5004  -41.9906 H         1 UNK         0.0600 
    158 H158       -2.6069  -16.3491  -42.9465 H         1 UNK         0.0600 
    159 H159        0.9278  -16.6189  -43.4731 H         1 UNK         0.3000 
    160 H160        3.1470  -18.7317  -45.3423 H         1 UNK         0.0600 
    161 H161        2.9122  -15.6969  -45.2301 H         1 UNK         0.0600 
    162 H162        3.0007  -16.6642  -46.6971 H         1 UNK         0.0600 
    163 H163        4.3769  -16.6030  -45.6028 H         1 UNK         0.0600 
    164 H164        3.4047  -16.8831  -43.1176 H         1 UNK         0.3000 
    165 H165        3.1111  -19.4018  -40.6008 H         1 UNK         0.0600 
    166 H166        5.3549  -18.5318  -40.0074 H         1 UNK         0.0600 
    167 H167        5.4672  -19.5749  -41.4159 H         1 UNK         0.0600 
    168 H168        5.5417  -17.8280  -41.6140 H         1 UNK         0.0600 
    169 H169        3.6978  -16.6028  -40.4907 H         1 UNK         0.3000 
    170 H170        0.3463  -15.4252  -40.3530 H         1 UNK         0.0600 
    171 H171        0.7612  -16.2832  -38.0424 H         1 UNK         0.0600 
    172 H172        2.4205  -15.7019  -38.1130 H         1 UNK         0.0600 
    173 H173        1.0769  -14.5595  -38.1532 H         1 UNK         0.0600 
    174 H174        2.7734  -14.0479  -39.9540 H         1 UNK         0.3000 
    175 H175        3.7302  -12.7853  -41.4135 H         1 UNK         0.0600 
    176 H176        4.0968  -14.0749  -44.1578 H         1 UNK         0.0600 
    177 H177        5.2087  -12.9966  -43.3251 H         1 UNK         0.0600 
    178 H178        4.9189  -14.6088  -42.6945 H         1 UNK         0.0600 
    179 H179        2.1906  -12.4741  -43.9687 H         1 UNK         0.3000 
    180 H180        0.8268   -9.4718  -43.0119 H         1 UNK         0.0600 
    181 H181        3.4929   -9.2051  -44.4948 H         1 UNK         0.0600 
    182 H182        2.9773   -8.2713  -43.0981 H         1 UNK         0.0600 
    183 H183        2.1381   -8.0844  -44.6291 H         1 UNK         0.0600 
    184 H184        1.7366  -10.5880  -45.5842 H         1 UNK         0.3000 
    185 H185       -1.0884  -12.6106  -46.0278 H         1 UNK         0.0600 
    186 H186       -2.2421  -10.4459  -46.5164 H         1 UNK         0.0600 
    187 H187       -0.8060   -9.8555  -47.3446 H         1 UNK         0.0600 
    188 H188       -1.7045  -11.2284  -47.9939 H         1 UNK         0.0600 
    189 H189        0.7694  -11.6803  -47.9467 H         1 UNK         0.3000 
    190 H190       -2.8627  -21.0513  -45.3038 H         1 UNK         0.3000 
    191 H191       -5.3781  -22.1418  -46.1296 H         1 UNK         0.0600 
    192 H192       -5.1210  -20.9637  -43.9895 H         1 UNK         0.0600 
    193 H193       -5.6554  -22.6104  -43.6882 H         1 UNK         0.0600 
    194 H194       -3.9769  -22.1654  -43.4050 H         1 UNK         0.0600 
    195 H195       -2.6083  -23.7487  -44.4570 H         1 UNK         0.3000 
    196 H196       -3.8760  -26.3457  -44.7637 H         1 UNK         0.0600 
    197 H197       -1.9588  -27.1006  -43.3521 H         1 UNK         0.0600 
    198 H198       -2.8073  -25.7332  -42.6486 H         1 UNK         0.0600 
    199 H199       -1.2531  -25.4906  -43.4362 H         1 UNK         0.0600 
    200 H200       -0.5239  -25.2917  -45.5398 H         1 UNK         0.3000 
    201 H201        0.1155  -27.6899  -46.8637 H         1 UNK         0.0600 
    202 H202        1.7863  -26.2298  -45.7454 H         1 UNK         0.0600 
    203 H203        1.5537  -24.9867  -46.9749 H         1 UNK         0.0600 
    204 H204        2.2459  -26.5411  -47.4116 H         1 UNK         0.0600 
    205 H205       -0.7882  -24.5142  -48.2257 H         1 UNK         0.3000 
    206 H206       -0.5717  -25.3987  -50.9981 H         1 UNK         0.0600 
    207 H207       -0.1500  -23.0304  -50.2658 H         1 UNK         0.0600 
    208 H208       -1.4048  -23.1327  -51.4926 H         1 UNK         0.0600 
    209 H209       -1.8467  -22.8879  -49.8139 H         1 UNK         0.0600 
    210 H210       -2.8924  -25.9510  -48.5980 H         1 UNK         0.3000 
    211 H211       -4.9658  -26.6937  -48.4658 H         1 UNK         0.0600 
    212 H212       -4.5226  -27.6615  -51.3419 H         1 UNK         0.0600 
    213 H213       -5.7647  -28.2366  -50.2392 H         1 UNK         0.0600 
    214 H214       -4.0702  -28.5241  -49.8732 H         1 UNK         0.0600 
    215 H215       -5.5113  -24.4221  -48.2627 H         1 UNK         0.3000 
    216 H216       -6.8188  -22.6596  -48.4971 H         1 UNK         0.0600 
    217 H217       -9.0424  -22.9133  -49.5460 H         1 UNK         0.0600 
    218 H218       -8.6517  -24.3355  -48.5917 H         1 UNK         0.0600 
    219 H219       -8.5404  -24.3920  -50.3501 H         1 UNK         0.0600 
    220 H220       -4.7379  -22.0162  -49.5939 H         1 UNK         0.3000 
    221 H221       -3.7060  -20.5760  -50.8728 H         1 UNK         0.0600 
    222 H222       -5.8230  -19.2218  -50.4683 H         1 UNK         0.0600 
    223 H223       -4.9914  -18.7759  -51.9469 H         1 UNK         0.0600 
    224 H224       -6.4361  -19.7697  -52.0242 H         1 UNK         0.0600 
    225 H225       -4.4859  -23.3115  -52.1250 H         1 UNK         0.3000 
    226 H226       -4.2119  -24.4828  -53.9861 H         1 UNK         0.0600 
    227 H227       -2.2375  -22.2773  -54.7939 H         1 UNK         0.0600 
    228 H228       -1.8661  -23.6750  -53.7852 H         1 UNK         0.0600 
    229 H229       -2.3044  -23.8996  -55.4673 H         1 UNK         0.0600 
    230 H230       -6.4869  -22.9515  -53.9659 H         1 UNK         0.3000 
    231 H231       -8.2031  -22.1873  -55.1431 H         1 UNK         0.0600 
    232 H232       -6.8988  -23.5205  -57.5767 H         1 UNK         0.0600 
    233 H233       -8.5860  -23.0514  -57.4255 H         1 UNK         0.0600 
    234 H234       -7.9404  -24.3258  -56.4045 H         1 UNK         0.0600 
    235 H235       -6.4830  -20.3048  -54.5479 H         1 UNK         0.3000 
    236 H236       -5.9146  -18.1957  -54.8176 H         1 UNK         0.0600 
    237 H237       -8.1774  -17.8117  -55.7992 H         1 UNK         0.0600 
    238 H238       -6.9687  -16.7396  -56.4877 H         1 UNK         0.0600 
    239 H239       -7.5384  -18.1176  -57.4139 H         1 UNK         0.0600 
    240 H240       -3.9962  -19.8038  -55.1744 H         1 UNK         0.3000 
    241 H241       -1.9267  -20.0029  -55.7997 H         1 UNK         0.0600 
    242 H242       -2.8751  -21.5660  -59.0763 H         1 UNK         0.3800 
    243 H243       -3.6754  -21.4877  -57.5275 H         1 UNK         0.3800 
    244 H244       -0.6416  -18.0951  -56.6096 H         1 UNK         0.0800 
    245 H245       -2.0720  -17.3204  -57.2295 H         1 UNK         0.0800 
    246 H246       -1.2574  -19.0450  -53.6266 H         1 UNK         0.0800 
    247 H247        0.1325  -18.1278  -54.1670 H         1 UNK         0.0800 
@<TRIPOS>BOND
     1    1    2 1    
     2    1  127 1    
     3    1  128 1    
     4    1  129 1    
     5    2    3 2    
     6    2    4 am   BACKBONE|DICT|INTERRES
     7    4    5 1    
     8    4  130 1    
     9    5    6 1    
    10    5   65 1    
    11    5  131 1    
    12    6    7 1    
    13    6  132 1    
    14    6  133 1    
    15    7    8 1    
    16    8    9 1    
    17    8  134 1    
    18    8  135 1    
    19    9   10 ar   
    20    9   14 ar   
    21   10   11 ar   
    22   10  136 1    
    23   11   12 ar   
    24   11  126 1    
    25   12   13 ar   
    26   12  137 1    
    27   13   14 ar   
    28   13   15 1    
    29   14  138 1    
    30   15   16 1    
    31   15  139 1    
    32   15  140 1    
    33   16   17 1    
    34   17   18 1    
    35   17  141 1    
    36   17  142 1    
    37   18   19 1    
    38   18   67 1    
    39   18  143 1    
    40   19   20 am   BACKBONE|DICT|INTERRES
    41   19  144 1    
    42   20   21 2    
    43   20   22 1    
    44   22   23 1    
    45   22   24 1    
    46   22  145 1    
    47   23  146 1    
    48   23  147 1    
    49   23  148 1    
    50   24   25 am   BACKBONE|DICT|INTERRES
    51   24  149 1    
    52   25   26 2    
    53   25   27 1    
    54   27   28 1    
    55   27   29 1    
    56   27  150 1    
    57   28  151 1    
    58   28  152 1    
    59   28  153 1    
    60   29   30 am   BACKBONE|DICT|INTERRES
    61   29  154 1    
    62   30   31 2    
    63   30   32 1    
    64   32   33 1    
    65   32   34 1    
    66   32  155 1    
    67   33  156 1    
    68   33  157 1    
    69   33  158 1    
    70   34   35 am   BACKBONE|DICT|INTERRES
    71   34  159 1    
    72   35   36 2    
    73   35   37 1    
    74   37   38 1    
    75   37   39 1    
    76   37  160 1    
    77   38  161 1    
    78   38  162 1    
    79   38  163 1    
    80   39   40 am   BACKBONE|DICT|INTERRES
    81   39  164 1    
    82   40   41 2    
    83   40   42 1    
    84   42   43 1    
    85   42   44 1    
    86   42  165 1    
    87   43  166 1    
    88   43  167 1    
    89   43  168 1    
    90   44   45 am   BACKBONE|DICT|INTERRES
    91   44  169 1    
    92   45   46 2    
    93   45   47 1    
    94   47   48 1    
    95   47   49 1    
    96   47  170 1    
    97   48  171 1    
    98   48  172 1    
    99   48  173 1    
   100   49   50 am   BACKBONE|DICT|INTERRES
   101   49  174 1    
   102   50   51 2    
   103   50   52 1    
   104   52   53 1    
   105   52   54 1    
   106   52  175 1    
   107   53  176 1    
   108   53  177 1    
   109   53  178 1    
   110   54   55 am   BACKBONE|DICT|INTERRES
   111   54  179 1    
   112   55   56 2    
   113   55   57 1    
   114   57   58 1    
   115   57   59 1    
   116   57  180 1    
   117   58  181 1    
   118   58  182 1    
   119   58  183 1    
   120   59   60 am   BACKBONE|DICT|INTERRES
   121   59  184 1    
   122   60   61 2    
   123   60   62 1    
   124   62   63 1    
   125   62   64 1    
   126   62  185 1    
   127   63  186 1    
   128   63  187 1    
   129   63  188 1    
   130   64   65 am   BACKBONE|DICT|INTERRES
   131   64  189 1    
   132   65   66 2    
   133   67   68 2    
   134   67   69 am   BACKBONE|DICT|INTERRES
   135   69   70 1    
   136   69  190 1    
   137   70   71 1    
   138   70   72 1    
   139   70  191 1    
   140   71  192 1    
   141   71  193 1    
   142   71  194 1    
   143   72   73 2    
   144   72   74 am   BACKBONE|DICT|INTERRES
   145   74   75 1    
   146   74  195 1    
   147   75   76 1    
   148   75   77 1    
   149   75  196 1    
   150   76  197 1    
   151   76  198 1    
   152   76  199 1    
   153   77   78 2    
   154   77   79 am   BACKBONE|DICT|INTERRES
   155   79   80 1    
   156   79  200 1    
   157   80   81 1    
   158   80   82 1    
   159   80  201 1    
   160   81  202 1    
   161   81  203 1    
   162   81  204 1    
   163   82   83 2    
   164   82   84 am   BACKBONE|DICT|INTERRES
   165   84   85 1    
   166   84  205 1    
   167   85   86 1    
   168   85   87 1    
   169   85  206 1    
   170   86  207 1    
   171   86  208 1    
   172   86  209 1    
   173   87   88 2    
   174   87   89 am   BACKBONE|DICT|INTERRES
   175   89   90 1    
   176   89  210 1    
   177   90   91 1    
   178   90   92 1    
   179   90  211 1    
   180   91  212 1    
   181   91  213 1    
   182   91  214 1    
   183   92   93 2    
   184   92   94 am   BACKBONE|DICT|INTERRES
   185   94   95 1    
   186   94  215 1    
   187   95   96 1    
   188   95   97 1    
   189   95  216 1    
   190   96  217 1    
   191   96  218 1    
   192   96  219 1    
   193   97   98 2    
   194   97   99 am   BACKBONE|DICT|INTERRES
   195   99  100 1    
   196   99  220 1    
   197  100  101 1    
   198  100  102 1    
   199  100  221 1    
   200  101  222 1    
   201  101  223 1    
   202  101  224 1    
   203  102  103 2    
   204  102  104 am   BACKBONE|DICT|INTERRES
   205  104  105 1    
   206  104  225 1    
   207  105  106 1    
   208  105  107 1    
   209  105  226 1    
   210  106  227 1    
   211  106  228 1    
   212  106  229 1    
   213  107  108 2    
   214  107  109 am   BACKBONE|DICT|INTERRES
   215  109  110 1    
   216  109  230 1    
   217  110  111 1    
   218  110  112 1    
   219  110  231 1    
   220  111  232 1    
   221  111  233 1    
   222  111  234 1    
   223  112  113 2    
   224  112  114 am   BACKBONE|DICT|INTERRES
   225  114  115 1    
   226  114  235 1    
   227  115  116 1    
   228  115  117 1    
   229  115  236 1    
   230  116  237 1    
   231  116  238 1    
   232  116  239 1    
   233  117  118 2    
   234  117  119 am   BACKBONE|DICT|INTERRES
   235  119  120 1    
   236  119  240 1    
   237  120  121 1    
   238  120  124 1    
   239  120  241 1    
   240  121  122 am   BACKBONE|DICT|INTERRES
   241  121  123 2    
   242  122  242 1    
   243  122  243 1    
   244  124  125 1    
   245  124  244 1    
   246  124  245 1    
   247  125  126 1    
   248  126  246 1    
   249  126  247 1    
@<TRIPOS>SUBSTRUCTURE
     1 UNK         1 GROUP             0       ****    0 ROOT    
