@<TRIPOS>MOLECULE
3R540
247   249    1
SMALL
USER_CHARGES


@<TRIPOS>ATOM
      1 CA          6.7479  -14.8808  -46.8384 C.3       0 UNK        -0.1800 
      2 C           6.2643  -14.6179  -48.2634 C.2       0 UNK         0.5000 
      3 O           7.0581  -14.2003  -49.1036 O.2       0 UNK        -0.5000 
      4 N           4.9825  -14.8410  -48.5870 N.am      1 UNK        -0.5000 
      5 CA          3.9106  -15.3092  -47.6970 C.3       1 UNK         0.1400 
      6 C6          2.8390  -16.1288  -48.4584 C.3       23 UNK        -0.0398 
      7 S7          2.0723  -15.2503  -49.8653 S.3       23 UNK        -0.2404 
      8 C8          0.5296  -14.6325  -49.1233 C.3       23 UNK        -0.0205 
      9 C9         -0.4558  -15.7467  -48.8113 C.ar      23 UNK        -0.0193 
     10 C10        -1.1724  -16.3484  -49.8457 C.ar      23 UNK        -0.1150 
     11 C11        -2.0981  -17.3585  -49.5779 C.ar      23 UNK        -0.0193 
     12 C12        -2.3082  -17.7649  -48.2542 C.ar      23 UNK        -0.1150 
     13 C13        -1.6138  -17.1523  -47.2028 C.ar      23 UNK        -0.0193 
     14 C14        -0.6853  -16.1465  -47.4919 C.ar      23 UNK        -0.1150 
     15 C15        -1.9179  -17.5183  -45.7534 C.3       23 UNK        -0.0205 
     16 S16        -0.4303  -18.0186  -44.8221 S.3       23 UNK        -0.2404 
     17 C17        -0.8826  -19.6868  -44.2242 C.3       23 UNK        -0.0398 
     18 CA         -1.1258  -20.7348  -45.3412 C.3       11 UNK         0.1400 
     19 N          -0.1065  -20.6935  -46.3862 N.am      11 UNK        -0.5000 
     20 C          -0.2522  -21.1698  -47.6273 C.2       10 UNK         0.5000 
     21 O          -1.2732  -21.7266  -48.0359 O.2       10 UNK        -0.5000 
     22 CA          0.9702  -21.0074  -48.5510 C.3       10 UNK         0.1400 
     23 CB          1.0015  -19.5858  -49.1304 C.3       10 UNK        -0.1800 
     24 N           2.2415  -21.2532  -47.8662 N.am      10 UNK        -0.5000 
     25 C           2.6108  -22.4149  -47.3093 C.2       9 UNK         0.5000 
     26 O           1.9418  -23.4449  -47.3662 O.2       9 UNK        -0.5000 
     27 CA          3.9209  -22.4019  -46.4952 C.3       9 UNK         0.1400 
     28 CB          5.1254  -22.6701  -47.4094 C.3       9 UNK        -0.1800 
     29 N           4.1439  -21.1565  -45.7490 N.am      9 UNK        -0.5000 
     30 C           3.2959  -20.6403  -44.8486 C.2       8 UNK         0.5000 
     31 O           2.2138  -21.1583  -44.5644 O.2       8 UNK        -0.5000 
     32 CA          3.6971  -19.2964  -44.2122 C.3       8 UNK         0.1400 
     33 CB          3.6791  -18.1735  -45.2633 C.3       8 UNK        -0.1800 
     34 N           2.7854  -18.9179  -43.1353 N.am      8 UNK        -0.5000 
     35 C           2.7310  -19.4773  -41.9186 C.2       7 UNK         0.5000 
     36 O           3.5213  -20.3367  -41.5238 O.2       7 UNK        -0.5000 
     37 CA          1.5897  -18.9787  -41.0026 C.3       7 UNK         0.1400 
     38 CB          1.8398  -19.2593  -39.5058 C.3       7 UNK        -0.1800 
     39 N           1.2601  -17.5660  -41.2391 N.am      7 UNK        -0.5000 
     40 C           2.0621  -16.5074  -41.0400 C.2       6 UNK         0.5000 
     41 O           3.1714  -16.5735  -40.5094 O.2       6 UNK        -0.5000 
     42 CA          1.5702  -15.1469  -41.5667 C.3       6 UNK         0.1400 
     43 CB          2.4123  -14.7219  -42.7755 C.3       6 UNK        -0.1800 
     44 N           0.1646  -15.1486  -41.9751 N.am      6 UNK        -0.5000 
     45 C          -0.8663  -14.9490  -41.1458 C.2       5 UNK         0.5000 
     46 O          -0.7377  -14.8373  -39.9254 O.2       5 UNK        -0.5000 
     47 CA         -2.2729  -14.8745  -41.7820 C.3       5 UNK         0.1400 
     48 CB         -3.2223  -13.9479  -40.9940 C.3       5 UNK        -0.1800 
     49 N          -2.2965  -14.5255  -43.2116 N.am      5 UNK        -0.5000 
     50 C          -1.8470  -13.4003  -43.7894 C.2       4 UNK         0.5000 
     51 O          -1.2357  -12.5082  -43.1977 O.2       4 UNK        -0.5000 
     52 CA         -2.1960  -13.2311  -45.2748 C.3       4 UNK         0.1400 
     53 CB         -3.6454  -12.7175  -45.4102 C.3       4 UNK        -0.1800 
     54 N          -1.2559  -12.3081  -45.9083 N.am      4 UNK        -0.5000 
     55 C          -1.1820  -12.0490  -47.2181 C.2       3 UNK         0.5000 
     56 O          -1.8936  -12.5940  -48.0616 O.2       3 UNK        -0.5000 
     57 CA         -0.1480  -11.0088  -47.6873 C.3       3 UNK         0.1400 
     58 CB         -0.4981   -9.5917  -47.1904 C.3       3 UNK        -0.1800 
     59 N           1.2481  -11.3612  -47.4019 N.am      3 UNK        -0.5000 
     60 C           1.8732  -11.4186  -46.2184 C.2       2 UNK         0.5000 
     61 O           1.3212  -11.2247  -45.1341 O.2       2 UNK        -0.5000 
     62 CA          3.3850  -11.7248  -46.2885 C.3       2 UNK         0.1400 
     63 CB          4.0649  -11.7826  -44.9054 C.3       2 UNK        -0.1800 
     64 N           3.7096  -12.9268  -47.0668 N.am      2 UNK        -0.5000 
     65 C           3.2863  -14.1816  -46.8416 C.2       1 UNK         0.5000 
     66 O           2.4516  -14.4799  -45.9902 O.2       1 UNK        -0.5000 
     67 C          -1.2356  -22.1530  -44.7510 C.2       11 UNK         0.5000 
     68 O          -2.3457  -22.6458  -44.5531 O.2       11 UNK        -0.5000 
     69 N          -0.0826  -22.8025  -44.5314 N.am      12 UNK        -0.5000 
     70 CA          0.0419  -24.1887  -44.0723 C.3       12 UNK         0.1400 
     71 CB          1.5184  -24.4946  -43.7831 C.3       12 UNK        -0.1800 
     72 C          -0.5405  -25.2074  -45.0715 C.2       12 UNK         0.5000 
     73 O          -1.0888  -26.2266  -44.6524 O.2       12 UNK        -0.5000 
     74 N          -0.4662  -24.8823  -46.3694 N.am      13 UNK        -0.5000 
     75 CA         -1.1123  -25.5997  -47.4696 C.3       13 UNK         0.1400 
     76 CB         -0.3943  -25.2456  -48.7833 C.3       13 UNK        -0.1800 
     77 C          -2.6288  -25.3277  -47.5831 C.2       13 UNK         0.5000 
     78 O          -3.2422  -25.7972  -48.5412 O.2       13 UNK        -0.5000 
     79 N          -3.2086  -24.5704  -46.6384 N.am      14 UNK        -0.5000 
     80 CA         -4.6214  -24.1942  -46.5390 C.3       14 UNK         0.1400 
     81 CB         -5.5051  -25.4359  -46.2933 C.3       14 UNK        -0.1800 
     82 C          -5.0815  -23.3520  -47.7421 C.2       14 UNK         0.5000 
     83 O          -6.1173  -23.6446  -48.3398 O.2       14 UNK        -0.5000 
     84 N          -4.2723  -22.3424  -48.0969 N.am      15 UNK        -0.5000 
     85 CA         -4.4296  -21.4671  -49.2621 C.3       15 UNK         0.1400 
     86 CB         -5.6818  -20.5747  -49.1323 C.3       15 UNK        -0.1800 
     87 C          -4.3860  -22.2689  -50.5774 C.2       15 UNK         0.5000 
     88 O          -5.2687  -22.1260  -51.4261 O.2       15 UNK        -0.5000 
     89 N          -3.3650  -23.1321  -50.6874 N.am      16 UNK        -0.5000 
     90 CA         -3.1165  -24.0685  -51.7874 C.3       16 UNK         0.1400 
     91 CB         -2.7224  -23.2971  -53.0652 C.3       16 UNK        -0.1800 
     92 C          -4.3039  -25.0306  -52.0034 C.2       16 UNK         0.5000 
     93 O          -4.8618  -25.0895  -53.0989 O.2       16 UNK        -0.5000 
     94 N          -4.6999  -25.7285  -50.9289 N.am      17 UNK        -0.5000 
     95 CA         -5.8503  -26.6362  -50.8383 C.3       17 UNK         0.1400 
     96 CB         -5.5957  -27.9168  -51.6600 C.3       17 UNK        -0.1800 
     97 C          -7.1836  -25.9420  -51.1932 C.2       17 UNK         0.5000 
     98 O          -8.0069  -26.5024  -51.9189 O.2       17 UNK        -0.5000 
     99 N          -7.3445  -24.7115  -50.6875 N.am      18 UNK        -0.5000 
    100 CA        -8.4584  -23.7812  -50.8858 C.3       18 UNK         0.1400 
    101 CB        -9.7645  -24.3585  -50.3023 C.3       18 UNK        -0.1800 
    102 C         -8.6339  -23.2714  -52.3336 C.2       18 UNK         0.5000 
    103 O         -9.6576  -22.6509  -52.6268 O.2       18 UNK        -0.5000 
    104 N         -7.6485  -23.5039  -53.2140 N.am      19 UNK        -0.5000 
    105 CA        -7.6578  -23.0159  -54.5952 C.3       19 UNK         0.1400 
    106 CB        -6.6931  -23.8568  -55.4449 C.3       19 UNK        -0.1800 
    107 C         -7.2909  -21.5243  -54.7009 C.2       19 UNK         0.5000 
    108 O         -7.6487  -20.8897  -55.6937 O.2       19 UNK        -0.5000 
    109 N         -6.5683  -21.0033  -53.6960 N.am      20 UNK        -0.5000 
    110 CA        -6.0397  -19.6396  -53.5889 C.3       20 UNK         0.1400 
    111 CB        -7.1793  -18.6051  -53.4934 C.3       20 UNK        -0.1800 
    112 C         -5.0029  -19.2989  -54.6801 C.2       20 UNK         0.5000 
    113 O         -4.8104  -18.1253  -55.0023 O.2       20 UNK        -0.5000 
    114 N         -4.3176  -20.3277  -55.2040 N.am      21 UNK        -0.5000 
    115 CA        -3.2711  -20.2278  -56.2295 C.3       21 UNK         0.1400 
    116 CB        -2.8563  -21.6441  -56.6561 C.3       21 UNK        -0.1800 
    117 C         -2.0414  -19.4120  -55.7793 C.2       21 UNK         0.5000 
    118 O         -1.3341  -18.8527  -56.6177 O.2       21 UNK        -0.5000 
    119 N         -1.8408  -19.3365  -54.4598 N.am      22 UNK        -0.5000 
    120 CA        -0.9201  -18.4287  -53.7658 C.3       22 UNK         0.1400 
    121 C         -1.2888  -16.9162  -53.8511 C.2       22 UNK         0.5000 
    122 N         -2.4852  -16.5301  -54.2801 N.am      22 UNK        -0.7600 
    123 O         -0.4599  -16.0695  -53.5313 O.2       22 UNK        -0.5000 
    124 C124       -0.6844  -18.8801  -52.2971 C.3       23 UNK        -0.0398 
    125 S125       -2.1808  -19.4686  -51.4144 S.3       23 UNK        -0.2404 
    126 C126       -2.9129  -17.9543  -50.7174 C.3       23 UNK        -0.0205 
    127 H127        7.7848  -14.5641  -46.7233 H         1 UNK         0.0600 
    128 H128        6.6980  -15.9444  -46.6052 H         1 UNK         0.0600 
    129 H129        6.1536  -14.3314  -46.1089 H         1 UNK         0.0600 
    130 H130        4.6883  -14.6678  -49.5386 H         1 UNK         0.3000 
    131 H131        4.3537  -15.9984  -46.9786 H         1 UNK         0.0600 
    132 H132        3.3041  -17.0295  -48.8607 H         1 UNK         0.0800 
    133 H133        2.0710  -16.4915  -47.7745 H         1 UNK         0.0800 
    134 H134        0.0639  -13.9286  -49.8145 H         1 UNK         0.0800 
    135 H135        0.7582  -14.0652  -48.2225 H         1 UNK         0.0800 
    136 H136       -1.0140  -16.0171  -50.8621 H         1 UNK         0.1150 
    137 H137       -3.0370  -18.5344  -48.0426 H         1 UNK         0.1150 
    138 H138       -0.1504  -15.6631  -46.6859 H         1 UNK         0.1150 
    139 H139       -2.3555  -16.6497  -45.2641 H         1 UNK         0.0800 
    140 H140       -2.6801  -18.2958  -45.7051 H         1 UNK         0.0800 
    141 H141       -1.7656  -19.6010  -43.5887 H         1 UNK         0.0800 
    142 H142       -0.0729  -20.0136  -43.5706 H         1 UNK         0.0800 
    143 H143       -2.0860  -20.5111  -45.8095 H         1 UNK         0.0600 
    144 H144        0.7845  -20.3046  -46.1142 H         1 UNK         0.3000 
    145 H145        0.8706  -21.7225  -49.3700 H         1 UNK         0.0600 
    146 H146        1.1894  -18.8376  -48.3594 H         1 UNK         0.0600 
    147 H147        1.7690  -19.4827  -49.8974 H         1 UNK         0.0600 
    148 H148        0.0468  -19.3344  -49.5862 H         1 UNK         0.0600 
    149 H149        2.8625  -20.4644  -47.7695 H         1 UNK         0.3000 
    150 H150        3.8622  -23.2124  -45.7668 H         1 UNK         0.0600 
    151 H151        4.9957  -23.6012  -47.9628 H         1 UNK         0.0600 
    152 H152        6.0459  -22.7628  -46.8327 H         1 UNK         0.0600 
    153 H153        5.2641  -21.8711  -48.1388 H         1 UNK         0.0600 
    154 H154        5.0115  -20.6747  -45.9352 H         1 UNK         0.3000 
    155 H155        4.7054  -19.3928  -43.8047 H         1 UNK         0.0600 
    156 H156        4.3906  -18.3680  -46.0664 H         1 UNK         0.0600 
    157 H157        3.9523  -17.2167  -44.8174 H         1 UNK         0.0600 
    158 H158        2.6929  -18.0595  -45.7158 H         1 UNK         0.0600 
    159 H159        2.0761  -18.2420  -43.3744 H         1 UNK         0.3000 
    160 H160        0.7051  -19.5473  -41.2912 H         1 UNK         0.0600 
    161 H161        1.0221  -18.8819  -38.8919 H         1 UNK         0.0600 
    162 H162        2.7642  -18.8020  -39.1527 H         1 UNK         0.0600 
    163 H163        1.9169  -20.3310  -39.3190 H         1 UNK         0.0600 
    164 H164        0.3678  -17.3888  -41.6775 H         1 UNK         0.3000 
    165 H165        1.7137  -14.4092  -40.7742 H         1 UNK         0.0600 
    166 H166        2.3801  -15.4730  -43.5653 H         1 UNK         0.0600 
    167 H167        2.0506  -13.7814  -43.1917 H         1 UNK         0.0600 
    168 H168        3.4578  -14.5798  -42.4995 H         1 UNK         0.0600 
    169 H169       -0.0213  -15.2218  -42.9646 H         1 UNK         0.3000 
    170 H170       -2.6767  -15.8857  -41.7152 H         1 UNK         0.0600 
    171 H171       -2.8518  -12.9228  -40.9639 H         1 UNK         0.0600 
    172 H172       -4.2171  -13.9316  -41.4392 H         1 UNK         0.0600 
    173 H173       -3.3377  -14.2845  -39.9630 H         1 UNK         0.0600 
    174 H174       -2.7925  -15.1848  -43.7934 H         1 UNK         0.3000 
    175 H175       -2.1065  -14.2015  -45.7655 H         1 UNK         0.0600 
    176 H176       -3.7514  -11.7121  -45.0009 H         1 UNK         0.0600 
    177 H177       -3.9723  -12.6916  -46.4492 H         1 UNK         0.0600 
    178 H178       -4.3451  -13.3627  -44.8774 H         1 UNK         0.0600 
    179 H179       -0.5893  -11.8645  -45.2796 H         1 UNK         0.3000 
    180 H180       -0.2153  -10.9826  -48.7763 H         1 UNK         0.0600 
    181 H181       -0.4629   -9.5138  -46.1036 H         1 UNK         0.0600 
    182 H182       -1.5051   -9.3109  -47.5012 H         1 UNK         0.0600 
    183 H183        0.1868   -8.8501  -47.6015 H         1 UNK         0.0600 
    184 H184        1.8037  -11.5714  -48.2190 H         1 UNK         0.3000 
    185 H185        3.8305  -10.8858  -46.8252 H         1 UNK         0.0600 
    186 H186        3.7004  -12.6170  -44.3092 H         1 UNK         0.0600 
    187 H187        5.1449  -11.8920  -45.0037 H         1 UNK         0.0600 
    188 H188        3.8828  -10.8689  -44.3385 H         1 UNK         0.0600 
    189 H189        4.3699  -12.7929  -47.8199 H         1 UNK         0.3000 
    190 H190        0.7880  -22.2961  -44.6821 H         1 UNK         0.3000 
    191 H191       -0.5172  -24.2805  -43.1390 H         1 UNK         0.0600 
    192 H192        2.1214  -24.4454  -44.6895 H         1 UNK         0.0600 
    193 H193        1.9358  -23.7896  -43.0636 H         1 UNK         0.0600 
    194 H194        1.6348  -25.4955  -43.3658 H         1 UNK         0.0600 
    195 H195        0.0757  -24.0654  -46.6287 H         1 UNK         0.3000 
    196 H196       -0.9941  -26.6716  -47.2996 H         1 UNK         0.0600 
    197 H197        0.6664  -25.4906  -48.7291 H         1 UNK         0.0600 
    198 H198       -0.4803  -24.1840  -49.0159 H         1 UNK         0.0600 
    199 H199       -0.8077  -25.8029  -49.6246 H         1 UNK         0.0600 
    200 H200       -2.6204  -24.1875  -45.9075 H         1 UNK         0.3000 
    201 H201       -4.7107  -23.5504  -45.6632 H         1 UNK         0.0600 
    202 H202       -6.5381  -25.1456  -46.0983 H         1 UNK         0.0600 
    203 H203       -5.1582  -26.0005  -45.4280 H         1 UNK         0.0600 
    204 H204       -5.5133  -26.1085  -47.1514 H         1 UNK         0.0600 
    205 H205       -3.4002  -22.2279  -47.5944 H         1 UNK         0.3000 
    206 H206       -3.5600  -20.8108  -49.2657 H         1 UNK         0.0600 
    207 H207       -6.6032  -21.1571  -49.1439 H         1 UNK         0.0600 
    208 H208       -5.7393  -19.8637  -49.9570 H         1 UNK         0.0600 
    209 H209       -5.6596  -19.9986  -48.2075 H         1 UNK         0.0600 
    210 H210       -2.7130  -23.1766  -49.9170 H         1 UNK         0.3000 
    211 H211       -2.2650  -24.6832  -51.4925 H         1 UNK         0.0600 
    212 H212       -1.8699  -22.6422  -52.8840 H         1 UNK         0.0600 
    213 H213       -2.4419  -23.9846  -53.8638 H         1 UNK         0.0600 
    214 H214       -3.5420  -22.6822  -53.4368 H         1 UNK         0.0600 
    215 H215       -4.1724  -25.6221  -50.0627 H         1 UNK         0.3000 
    216 H216       -5.9271  -26.9259  -49.7893 H         1 UNK         0.0600 
    217 H217       -6.3908  -28.6465  -51.5025 H         1 UNK         0.0600 
    218 H218       -5.5488  -27.7097  -52.7295 H         1 UNK         0.0600 
    219 H219       -4.6587  -28.3912  -51.3686 H         1 UNK         0.0600 
    220 H220       -6.6241  -24.3595  -50.0622 H         1 UNK         0.3000 
    221 H221       -8.2020  -22.8991  -50.2974 H         1 UNK         0.0600 
    222 H222      -10.1273  -25.2078  -50.8817 H         1 UNK         0.0600 
    223 H223       -9.6234  -24.6885  -49.2730 H         1 UNK         0.0600 
    224 H224      -10.5561  -23.6085  -50.2939 H         1 UNK         0.0600 
    225 H225       -6.8255  -24.0129  -52.9131 H         1 UNK         0.3000 
    226 H226       -8.6625  -23.1434  -55.0037 H         1 UNK         0.0600 
    227 H227       -6.9031  -24.9222  -55.3481 H         1 UNK         0.0600 
    228 H228       -6.7829  -23.6010  -56.5013 H         1 UNK         0.0600 
    229 H229       -5.6540  -23.6908  -55.1595 H         1 UNK         0.0600 
    230 H230       -6.3010  -21.6162  -52.9279 H         1 UNK         0.3000 
    231 H231       -5.4933  -19.6063  -52.6454 H         1 UNK         0.0600 
    232 H232       -6.7896  -17.6157  -53.2513 H         1 UNK         0.0600 
    233 H233       -7.8889  -18.8730  -52.7106 H         1 UNK         0.0600 
    234 H234       -7.7291  -18.5181  -54.4307 H         1 UNK         0.0600 
    235 H235       -4.5456  -21.2557  -54.8809 H         1 UNK         0.3000 
    236 H236       -3.7023  -19.7195  -57.0942 H         1 UNK         0.0600 
    237 H237       -3.7096  -22.2117  -57.0279 H         1 UNK         0.0600 
    238 H238       -2.1166  -21.6088  -57.4570 H         1 UNK         0.0600 
    239 H239       -2.4159  -22.2011  -55.8287 H         1 UNK         0.0600 
    240 H240       -2.4748  -19.8376  -53.8552 H         1 UNK         0.3000 
    241 H241        0.0394  -18.5093  -54.2800 H         1 UNK         0.0600 
    242 H242       -2.6880  -15.5451  -54.3352 H         1 UNK         0.3800 
    243 H243       -3.1984  -17.1976  -54.5580 H         1 UNK         0.3800 
    244 H244        0.0067  -19.7237  -52.3087 H         1 UNK         0.0800 
    245 H245       -0.1725  -18.1142  -51.7142 H         1 UNK         0.0800 
    246 H246       -3.9136  -18.1918  -50.3552 H         1 UNK         0.0800 
    247 H247       -3.0551  -17.2176  -51.5084 H         1 UNK         0.0800 
@<TRIPOS>BOND
     1    1    2 1    
     2    1  127 1    
     3    1  128 1    
     4    1  129 1    
     5    2    3 2    
     6    2    4 am   BACKBONE|DICT|INTERRES
     7    4    5 1    
     8    4  130 1    
     9    5    6 1    
    10    5   65 1    
    11    5  131 1    
    12    6    7 1    
    13    6  132 1    
    14    6  133 1    
    15    7    8 1    
    16    8    9 1    
    17    8  134 1    
    18    8  135 1    
    19    9   10 ar   
    20    9   14 ar   
    21   10   11 ar   
    22   10  136 1    
    23   11   12 ar   
    24   11  126 1    
    25   12   13 ar   
    26   12  137 1    
    27   13   14 ar   
    28   13   15 1    
    29   14  138 1    
    30   15   16 1    
    31   15  139 1    
    32   15  140 1    
    33   16   17 1    
    34   17   18 1    
    35   17  141 1    
    36   17  142 1    
    37   18   19 1    
    38   18   67 1    
    39   18  143 1    
    40   19   20 am   BACKBONE|DICT|INTERRES
    41   19  144 1    
    42   20   21 2    
    43   20   22 1    
    44   22   23 1    
    45   22   24 1    
    46   22  145 1    
    47   23  146 1    
    48   23  147 1    
    49   23  148 1    
    50   24   25 am   BACKBONE|DICT|INTERRES
    51   24  149 1    
    52   25   26 2    
    53   25   27 1    
    54   27   28 1    
    55   27   29 1    
    56   27  150 1    
    57   28  151 1    
    58   28  152 1    
    59   28  153 1    
    60   29   30 am   BACKBONE|DICT|INTERRES
    61   29  154 1    
    62   30   31 2    
    63   30   32 1    
    64   32   33 1    
    65   32   34 1    
    66   32  155 1    
    67   33  156 1    
    68   33  157 1    
    69   33  158 1    
    70   34   35 am   BACKBONE|DICT|INTERRES
    71   34  159 1    
    72   35   36 2    
    73   35   37 1    
    74   37   38 1    
    75   37   39 1    
    76   37  160 1    
    77   38  161 1    
    78   38  162 1    
    79   38  163 1    
    80   39   40 am   BACKBONE|DICT|INTERRES
    81   39  164 1    
    82   40   41 2    
    83   40   42 1    
    84   42   43 1    
    85   42   44 1    
    86   42  165 1    
    87   43  166 1    
    88   43  167 1    
    89   43  168 1    
    90   44   45 am   BACKBONE|DICT|INTERRES
    91   44  169 1    
    92   45   46 2    
    93   45   47 1    
    94   47   48 1    
    95   47   49 1    
    96   47  170 1    
    97   48  171 1    
    98   48  172 1    
    99   48  173 1    
   100   49   50 am   BACKBONE|DICT|INTERRES
   101   49  174 1    
   102   50   51 2    
   103   50   52 1    
   104   52   53 1    
   105   52   54 1    
   106   52  175 1    
   107   53  176 1    
   108   53  177 1    
   109   53  178 1    
   110   54   55 am   BACKBONE|DICT|INTERRES
   111   54  179 1    
   112   55   56 2    
   113   55   57 1    
   114   57   58 1    
   115   57   59 1    
   116   57  180 1    
   117   58  181 1    
   118   58  182 1    
   119   58  183 1    
   120   59   60 am   BACKBONE|DICT|INTERRES
   121   59  184 1    
   122   60   61 2    
   123   60   62 1    
   124   62   63 1    
   125   62   64 1    
   126   62  185 1    
   127   63  186 1    
   128   63  187 1    
   129   63  188 1    
   130   64   65 am   BACKBONE|DICT|INTERRES
   131   64  189 1    
   132   65   66 2    
   133   67   68 2    
   134   67   69 am   BACKBONE|DICT|INTERRES
   135   69   70 1    
   136   69  190 1    
   137   70   71 1    
   138   70   72 1    
   139   70  191 1    
   140   71  192 1    
   141   71  193 1    
   142   71  194 1    
   143   72   73 2    
   144   72   74 am   BACKBONE|DICT|INTERRES
   145   74   75 1    
   146   74  195 1    
   147   75   76 1    
   148   75   77 1    
   149   75  196 1    
   150   76  197 1    
   151   76  198 1    
   152   76  199 1    
   153   77   78 2    
   154   77   79 am   BACKBONE|DICT|INTERRES
   155   79   80 1    
   156   79  200 1    
   157   80   81 1    
   158   80   82 1    
   159   80  201 1    
   160   81  202 1    
   161   81  203 1    
   162   81  204 1    
   163   82   83 2    
   164   82   84 am   BACKBONE|DICT|INTERRES
   165   84   85 1    
   166   84  205 1    
   167   85   86 1    
   168   85   87 1    
   169   85  206 1    
   170   86  207 1    
   171   86  208 1    
   172   86  209 1    
   173   87   88 2    
   174   87   89 am   BACKBONE|DICT|INTERRES
   175   89   90 1    
   176   89  210 1    
   177   90   91 1    
   178   90   92 1    
   179   90  211 1    
   180   91  212 1    
   181   91  213 1    
   182   91  214 1    
   183   92   93 2    
   184   92   94 am   BACKBONE|DICT|INTERRES
   185   94   95 1    
   186   94  215 1    
   187   95   96 1    
   188   95   97 1    
   189   95  216 1    
   190   96  217 1    
   191   96  218 1    
   192   96  219 1    
   193   97   98 2    
   194   97   99 am   BACKBONE|DICT|INTERRES
   195   99  100 1    
   196   99  220 1    
   197  100  101 1    
   198  100  102 1    
   199  100  221 1    
   200  101  222 1    
   201  101  223 1    
   202  101  224 1    
   203  102  103 2    
   204  102  104 am   BACKBONE|DICT|INTERRES
   205  104  105 1    
   206  104  225 1    
   207  105  106 1    
   208  105  107 1    
   209  105  226 1    
   210  106  227 1    
   211  106  228 1    
   212  106  229 1    
   213  107  108 2    
   214  107  109 am   BACKBONE|DICT|INTERRES
   215  109  110 1    
   216  109  230 1    
   217  110  111 1    
   218  110  112 1    
   219  110  231 1    
   220  111  232 1    
   221  111  233 1    
   222  111  234 1    
   223  112  113 2    
   224  112  114 am   BACKBONE|DICT|INTERRES
   225  114  115 1    
   226  114  235 1    
   227  115  116 1    
   228  115  117 1    
   229  115  236 1    
   230  116  237 1    
   231  116  238 1    
   232  116  239 1    
   233  117  118 2    
   234  117  119 am   BACKBONE|DICT|INTERRES
   235  119  120 1    
   236  119  240 1    
   237  120  121 1    
   238  120  124 1    
   239  120  241 1    
   240  121  122 am   BACKBONE|DICT|INTERRES
   241  121  123 2    
   242  122  242 1    
   243  122  243 1    
   244  124  125 1    
   245  124  244 1    
   246  124  245 1    
   247  125  126 1    
   248  126  246 1    
   249  126  247 1    
@<TRIPOS>SUBSTRUCTURE
     1 UNK         1 GROUP             0       ****    0 ROOT    
