@<TRIPOS>MOLECULE
3R540
247   249    1
SMALL
USER_CHARGES


@<TRIPOS>ATOM
      1 CA          7.6630  -13.5234  -45.2235 C.3       0 UNK        -0.1800 
      2 C           6.1670  -13.7969  -45.1691 C.2       0 UNK         0.5000 
      3 O           5.6006  -13.8909  -44.0818 O.2       0 UNK        -0.5000 
      4 N           5.5257  -13.9183  -46.3380 N.am      1 UNK        -0.5000 
      5 CA          4.0838  -14.1559  -46.4920 C.3       1 UNK         0.1400 
      6 C6          3.7497  -14.7896  -47.8614 C.3       23 UNK        -0.0398 
      7 S7          4.3198  -13.8120  -49.2979 S.3       23 UNK        -0.2404 
      8 C8          5.1420  -15.0914  -50.3025 C.3       23 UNK        -0.0205 
      9 C9          4.1964  -16.2270  -50.6706 C.ar      23 UNK        -0.0193 
     10 C10         3.0557  -15.9699  -51.4369 C.ar      23 UNK        -0.1150 
     11 C11         2.1698  -17.0017  -51.7524 C.ar      23 UNK        -0.0193 
     12 C12         2.4455  -18.3020  -51.3266 C.ar      23 UNK        -0.1150 
     13 C13         3.5747  -18.5727  -50.5508 C.ar      23 UNK        -0.0193 
     14 C14         4.4495  -17.5304  -50.2281 C.ar      23 UNK        -0.1150 
     15 C15         3.8421  -19.9873  -50.0566 C.3       23 UNK        -0.0205 
     16 S16         2.9423  -20.3460  -48.5126 S.3       23 UNK        -0.2404 
     17 C17         1.2319  -20.5582  -49.1152 C.3       23 UNK        -0.0398 
     18 CA          0.4694  -21.6736  -48.3646 C.3       11 UNK         0.1400 
     19 N           0.2344  -21.3654  -46.9488 N.am      11 UNK        -0.5000 
     20 C          -0.2341  -22.2495  -46.0554 C.2       10 UNK         0.5000 
     21 O          -0.4389  -23.4347  -46.3162 O.2       10 UNK        -0.5000 
     22 CA         -0.5920  -21.7187  -44.6546 C.3       10 UNK         0.1400 
     23 CB          0.6485  -21.6570  -43.7517 C.3       10 UNK        -0.1800 
     24 N          -1.2511  -20.4123  -44.7017 N.am      10 UNK        -0.5000 
     25 C          -2.4558  -20.1965  -45.2498 C.2       9 UNK         0.5000 
     26 O          -3.1636  -21.0946  -45.7022 O.2       9 UNK        -0.5000 
     27 CA         -2.9343  -18.7366  -45.3616 C.3       9 UNK         0.1400 
     28 CB         -3.6296  -18.2852  -44.0696 C.3       9 UNK        -0.1800 
     29 N          -1.8512  -17.8103  -45.6916 N.am      9 UNK        -0.5000 
     30 C          -1.1489  -17.8371  -46.8339 C.2       8 UNK         0.5000 
     31 O          -1.3847  -18.6114  -47.7613 O.2       8 UNK        -0.5000 
     32 CA          0.0545  -16.8795  -46.9231 C.3       8 UNK         0.1400 
     33 CB         -0.4009  -15.4724  -47.3397 C.3       8 UNK        -0.1800 
     34 N           0.7967  -16.8208  -45.6582 N.am      8 UNK        -0.5000 
     35 C           1.4831  -17.8581  -45.1540 C.2       7 UNK         0.5000 
     36 O           1.6205  -18.9259  -45.7477 O.2       7 UNK        -0.5000 
     37 CA          2.0503  -17.7173  -43.7284 C.3       7 UNK         0.1400 
     38 CB          3.4490  -17.0857  -43.7259 C.3       7 UNK        -0.1800 
     39 N           1.1616  -16.9604  -42.8471 N.am      7 UNK        -0.5000 
     40 C           0.0161  -17.4517  -42.3507 C.2       6 UNK         0.5000 
     41 O          -0.3657  -18.6041  -42.5485 O.2       6 UNK        -0.5000 
     42 CA         -0.8775  -16.4938  -41.5355 C.3       6 UNK         0.1400 
     43 CB         -0.5168  -16.5618  -40.0445 C.3       6 UNK        -0.1800 
     44 N          -0.7965  -15.1042  -41.9853 N.am      6 UNK        -0.5000 
     45 C          -1.0898  -14.6764  -43.2207 C.2       5 UNK         0.5000 
     46 O          -1.5863  -15.3998  -44.0836 O.2       5 UNK        -0.5000 
     47 CA         -0.7211  -13.2214  -43.5755 C.3       5 UNK         0.1400 
     48 CB         -1.9809  -12.3447  -43.6194 C.3       5 UNK        -0.1800 
     49 N           0.2641  -12.5903  -42.6884 N.am      5 UNK        -0.5000 
     50 C           1.5032  -13.0267  -42.4247 C.2       4 UNK         0.5000 
     51 O           1.9595  -14.0842  -42.8620 O.2       4 UNK        -0.5000 
     52 CA          2.3575  -12.1237  -41.5093 C.3       4 UNK         0.1400 
     53 CB          3.6149  -12.8408  -40.9878 C.3       4 UNK        -0.1800 
     54 N           2.7663  -10.8929  -42.1871 N.am      4 UNK        -0.5000 
     55 C           1.9704   -9.8572  -42.4891 C.2       3 UNK         0.5000 
     56 O           0.7840   -9.7982  -42.1638 O.2       3 UNK        -0.5000 
     57 CA          2.5858   -8.7015  -43.3077 C.3       3 UNK         0.1400 
     58 CB          2.6231   -7.4144  -42.4689 C.3       3 UNK        -0.1800 
     59 N           3.9432   -8.9752  -43.7964 N.am      3 UNK        -0.5000 
     60 C           4.3181   -9.7595  -44.8176 C.2       2 UNK         0.5000 
     61 O           5.5095   -9.9218  -45.0880 O.2       2 UNK        -0.5000 
     62 CA          3.2625  -10.4733  -45.6851 C.3       2 UNK         0.1400 
     63 CB          2.8915   -9.6325  -46.9168 C.3       2 UNK        -0.1800 
     64 N           3.8462  -11.7349  -46.1169 N.am      2 UNK        -0.5000 
     65 C           3.2157  -12.9110  -46.1965 C.2       1 UNK         0.5000 
     66 O           2.0026  -13.0433  -46.0356 O.2       1 UNK        -0.5000 
     67 C          -0.8418  -22.0333  -49.0965 C.2       11 UNK         0.5000 
     68 O          -0.8566  -23.0068  -49.8494 O.2       11 UNK        -0.5000 
     69 N          -1.9277  -21.2924  -48.8259 N.am      12 UNK        -0.5000 
     70 CA         -3.2656  -21.5853  -49.3458 C.3       12 UNK         0.1400 
     71 CB         -4.2297  -20.4389  -49.0067 C.3       12 UNK        -0.1800 
     72 C          -3.8089  -22.9335  -48.8344 C.2       12 UNK         0.5000 
     73 O          -4.3438  -23.7100  -49.6225 O.2       12 UNK        -0.5000 
     74 N          -3.6234  -23.2207  -47.5384 N.am      13 UNK        -0.5000 
     75 CA         -3.9789  -24.4982  -46.9174 C.3       13 UNK         0.1400 
     76 CB         -3.7770  -24.4166  -45.3977 C.3       13 UNK        -0.1800 
     77 C          -3.2043  -25.6880  -47.5162 C.2       13 UNK         0.5000 
     78 O          -3.8067  -26.7291  -47.7835 O.2       13 UNK        -0.5000 
     79 N          -1.9005  -25.4964  -47.7646 N.am      14 UNK        -0.5000 
     80 CA         -1.0345  -26.4563  -48.4525 C.3       14 UNK         0.1400 
     81 CB          0.4266  -25.9915  -48.3654 C.3       14 UNK        -0.1800 
     82 C          -1.4494  -26.6997  -49.9171 C.2       14 UNK         0.5000 
     83 O          -1.3261  -27.8264  -50.4005 O.2       14 UNK        -0.5000 
     84 N          -1.9866  -25.6677  -50.5829 N.am      15 UNK        -0.5000 
     85 CA         -2.5968  -25.7275  -51.9122 C.3       15 UNK         0.1400 
     86 CB         -2.5988  -24.3219  -52.5394 C.3       15 UNK        -0.1800 
     87 C          -4.0027  -26.3665  -51.8681 C.2       15 UNK         0.5000 
     88 O          -4.9949  -25.7262  -52.2244 O.2       15 UNK        -0.5000 
     89 N          -4.0422  -27.6310  -51.4246 N.am      16 UNK        -0.5000 
     90 CA         -5.1867  -28.5438  -51.3734 C.3       16 UNK         0.1400 
     91 CB         -5.5267  -29.0384  -52.7937 C.3       16 UNK        -0.1800 
     92 C          -6.4058  -27.9783  -50.6157 C.2       16 UNK         0.5000 
     93 O          -7.5303  -28.0583  -51.1129 O.2       16 UNK        -0.5000 
     94 N          -6.1523  -27.4258  -49.4194 N.am      17 UNK        -0.5000 
     95 CA         -7.1316  -26.8385  -48.4994 C.3       17 UNK         0.1400 
     96 CB         -8.0832  -27.9195  -47.9438 C.3       17 UNK        -0.1800 
     97 C          -7.8678  -25.6334  -49.1181 C.2       17 UNK         0.5000 
     98 O          -9.0997  -25.5958  -49.1309 O.2       17 UNK        -0.5000 
     99 N          -7.0808  -24.6717  -49.6198 N.am      18 UNK        -0.5000 
    100 CA        -7.5057  -23.4295  -50.2666 C.3       18 UNK         0.1400 
    101 CB        -8.2739  -22.5168  -49.2876 C.3       18 UNK        -0.1800 
    102 C         -8.2344  -23.6656  -51.6024 C.2       18 UNK         0.5000 
    103 O         -9.2319  -23.0003  -51.8897 O.2       18 UNK        -0.5000 
    104 N         -7.7008  -24.5868  -52.4196 N.am      19 UNK        -0.5000 
    105 CA        -8.0979  -24.7507  -53.8211 C.3       19 UNK         0.1400 
    106 CB        -7.6033  -26.1038  -54.3497 C.3       19 UNK        -0.1800 
    107 C         -7.5604  -23.5961  -54.6892 C.2       19 UNK         0.5000 
    108 O         -8.2100  -23.2088  -55.6613 O.2       19 UNK        -0.5000 
    109 N         -6.4093  -23.0440  -54.2861 N.am      20 UNK        -0.5000 
    110 CA        -5.8838  -21.7597  -54.7310 C.3       20 UNK         0.1400 
    111 CB        -4.4186  -21.9355  -55.1585 C.3       20 UNK        -0.1800 
    112 C         -5.9802  -20.7777  -53.5534 C.2       20 UNK         0.5000 
    113 O         -5.8799  -21.1943  -52.3969 O.2       20 UNK        -0.5000 
    114 N         -6.1401  -19.4859  -53.8633 N.am      21 UNK        -0.5000 
    115 CA        -6.2551  -18.4053  -52.8766 C.3       21 UNK         0.1400 
    116 CB        -6.8116  -17.1559  -53.5778 C.3       21 UNK        -0.1800 
    117 C         -4.9330  -18.0723  -52.1533 C.2       21 UNK         0.5000 
    118 O         -4.9611  -17.3972  -51.1242 O.2       21 UNK        -0.5000 
    119 N         -3.8076  -18.5369  -52.7046 N.am      22 UNK        -0.5000 
    120 CA        -2.4544  -18.3640  -52.1695 C.3       22 UNK         0.1400 
    121 C         -1.5133  -19.4778  -52.6988 C.2       22 UNK         0.5000 
    122 N         -1.5437  -19.7966  -53.9888 N.am      22 UNK        -0.7600 
    123 O         -0.7616  -20.0737  -51.9355 O.2       22 UNK        -0.5000 
    124 C124       -1.9030  -16.9377  -52.4397 C.3       23 UNK        -0.0398 
    125 S125       -0.4972  -16.5076  -51.3642 S.3       23 UNK        -0.2404 
    126 C126        0.8927  -16.7191  -52.5195 C.3       23 UNK        -0.0205 
    127 H127        7.8850  -12.5662  -44.7516 H         1 UNK         0.0600 
    128 H128        8.0328  -13.4916  -46.2486 H         1 UNK         0.0600 
    129 H129        8.2067  -14.3029  -44.6897 H         1 UNK         0.0600 
    130 H130        6.0400  -13.8214  -47.2025 H         1 UNK         0.3000 
    131 H131        3.7959  -14.8899  -45.7415 H         1 UNK         0.0600 
    132 H132        4.2022  -15.7810  -47.8977 H         1 UNK         0.0800 
    133 H133        2.6783  -14.9623  -47.9638 H         1 UNK         0.0800 
    134 H134        6.0116  -15.4667  -49.7607 H         1 UNK         0.0800 
    135 H135        5.5225  -14.6344  -51.2169 H         1 UNK         0.0800 
    136 H136        2.8447  -14.9608  -51.7622 H         1 UNK         0.1150 
    137 H137        1.7588  -19.0965  -51.5798 H         1 UNK         0.1150 
    138 H138        5.3226  -17.7342  -49.6243 H         1 UNK         0.1150 
    139 H139        3.5749  -20.7151  -50.8243 H         1 UNK         0.0800 
    140 H140        4.9097  -20.1199  -49.8754 H         1 UNK         0.0800 
    141 H141        1.2733  -20.8058  -50.1767 H         1 UNK         0.0800 
    142 H142        0.7092  -19.6036  -49.0443 H         1 UNK         0.0800 
    143 H143        1.0939  -22.5692  -48.3936 H         1 UNK         0.0600 
    144 H144        0.4393  -20.4190  -46.6470 H         1 UNK         0.3000 
    145 H145       -1.2939  -22.4235  -44.2043 H         1 UNK         0.0600 
    146 H146        0.3908  -21.3175  -42.7485 H         1 UNK         0.0600 
    147 H147        1.1052  -22.6426  -43.6541 H         1 UNK         0.0600 
    148 H148        1.4082  -20.9853  -44.1489 H         1 UNK         0.0600 
    149 H149       -0.7593  -19.6348  -44.2758 H         1 UNK         0.3000 
    150 H150       -3.6647  -18.6884  -46.1717 H         1 UNK         0.0600 
    151 H151       -4.4955  -18.9129  -43.8558 H         1 UNK         0.0600 
    152 H152       -3.9831  -17.2568  -44.1483 H         1 UNK         0.0600 
    153 H153       -2.9632  -18.3461  -43.2102 H         1 UNK         0.0600 
    154 H154       -1.6334  -17.0935  -45.0052 H         1 UNK         0.3000 
    155 H155        0.7285  -17.2584  -47.6950 H         1 UNK         0.0600 
    156 H156       -0.8939  -15.5000  -48.3122 H         1 UNK         0.0600 
    157 H157        0.4403  -14.7871  -47.4247 H         1 UNK         0.0600 
    158 H158       -1.1075  -15.0433  -46.6301 H         1 UNK         0.0600 
    159 H159        0.6860  -15.9875  -45.0992 H         1 UNK         0.3000 
    160 H160        2.1533  -18.7276  -43.3266 H         1 UNK         0.0600 
    161 H161        3.4077  -16.0148  -43.9104 H         1 UNK         0.0600 
    162 H162        4.0910  -17.5335  -44.4857 H         1 UNK         0.0600 
    163 H163        3.9370  -17.2290  -42.7619 H         1 UNK         0.0600 
    164 H164        1.4045  -15.9881  -42.6798 H         1 UNK         0.3000 
    165 H165       -1.9119  -16.8213  -41.6538 H         1 UNK         0.0600 
    166 H166       -1.1927  -15.9506  -39.4462 H         1 UNK         0.0600 
    167 H167       -0.5895  -17.5845  -39.6719 H         1 UNK         0.0600 
    168 H168        0.5016  -16.2167  -39.8607 H         1 UNK         0.0600 
    169 H169       -0.3920  -14.4418  -41.3409 H         1 UNK         0.3000 
    170 H170       -0.2871  -13.2425  -44.5766 H         1 UNK         0.0600 
    171 H171       -2.7259  -12.7620  -44.2983 H         1 UNK         0.0600 
    172 H172       -2.4435  -12.2581  -42.6355 H         1 UNK         0.0600 
    173 H173       -1.7495  -11.3393  -43.9720 H         1 UNK         0.0600 
    174 H174        0.0144  -11.6769  -42.3240 H         1 UNK         0.3000 
    175 H175        1.7454  -11.8588  -40.6445 H         1 UNK         0.0600 
    176 H176        4.1640  -12.2140  -40.2851 H         1 UNK         0.0600 
    177 H177        3.3519  -13.7610  -40.4645 H         1 UNK         0.0600 
    178 H178        4.2927  -13.1077  -41.7994 H         1 UNK         0.0600 
    179 H179        3.7288  -10.8541  -42.4892 H         1 UNK         0.3000 
    180 H180        1.9312   -8.5206  -44.1619 H         1 UNK         0.0600 
    181 H181        3.2610   -7.5240  -41.5909 H         1 UNK         0.0600 
    182 H182        1.6261   -7.1441  -42.1180 H         1 UNK         0.0600 
    183 H183        2.9970   -6.5732  -43.0530 H         1 UNK         0.0600 
    184 H184        4.6769   -8.5236  -43.2702 H         1 UNK         0.3000 
    185 H185        2.3630  -10.6769  -45.1055 H         1 UNK         0.0600 
    186 H186        2.4511   -8.6791  -46.6234 H         1 UNK         0.0600 
    187 H187        3.7646   -9.4162  -47.5338 H         1 UNK         0.0600 
    188 H188        2.1623  -10.1504  -47.5402 H         1 UNK         0.0600 
    189 H189        4.8537  -11.7164  -46.2104 H         1 UNK         0.3000 
    190 H190       -1.8266  -20.4698  -48.2388 H         1 UNK         0.3000 
    191 H191       -3.1893  -21.6457  -50.4337 H         1 UNK         0.0600 
    192 H192       -4.4089  -20.3604  -47.9350 H         1 UNK         0.0600 
    193 H193       -5.1955  -20.5926  -49.4902 H         1 UNK         0.0600 
    194 H194       -3.8438  -19.4797  -49.3504 H         1 UNK         0.0600 
    195 H195       -3.2336  -22.5061  -46.9284 H         1 UNK         0.3000 
    196 H196       -5.0408  -24.6648  -47.1047 H         1 UNK         0.0600 
    197 H197       -4.0833  -25.3447  -44.9137 H         1 UNK         0.0600 
    198 H198       -4.3703  -23.6116  -44.9638 H         1 UNK         0.0600 
    199 H199       -2.7337  -24.2404  -45.1375 H         1 UNK         0.0600 
    200 H200       -1.4678  -24.6281  -47.4619 H         1 UNK         0.3000 
    201 H201       -1.1166  -27.4097  -47.9266 H         1 UNK         0.0600 
    202 H202        0.7432  -25.8782  -47.3284 H         1 UNK         0.0600 
    203 H203        0.5774  -25.0360  -48.8669 H         1 UNK         0.0600 
    204 H204        1.0948  -26.7159  -48.8327 H         1 UNK         0.0600 
    205 H205       -2.0245  -24.7671  -50.1189 H         1 UNK         0.3000 
    206 H206       -1.9759  -26.3628  -52.5470 H         1 UNK         0.0600 
    207 H207       -1.5941  -23.8998  -52.5696 H         1 UNK         0.0600 
    208 H208       -2.9672  -24.3598  -53.5649 H         1 UNK         0.0600 
    209 H209       -3.2339  -23.6284  -51.9892 H         1 UNK         0.0600 
    210 H210       -3.1595  -28.0202  -51.1070 H         1 UNK         0.3000 
    211 H211       -4.8580  -29.4109  -50.7989 H         1 UNK         0.0600 
    212 H212       -5.8411  -28.2211  -53.4406 H         1 UNK         0.0600 
    213 H213       -6.3325  -29.7731  -52.7744 H         1 UNK         0.0600 
    214 H214       -4.6652  -29.5174  -53.2588 H         1 UNK         0.0600 
    215 H215       -5.1889  -27.3747  -49.1013 H         1 UNK         0.3000 
    216 H216       -6.5651  -26.4487  -47.6537 H         1 UNK         0.0600 
    217 H217       -8.7363  -27.5043  -47.1754 H         1 UNK         0.0600 
    218 H218       -7.5257  -28.7374  -47.4874 H         1 UNK         0.0600 
    219 H219       -8.7220  -28.3412  -48.7203 H         1 UNK         0.0600 
    220 H220       -6.0734  -24.7955  -49.5953 H         1 UNK         0.3000 
    221 H221       -6.5910  -22.9012  -50.5312 H         1 UNK         0.0600 
    222 H222       -9.2436  -22.9334  -49.0148 H         1 UNK         0.0600 
    223 H223       -7.7048  -22.3564  -48.3719 H         1 UNK         0.0600 
    224 H224       -8.4530  -21.5370  -49.7319 H         1 UNK         0.0600 
    225 H225       -6.8656  -25.0871  -52.1266 H         1 UNK         0.3000 
    226 H226       -9.1883  -24.7418  -53.8790 H         1 UNK         0.0600 
    227 H227       -7.9541  -26.9242  -53.7235 H         1 UNK         0.0600 
    228 H228       -7.9717  -26.2835  -55.3603 H         1 UNK         0.0600 
    229 H229       -6.5147  -26.1461  -54.3878 H         1 UNK         0.0600 
    230 H230       -5.9864  -23.4088  -53.4428 H         1 UNK         0.3000 
    231 H231       -6.4607  -21.3730  -55.5737 H         1 UNK         0.0600 
    232 H232       -4.3195  -22.7077  -55.9216 H         1 UNK         0.0600 
    233 H233       -3.7819  -22.2111  -54.3172 H         1 UNK         0.0600 
    234 H234       -4.0219  -21.0110  -55.5789 H         1 UNK         0.0600 
    235 H235       -6.2080  -19.2154  -54.8343 H         1 UNK         0.3000 
    236 H236       -6.9717  -18.7145  -52.1126 H         1 UNK         0.0600 
    237 H237       -6.9474  -16.3371  -52.8700 H         1 UNK         0.0600 
    238 H238       -6.1416  -16.8031  -54.3628 H         1 UNK         0.0600 
    239 H239       -7.7836  -17.3561  -54.0291 H         1 UNK         0.0600 
    240 H240       -3.8845  -19.1305  -53.5163 H         1 UNK         0.3000 
    241 H241       -2.5168  -18.5037  -51.0882 H         1 UNK         0.0600 
    242 H242       -2.0816  -19.2745  -54.6604 H         1 UNK         0.3800 
    243 H243       -0.9332  -20.5299  -54.3128 H         1 UNK         0.3800 
    244 H244       -1.6385  -16.8066  -53.4902 H         1 UNK         0.0800 
    245 H245       -2.6769  -16.1962  -52.2390 H         1 UNK         0.0800 
    246 H246        0.9973  -15.8230  -53.1330 H         1 UNK         0.0800 
    247 H247        0.6960  -17.5444  -53.2053 H         1 UNK         0.0800 
@<TRIPOS>BOND
     1    1    2 1    
     2    1  127 1    
     3    1  128 1    
     4    1  129 1    
     5    2    3 2    
     6    2    4 am   BACKBONE|DICT|INTERRES
     7    4    5 1    
     8    4  130 1    
     9    5    6 1    
    10    5   65 1    
    11    5  131 1    
    12    6    7 1    
    13    6  132 1    
    14    6  133 1    
    15    7    8 1    
    16    8    9 1    
    17    8  134 1    
    18    8  135 1    
    19    9   10 ar   
    20    9   14 ar   
    21   10   11 ar   
    22   10  136 1    
    23   11   12 ar   
    24   11  126 1    
    25   12   13 ar   
    26   12  137 1    
    27   13   14 ar   
    28   13   15 1    
    29   14  138 1    
    30   15   16 1    
    31   15  139 1    
    32   15  140 1    
    33   16   17 1    
    34   17   18 1    
    35   17  141 1    
    36   17  142 1    
    37   18   19 1    
    38   18   67 1    
    39   18  143 1    
    40   19   20 am   BACKBONE|DICT|INTERRES
    41   19  144 1    
    42   20   21 2    
    43   20   22 1    
    44   22   23 1    
    45   22   24 1    
    46   22  145 1    
    47   23  146 1    
    48   23  147 1    
    49   23  148 1    
    50   24   25 am   BACKBONE|DICT|INTERRES
    51   24  149 1    
    52   25   26 2    
    53   25   27 1    
    54   27   28 1    
    55   27   29 1    
    56   27  150 1    
    57   28  151 1    
    58   28  152 1    
    59   28  153 1    
    60   29   30 am   BACKBONE|DICT|INTERRES
    61   29  154 1    
    62   30   31 2    
    63   30   32 1    
    64   32   33 1    
    65   32   34 1    
    66   32  155 1    
    67   33  156 1    
    68   33  157 1    
    69   33  158 1    
    70   34   35 am   BACKBONE|DICT|INTERRES
    71   34  159 1    
    72   35   36 2    
    73   35   37 1    
    74   37   38 1    
    75   37   39 1    
    76   37  160 1    
    77   38  161 1    
    78   38  162 1    
    79   38  163 1    
    80   39   40 am   BACKBONE|DICT|INTERRES
    81   39  164 1    
    82   40   41 2    
    83   40   42 1    
    84   42   43 1    
    85   42   44 1    
    86   42  165 1    
    87   43  166 1    
    88   43  167 1    
    89   43  168 1    
    90   44   45 am   BACKBONE|DICT|INTERRES
    91   44  169 1    
    92   45   46 2    
    93   45   47 1    
    94   47   48 1    
    95   47   49 1    
    96   47  170 1    
    97   48  171 1    
    98   48  172 1    
    99   48  173 1    
   100   49   50 am   BACKBONE|DICT|INTERRES
   101   49  174 1    
   102   50   51 2    
   103   50   52 1    
   104   52   53 1    
   105   52   54 1    
   106   52  175 1    
   107   53  176 1    
   108   53  177 1    
   109   53  178 1    
   110   54   55 am   BACKBONE|DICT|INTERRES
   111   54  179 1    
   112   55   56 2    
   113   55   57 1    
   114   57   58 1    
   115   57   59 1    
   116   57  180 1    
   117   58  181 1    
   118   58  182 1    
   119   58  183 1    
   120   59   60 am   BACKBONE|DICT|INTERRES
   121   59  184 1    
   122   60   61 2    
   123   60   62 1    
   124   62   63 1    
   125   62   64 1    
   126   62  185 1    
   127   63  186 1    
   128   63  187 1    
   129   63  188 1    
   130   64   65 am   BACKBONE|DICT|INTERRES
   131   64  189 1    
   132   65   66 2    
   133   67   68 2    
   134   67   69 am   BACKBONE|DICT|INTERRES
   135   69   70 1    
   136   69  190 1    
   137   70   71 1    
   138   70   72 1    
   139   70  191 1    
   140   71  192 1    
   141   71  193 1    
   142   71  194 1    
   143   72   73 2    
   144   72   74 am   BACKBONE|DICT|INTERRES
   145   74   75 1    
   146   74  195 1    
   147   75   76 1    
   148   75   77 1    
   149   75  196 1    
   150   76  197 1    
   151   76  198 1    
   152   76  199 1    
   153   77   78 2    
   154   77   79 am   BACKBONE|DICT|INTERRES
   155   79   80 1    
   156   79  200 1    
   157   80   81 1    
   158   80   82 1    
   159   80  201 1    
   160   81  202 1    
   161   81  203 1    
   162   81  204 1    
   163   82   83 2    
   164   82   84 am   BACKBONE|DICT|INTERRES
   165   84   85 1    
   166   84  205 1    
   167   85   86 1    
   168   85   87 1    
   169   85  206 1    
   170   86  207 1    
   171   86  208 1    
   172   86  209 1    
   173   87   88 2    
   174   87   89 am   BACKBONE|DICT|INTERRES
   175   89   90 1    
   176   89  210 1    
   177   90   91 1    
   178   90   92 1    
   179   90  211 1    
   180   91  212 1    
   181   91  213 1    
   182   91  214 1    
   183   92   93 2    
   184   92   94 am   BACKBONE|DICT|INTERRES
   185   94   95 1    
   186   94  215 1    
   187   95   96 1    
   188   95   97 1    
   189   95  216 1    
   190   96  217 1    
   191   96  218 1    
   192   96  219 1    
   193   97   98 2    
   194   97   99 am   BACKBONE|DICT|INTERRES
   195   99  100 1    
   196   99  220 1    
   197  100  101 1    
   198  100  102 1    
   199  100  221 1    
   200  101  222 1    
   201  101  223 1    
   202  101  224 1    
   203  102  103 2    
   204  102  104 am   BACKBONE|DICT|INTERRES
   205  104  105 1    
   206  104  225 1    
   207  105  106 1    
   208  105  107 1    
   209  105  226 1    
   210  106  227 1    
   211  106  228 1    
   212  106  229 1    
   213  107  108 2    
   214  107  109 am   BACKBONE|DICT|INTERRES
   215  109  110 1    
   216  109  230 1    
   217  110  111 1    
   218  110  112 1    
   219  110  231 1    
   220  111  232 1    
   221  111  233 1    
   222  111  234 1    
   223  112  113 2    
   224  112  114 am   BACKBONE|DICT|INTERRES
   225  114  115 1    
   226  114  235 1    
   227  115  116 1    
   228  115  117 1    
   229  115  236 1    
   230  116  237 1    
   231  116  238 1    
   232  116  239 1    
   233  117  118 2    
   234  117  119 am   BACKBONE|DICT|INTERRES
   235  119  120 1    
   236  119  240 1    
   237  120  121 1    
   238  120  124 1    
   239  120  241 1    
   240  121  122 am   BACKBONE|DICT|INTERRES
   241  121  123 2    
   242  122  242 1    
   243  122  243 1    
   244  124  125 1    
   245  124  244 1    
   246  124  245 1    
   247  125  126 1    
   248  126  246 1    
   249  126  247 1    
@<TRIPOS>SUBSTRUCTURE
     1 UNK         1 GROUP             0       ****    0 ROOT    
