@<TRIPOS>MOLECULE
3R540
247   249    1
SMALL
USER_CHARGES


@<TRIPOS>ATOM
      1 CA          1.3463  -11.0199  -44.6042 C.3       0 UNK        -0.1800 
      2 C           1.5908  -11.8927  -45.8270 C.2       0 UNK         0.5000 
      3 O           2.0190  -11.3863  -46.8646 O.2       0 UNK        -0.5000 
      4 N           1.3288  -13.1988  -45.6996 N.am      1 UNK        -0.5000 
      5 CA          1.4248  -14.2160  -46.7539 C.3       1 UNK         0.1400 
      6 C6          2.8717  -14.3779  -47.3231 C.3       23 UNK        -0.0398 
      7 S7          3.4261  -16.1184  -47.2898 S.3       23 UNK        -0.2404 
      8 C8          4.0895  -16.4249  -48.9574 C.3       23 UNK        -0.0205 
      9 C9          3.5130  -17.7041  -49.5486 C.ar      23 UNK        -0.0193 
     10 C10         2.2982  -17.6572  -50.2317 C.ar      23 UNK        -0.1150 
     11 C11         1.7377  -18.8096  -50.7855 C.ar      23 UNK        -0.0193 
     12 C12         2.4188  -20.0248  -50.6693 C.ar      23 UNK        -0.1150 
     13 C13         3.6497  -20.0875  -50.0072 C.ar      23 UNK        -0.0193 
     14 C14         4.1860  -18.9259  -49.4366 C.ar      23 UNK        -0.1150 
     15 C15         4.4257  -21.3975  -49.9602 C.3       23 UNK        -0.0205 
     16 S16         4.2275  -22.2847  -48.3844 S.3       23 UNK        -0.2404 
     17 C17         2.5267  -22.9343  -48.5140 C.3       23 UNK        -0.0398 
     18 CA          2.2402  -24.0831  -47.5117 C.3       11 UNK         0.1400 
     19 N           2.4894  -23.6852  -46.1189 N.am      11 UNK        -0.5000 
     20 C           2.6067  -24.5255  -45.0804 C.2       10 UNK         0.5000 
     21 O           2.5871  -25.7519  -45.1873 O.2       10 UNK        -0.5000 
     22 CA          2.7128  -23.8873  -43.6832 C.3       10 UNK         0.1400 
     23 CB          4.1772  -23.5963  -43.3199 C.3       10 UNK        -0.1800 
     24 N           1.9267  -22.6549  -43.5916 N.am      10 UNK        -0.5000 
     25 C           0.5945  -22.6146  -43.4430 C.2       9 UNK         0.5000 
     26 O          -0.1061  -23.6164  -43.3018 O.2       9 UNK        -0.5000 
     27 CA         -0.0769  -21.2293  -43.5107 C.3       9 UNK         0.1400 
     28 CB         -0.1212  -20.5688  -42.1252 C.3       9 UNK        -0.1800 
     29 N           0.5864  -20.3348  -44.4594 N.am      9 UNK        -0.5000 
     30 C           0.5264  -20.4840  -45.7910 C.2       8 UNK         0.5000 
     31 O          -0.1378  -21.3603  -46.3424 O.2       8 UNK        -0.5000 
     32 CA          1.3572  -19.5172  -46.6555 C.3       8 UNK         0.1400 
     33 CB          0.4899  -18.3208  -47.0680 C.3       8 UNK        -0.1800 
     34 N           2.5771  -19.0296  -46.0109 N.am      8 UNK        -0.5000 
     35 C           3.5485  -19.7822  -45.4738 C.2       7 UNK         0.5000 
     36 O           3.5319  -21.0111  -45.4603 O.2       7 UNK        -0.5000 
     37 CA          4.6789  -19.0346  -44.7406 C.3       7 UNK         0.1400 
     38 CB          5.8404  -18.7353  -45.6997 C.3       7 UNK        -0.1800 
     39 N           4.2313  -17.7920  -44.0986 N.am      7 UNK        -0.5000 
     40 C           3.2668  -17.7174  -43.1687 C.2       6 UNK         0.5000 
     41 O           2.6748  -18.7091  -42.7321 O.2       6 UNK        -0.5000 
     42 CA          2.8181  -16.3256  -42.6857 C.3       6 UNK         0.1400 
     43 CB          3.3812  -15.1680  -43.5435 C.3       6 UNK        -0.1800 
     44 N           1.3551  -16.4070  -42.6564 N.am      6 UNK        -0.5000 
     45 C           0.4035  -15.4822  -42.8177 C.2       5 UNK         0.5000 
     46 O           0.6032  -14.2854  -43.0403 O.2       5 UNK        -0.5000 
     47 CA         -1.0395  -16.0109  -42.6860 C.3       5 UNK         0.1400 
     48 CB         -1.4501  -16.1040  -41.2085 C.3       5 UNK        -0.1800 
     49 N          -2.0052  -15.1700  -43.3912 N.am      5 UNK        -0.5000 
     50 C          -2.0767  -15.0623  -44.7223 C.2       4 UNK         0.5000 
     51 O          -1.3845  -15.7274  -45.4950 O.2       4 UNK        -0.5000 
     52 CA         -3.0775  -14.0262  -45.2606 C.3       4 UNK         0.1400 
     53 CB         -2.5837  -12.5948  -44.9878 C.3       4 UNK        -0.1800 
     54 N          -3.2729  -14.1946  -46.6990 N.am      4 UNK        -0.5000 
     55 C          -4.2035  -14.9854  -47.2504 C.2       3 UNK         0.5000 
     56 O          -5.0445  -15.5997  -46.5939 O.2       3 UNK        -0.5000 
     57 CA         -4.2264  -15.0976  -48.7895 C.3       3 UNK         0.1400 
     58 CB         -5.3268  -14.1948  -49.3696 C.3       3 UNK        -0.1800 
     59 N          -2.9497  -14.7438  -49.4122 N.am      3 UNK        -0.5000 
     60 C          -1.8737  -15.5402  -49.4185 C.2       2 UNK         0.5000 
     61 O          -1.8702  -16.6847  -48.9734 O.2       2 UNK        -0.5000 
     62 CA         -0.5613  -14.9728  -49.9901 C.3       2 UNK         0.1400 
     63 CB         -0.7180  -13.6671  -50.8021 C.3       2 UNK        -0.1800 
     64 N           0.4350  -14.8305  -48.9216 N.am      2 UNK        -0.5000 
     65 C           0.3332  -14.0450  -47.8401 C.2       1 UNK         0.5000 
     66 O          -0.5965  -13.2501  -47.6730 O.2       1 UNK        -0.5000 
     67 C           0.8075  -24.6279  -47.7295 C.2       11 UNK         0.5000 
     68 O           0.5564  -25.2384  -48.7688 O.2       11 UNK        -0.5000 
     69 N          -0.0961  -24.3863  -46.7645 N.am      12 UNK        -0.5000 
     70 CA         -1.5314  -24.6886  -46.7762 C.3       12 UNK         0.1400 
     71 CB         -1.7838  -26.2103  -46.8012 C.3       12 UNK        -0.1800 
     72 C          -2.2619  -23.9277  -47.9000 C.2       12 UNK         0.5000 
     73 O          -3.0493  -24.5139  -48.6456 O.2       12 UNK        -0.5000 
     74 N          -1.9507  -22.6314  -48.0119 N.am      13 UNK        -0.5000 
     75 CA         -2.4065  -21.7553  -49.0851 C.3       13 UNK         0.1400 
     76 CB         -1.2782  -21.6245  -50.1221 C.3       13 UNK        -0.1800 
     77 C          -2.8898  -20.3811  -48.5887 C.2       13 UNK         0.5000 
     78 O          -3.1701  -19.5222  -49.4235 O.2       13 UNK        -0.5000 
     79 N          -2.9823  -20.1913  -47.2645 N.am      14 UNK        -0.5000 
     80 CA         -3.4940  -18.9799  -46.6207 C.3       14 UNK         0.1400 
     81 CB         -2.8676  -18.8579  -45.2147 C.3       14 UNK        -0.1800 
     82 C          -5.0389  -18.9784  -46.6164 C.2       14 UNK         0.5000 
     83 O          -5.6562  -18.9274  -47.6812 O.2       14 UNK        -0.5000 
     84 N          -5.6471  -19.0318  -45.4241 N.am      15 UNK        -0.5000 
     85 CA         -7.0863  -19.1918  -45.2420 C.3       15 UNK         0.1400 
     86 CB         -7.4725  -18.7340  -43.8266 C.3       15 UNK        -0.1800 
     87 C          -7.4712  -20.6620  -45.4762 C.2       15 UNK         0.5000 
     88 O          -6.9098  -21.5420  -44.8181 O.2       15 UNK        -0.5000 
     89 N          -8.4112  -20.8882  -46.4043 N.am      16 UNK        -0.5000 
     90 CA         -8.8659  -22.1930  -46.9021 C.3       16 UNK         0.1400 
     91 CB         -9.5486  -23.0019  -45.7762 C.3       16 UNK        -0.1800 
     92 C          -7.7505  -22.9858  -47.6241 C.2       16 UNK         0.5000 
     93 O          -6.6935  -22.4295  -47.9314 O.2       16 UNK        -0.5000 
     94 N          -8.0276  -24.2644  -47.9226 N.am      17 UNK        -0.5000 
     95 CA         -7.1715  -25.1962  -48.6656 C.3       17 UNK         0.1400 
     96 CB         -5.9502  -25.6028  -47.8145 C.3       17 UNK        -0.1800 
     97 C          -6.8412  -24.6556  -50.0749 C.2       17 UNK         0.5000 
     98 O          -7.7745  -24.3336  -50.8138 O.2       17 UNK        -0.5000 
     99 N          -5.5565  -24.5274  -50.4328 N.am      18 UNK        -0.5000 
    100 CA        -5.0986  -23.9821  -51.7154 C.3       18 UNK         0.1400 
    101 CB        -3.7425  -24.6223  -52.0646 C.3       18 UNK        -0.1800 
    102 C         -5.0382  -22.4386  -51.6838 C.2       18 UNK         0.5000 
    103 O         -4.0027  -21.8603  -52.0156 O.2       18 UNK        -0.5000 
    104 N         -6.1328  -21.8096  -51.2332 N.am      19 UNK        -0.5000 
    105 CA        -6.2737  -20.3901  -50.8988 C.3       19 UNK         0.1400 
    106 CB        -7.7451  -20.1025  -50.5556 C.3       19 UNK        -0.1800 
    107 C         -5.7593  -19.4333  -51.9920 C.2       19 UNK         0.5000 
    108 O         -6.4242  -19.2582  -53.0154 O.2       19 UNK        -0.5000 
    109 N         -4.5724  -18.8608  -51.7503 N.am      20 UNK        -0.5000 
    110 CA        -3.8194  -17.9499  -52.6139 C.3       20 UNK         0.1400 
    111 CB        -4.5346  -16.5886  -52.7175 C.3       20 UNK        -0.1800 
    112 C         -3.4499  -18.5426  -53.9925 C.2       20 UNK         0.5000 
    113 O         -3.2872  -17.7894  -54.9553 O.2       20 UNK        -0.5000 
    114 N         -3.2753  -19.8730  -54.0705 N.am      21 UNK        -0.5000 
    115 CA        -2.8998  -20.6066  -55.2897 C.3       21 UNK         0.1400 
    116 CB        -2.9673  -22.1162  -55.0180 C.3       21 UNK        -0.1800 
    117 C         -1.5181  -20.2249  -55.8627 C.2       21 UNK         0.5000 
    118 O         -1.2511  -20.4831  -57.0370 O.2       21 UNK        -0.5000 
    119 N         -0.6837  -19.5928  -55.0308 N.am      22 UNK        -0.5000 
    120 CA         0.5553  -18.8993  -55.4056 C.3       22 UNK         0.1400 
    121 C          0.3627  -17.6587  -56.3324 C.2       22 UNK         0.5000 
    122 N         -0.8333  -17.0943  -56.4638 N.am      22 UNK        -0.7600 
    123 O          1.3208  -17.2068  -56.9537 O.2       22 UNK        -0.5000 
    124 C124        1.3861  -18.5362  -54.1468 C.3       23 UNK        -0.0398 
    125 S125        0.4352  -17.5766  -52.9095 S.3       23 UNK        -0.2404 
    126 C126        0.3968  -18.7317  -51.5020 C.3       23 UNK        -0.0205 
    127 H127        0.6116  -10.2487  -44.8354 H         1 UNK         0.0600 
    128 H128        2.2720  -10.5323  -44.2988 H         1 UNK         0.0600 
    129 H129        0.9735  -11.6009  -43.7601 H         1 UNK         0.0600 
    130 H130        0.9828  -13.5402  -44.8064 H         1 UNK         0.3000 
    131 H131        1.1505  -15.1368  -46.2374 H         1 UNK         0.0600 
    132 H132        2.9723  -13.9458  -48.3198 H         1 UNK         0.0800 
    133 H133        3.5868  -13.8280  -46.7098 H         1 UNK         0.0800 
    134 H134        3.8779  -15.5866  -49.6219 H         1 UNK         0.0800 
    135 H135        5.1765  -16.4953  -48.8971 H         1 UNK         0.0800 
    136 H136        1.7896  -16.7147  -50.3433 H         1 UNK         0.1150 
    137 H137        2.0003  -20.9195  -51.1083 H         1 UNK         0.1150 
    138 H138        5.1346  -18.9715  -48.9206 H         1 UNK         0.1150 
    139 H139        4.1343  -22.0482  -50.7860 H         1 UNK         0.0800 
    140 H140        5.4862  -21.1878  -50.1062 H         1 UNK         0.0800 
    141 H141        1.8232  -22.1155  -48.3705 H         1 UNK         0.0800 
    142 H142        2.3777  -23.2850  -49.5369 H         1 UNK         0.0800 
    143 H143        2.9235  -24.9028  -47.7438 H         1 UNK         0.0600 
    144 H144        2.6272  -22.6930  -45.9505 H         1 UNK         0.3000 
    145 H145        2.3237  -24.6044  -42.9571 H         1 UNK         0.0600 
    146 H146        4.2573  -23.1588  -42.3248 H         1 UNK         0.0600 
    147 H147        4.6450  -22.9107  -44.0266 H         1 UNK         0.0600 
    148 H148        4.7657  -24.5145  -43.3200 H         1 UNK         0.0600 
    149 H149        2.4228  -21.7939  -43.7841 H         1 UNK         0.3000 
    150 H150       -1.1064  -21.3761  -43.8445 H         1 UNK         0.0600 
    151 H151       -0.6726  -21.1889  -41.4175 H         1 UNK         0.0600 
    152 H152       -0.6190  -19.5998  -42.1646 H         1 UNK         0.0600 
    153 H153        0.8786  -20.4188  -41.7168 H         1 UNK         0.0600 
    154 H154        1.2010  -19.6310  -44.0701 H         1 UNK         0.3000 
    155 H155        1.6565  -20.0444  -47.5607 H         1 UNK         0.0600 
    156 H156       -0.4427  -18.6482  -47.5290 H         1 UNK         0.0600 
    157 H157        0.9945  -17.6921  -47.7973 H         1 UNK         0.0600 
    158 H158        0.2342  -17.6970  -46.2120 H         1 UNK         0.0600 
    159 H159        2.7019  -18.0272  -45.9973 H         1 UNK         0.3000 
    160 H160        5.0487  -19.6965  -43.9548 H         1 UNK         0.0600 
    161 H161        5.5444  -18.0515  -46.4948 H         1 UNK         0.0600 
    162 H162        6.1985  -19.6502  -46.1739 H         1 UNK         0.0600 
    163 H163        6.6844  -18.2915  -45.1716 H         1 UNK         0.0600 
    164 H164        4.6528  -16.9365  -44.4299 H         1 UNK         0.3000 
    165 H165        3.1699  -16.2074  -41.6600 H         1 UNK         0.0600 
    166 H166        3.1278  -14.1967  -43.1203 H         1 UNK         0.0600 
    167 H167        4.4701  -15.1946  -43.5925 H         1 UNK         0.0600 
    168 H168        2.9974  -15.2028  -44.5594 H         1 UNK         0.0600 
    169 H169        1.0576  -17.3593  -42.4826 H         1 UNK         0.3000 
    170 H170       -1.0823  -17.0119  -43.1217 H         1 UNK         0.0600 
    171 H171       -0.7766  -16.7581  -40.6532 H         1 UNK         0.0600 
    172 H172       -1.4315  -15.1269  -40.7240 H         1 UNK         0.0600 
    173 H173       -2.4553  -16.5127  -41.1033 H         1 UNK         0.0600 
    174 H174       -2.5750  -14.5662  -42.8175 H         1 UNK         0.3000 
    175 H175       -4.0280  -14.1647  -44.7411 H         1 UNK         0.0600 
    176 H176       -1.5954  -12.4174  -45.4112 H         1 UNK         0.0600 
    177 H177       -3.2652  -11.8553  -45.4085 H         1 UNK         0.0600 
    178 H178       -2.5156  -12.3987  -43.9173 H         1 UNK         0.0600 
    179 H179       -2.5429  -13.8061  -47.2865 H         1 UNK         0.3000 
    180 H180       -4.4645  -16.1339  -49.0420 H         1 UNK         0.0600 
    181 H181       -5.3846  -14.2803  -50.4543 H         1 UNK         0.0600 
    182 H182       -5.1551  -13.1456  -49.1259 H         1 UNK         0.0600 
    183 H183       -6.3046  -14.4682  -48.9707 H         1 UNK         0.0600 
    184 H184       -2.8627  -13.8060  -49.7757 H         1 UNK         0.3000 
    185 H185       -0.1875  -15.7297  -50.6771 H         1 UNK         0.0600 
    186 H186        0.2369  -13.3639  -51.2315 H         1 UNK         0.0600 
    187 H187       -1.4111  -13.8066  -51.6328 H         1 UNK         0.0600 
    188 H188       -1.0848  -12.8353  -50.2009 H         1 UNK         0.0600 
    189 H189        1.1938  -15.4950  -48.9449 H         1 UNK         0.3000 
    190 H190        0.2214  -23.8474  -45.9710 H         1 UNK         0.3000 
    191 H191       -1.9317  -24.3053  -45.8365 H         1 UNK         0.0600 
    192 H192       -2.8459  -26.4292  -46.6846 H         1 UNK         0.0600 
    193 H193       -1.2573  -26.7098  -45.9879 H         1 UNK         0.0600 
    194 H194       -1.4603  -26.6623  -47.7390 H         1 UNK         0.0600 
    195 H195       -1.2635  -22.2309  -47.3729 H         1 UNK         0.3000 
    196 H196       -3.2727  -22.2060  -49.5642 H         1 UNK         0.0600 
    197 H197       -1.6094  -21.0441  -50.9831 H         1 UNK         0.0600 
    198 H198       -0.9687  -22.6013  -50.4941 H         1 UNK         0.0600 
    199 H199       -0.4031  -21.1309  -49.6980 H         1 UNK         0.0600 
    200 H200       -2.7526  -20.9635  -46.6580 H         1 UNK         0.3000 
    201 H201       -3.1796  -18.1076  -47.1960 H         1 UNK         0.0600 
    202 H202       -3.0655  -19.7341  -44.5963 H         1 UNK         0.0600 
    203 H203       -3.2427  -17.9786  -44.6895 H         1 UNK         0.0600 
    204 H204       -1.7882  -18.7372  -45.2801 H         1 UNK         0.0600 
    205 H205       -5.0806  -19.1046  -44.5928 H         1 UNK         0.3000 
    206 H206       -7.6100  -18.5558  -45.9593 H         1 UNK         0.0600 
    207 H207       -7.2160  -17.6863  -43.6682 H         1 UNK         0.0600 
    208 H208       -8.5465  -18.8343  -43.6656 H         1 UNK         0.0600 
    209 H209       -6.9691  -19.3227  -43.0586 H         1 UNK         0.0600 
    210 H210       -8.7769  -20.0913  -46.9056 H         1 UNK         0.3000 
    211 H211       -9.6209  -21.9747  -47.6586 H         1 UNK         0.0600 
    212 H212       -8.8258  -23.3876  -45.0566 H         1 UNK         0.0600 
    213 H213      -10.0994  -23.8540  -46.1750 H         1 UNK         0.0600 
    214 H214      -10.2664  -22.3887  -45.2311 H         1 UNK         0.0600 
    215 H215       -8.9361  -24.6251  -47.6685 H         1 UNK         0.3000 
    216 H216       -7.7643  -26.0971  -48.8298 H         1 UNK         0.0600 
    217 H217       -6.2672  -26.1039  -46.9001 H         1 UNK         0.0600 
    218 H218       -5.3547  -24.7396  -47.5198 H         1 UNK         0.0600 
    219 H219       -5.3002  -26.2968  -48.3489 H         1 UNK         0.0600 
    220 H220       -4.8302  -24.7186  -49.7491 H         1 UNK         0.3000 
    221 H221       -5.8038  -24.2613  -52.5009 H         1 UNK         0.0600 
    222 H222       -3.4111  -24.3208  -53.0580 H         1 UNK         0.0600 
    223 H223       -2.9650  -24.3321  -51.3570 H         1 UNK         0.0600 
    224 H224       -3.8070  -25.7103  -52.0630 H         1 UNK         0.0600 
    225 H225       -6.9238  -22.3963  -50.9989 H         1 UNK         0.3000 
    226 H226       -5.6905  -20.2245  -49.9928 H         1 UNK         0.0600 
    227 H227       -8.0738  -20.6935  -49.7015 H         1 UNK         0.0600 
    228 H228       -7.8846  -19.0529  -50.2937 H         1 UNK         0.0600 
    229 H229       -8.4063  -20.3257  -51.3938 H         1 UNK         0.0600 
    230 H230       -4.0946  -19.1106  -50.8826 H         1 UNK         0.3000 
    231 H231       -2.8711  -17.7796  -52.1019 H         1 UNK         0.0600 
    232 H232       -3.9084  -15.8523  -53.2227 H         1 UNK         0.0600 
    233 H233       -4.7630  -16.1934  -51.7288 H         1 UNK         0.0600 
    234 H234       -5.4690  -16.6641  -53.2742 H         1 UNK         0.0600 
    235 H235       -3.4570  -20.4393  -53.2449 H         1 UNK         0.3000 
    236 H236       -3.6392  -20.3670  -56.0564 H         1 UNK         0.0600 
    237 H237       -2.2878  -22.4076  -54.2161 H         1 UNK         0.0600 
    238 H238       -3.9752  -22.4195  -54.7355 H         1 UNK         0.0600 
    239 H239       -2.6954  -22.6898  -55.9050 H         1 UNK         0.0600 
    240 H240       -1.0066  -19.4189  -54.0916 H         1 UNK         0.3000 
    241 H241        1.1458  -19.6087  -55.9881 H         1 UNK         0.0600 
    242 H242       -0.9374  -16.2975  -57.0712 H         1 UNK         0.3800 
    243 H243       -1.6372  -17.4323  -55.9436 H         1 UNK         0.3800 
    244 H244        2.2790  -17.9697  -54.4166 H         1 UNK         0.0800 
    245 H245        1.7574  -19.4523  -53.6861 H         1 UNK         0.0800 
    246 H246       -0.3651  -18.4075  -50.7908 H         1 UNK         0.0800 
    247 H247        0.0892  -19.7138  -51.8604 H         1 UNK         0.0800 
@<TRIPOS>BOND
     1    1    2 1    
     2    1  127 1    
     3    1  128 1    
     4    1  129 1    
     5    2    3 2    
     6    2    4 am   BACKBONE|DICT|INTERRES
     7    4    5 1    
     8    4  130 1    
     9    5    6 1    
    10    5   65 1    
    11    5  131 1    
    12    6    7 1    
    13    6  132 1    
    14    6  133 1    
    15    7    8 1    
    16    8    9 1    
    17    8  134 1    
    18    8  135 1    
    19    9   10 ar   
    20    9   14 ar   
    21   10   11 ar   
    22   10  136 1    
    23   11   12 ar   
    24   11  126 1    
    25   12   13 ar   
    26   12  137 1    
    27   13   14 ar   
    28   13   15 1    
    29   14  138 1    
    30   15   16 1    
    31   15  139 1    
    32   15  140 1    
    33   16   17 1    
    34   17   18 1    
    35   17  141 1    
    36   17  142 1    
    37   18   19 1    
    38   18   67 1    
    39   18  143 1    
    40   19   20 am   BACKBONE|DICT|INTERRES
    41   19  144 1    
    42   20   21 2    
    43   20   22 1    
    44   22   23 1    
    45   22   24 1    
    46   22  145 1    
    47   23  146 1    
    48   23  147 1    
    49   23  148 1    
    50   24   25 am   BACKBONE|DICT|INTERRES
    51   24  149 1    
    52   25   26 2    
    53   25   27 1    
    54   27   28 1    
    55   27   29 1    
    56   27  150 1    
    57   28  151 1    
    58   28  152 1    
    59   28  153 1    
    60   29   30 am   BACKBONE|DICT|INTERRES
    61   29  154 1    
    62   30   31 2    
    63   30   32 1    
    64   32   33 1    
    65   32   34 1    
    66   32  155 1    
    67   33  156 1    
    68   33  157 1    
    69   33  158 1    
    70   34   35 am   BACKBONE|DICT|INTERRES
    71   34  159 1    
    72   35   36 2    
    73   35   37 1    
    74   37   38 1    
    75   37   39 1    
    76   37  160 1    
    77   38  161 1    
    78   38  162 1    
    79   38  163 1    
    80   39   40 am   BACKBONE|DICT|INTERRES
    81   39  164 1    
    82   40   41 2    
    83   40   42 1    
    84   42   43 1    
    85   42   44 1    
    86   42  165 1    
    87   43  166 1    
    88   43  167 1    
    89   43  168 1    
    90   44   45 am   BACKBONE|DICT|INTERRES
    91   44  169 1    
    92   45   46 2    
    93   45   47 1    
    94   47   48 1    
    95   47   49 1    
    96   47  170 1    
    97   48  171 1    
    98   48  172 1    
    99   48  173 1    
   100   49   50 am   BACKBONE|DICT|INTERRES
   101   49  174 1    
   102   50   51 2    
   103   50   52 1    
   104   52   53 1    
   105   52   54 1    
   106   52  175 1    
   107   53  176 1    
   108   53  177 1    
   109   53  178 1    
   110   54   55 am   BACKBONE|DICT|INTERRES
   111   54  179 1    
   112   55   56 2    
   113   55   57 1    
   114   57   58 1    
   115   57   59 1    
   116   57  180 1    
   117   58  181 1    
   118   58  182 1    
   119   58  183 1    
   120   59   60 am   BACKBONE|DICT|INTERRES
   121   59  184 1    
   122   60   61 2    
   123   60   62 1    
   124   62   63 1    
   125   62   64 1    
   126   62  185 1    
   127   63  186 1    
   128   63  187 1    
   129   63  188 1    
   130   64   65 am   BACKBONE|DICT|INTERRES
   131   64  189 1    
   132   65   66 2    
   133   67   68 2    
   134   67   69 am   BACKBONE|DICT|INTERRES
   135   69   70 1    
   136   69  190 1    
   137   70   71 1    
   138   70   72 1    
   139   70  191 1    
   140   71  192 1    
   141   71  193 1    
   142   71  194 1    
   143   72   73 2    
   144   72   74 am   BACKBONE|DICT|INTERRES
   145   74   75 1    
   146   74  195 1    
   147   75   76 1    
   148   75   77 1    
   149   75  196 1    
   150   76  197 1    
   151   76  198 1    
   152   76  199 1    
   153   77   78 2    
   154   77   79 am   BACKBONE|DICT|INTERRES
   155   79   80 1    
   156   79  200 1    
   157   80   81 1    
   158   80   82 1    
   159   80  201 1    
   160   81  202 1    
   161   81  203 1    
   162   81  204 1    
   163   82   83 2    
   164   82   84 am   BACKBONE|DICT|INTERRES
   165   84   85 1    
   166   84  205 1    
   167   85   86 1    
   168   85   87 1    
   169   85  206 1    
   170   86  207 1    
   171   86  208 1    
   172   86  209 1    
   173   87   88 2    
   174   87   89 am   BACKBONE|DICT|INTERRES
   175   89   90 1    
   176   89  210 1    
   177   90   91 1    
   178   90   92 1    
   179   90  211 1    
   180   91  212 1    
   181   91  213 1    
   182   91  214 1    
   183   92   93 2    
   184   92   94 am   BACKBONE|DICT|INTERRES
   185   94   95 1    
   186   94  215 1    
   187   95   96 1    
   188   95   97 1    
   189   95  216 1    
   190   96  217 1    
   191   96  218 1    
   192   96  219 1    
   193   97   98 2    
   194   97   99 am   BACKBONE|DICT|INTERRES
   195   99  100 1    
   196   99  220 1    
   197  100  101 1    
   198  100  102 1    
   199  100  221 1    
   200  101  222 1    
   201  101  223 1    
   202  101  224 1    
   203  102  103 2    
   204  102  104 am   BACKBONE|DICT|INTERRES
   205  104  105 1    
   206  104  225 1    
   207  105  106 1    
   208  105  107 1    
   209  105  226 1    
   210  106  227 1    
   211  106  228 1    
   212  106  229 1    
   213  107  108 2    
   214  107  109 am   BACKBONE|DICT|INTERRES
   215  109  110 1    
   216  109  230 1    
   217  110  111 1    
   218  110  112 1    
   219  110  231 1    
   220  111  232 1    
   221  111  233 1    
   222  111  234 1    
   223  112  113 2    
   224  112  114 am   BACKBONE|DICT|INTERRES
   225  114  115 1    
   226  114  235 1    
   227  115  116 1    
   228  115  117 1    
   229  115  236 1    
   230  116  237 1    
   231  116  238 1    
   232  116  239 1    
   233  117  118 2    
   234  117  119 am   BACKBONE|DICT|INTERRES
   235  119  120 1    
   236  119  240 1    
   237  120  121 1    
   238  120  124 1    
   239  120  241 1    
   240  121  122 am   BACKBONE|DICT|INTERRES
   241  121  123 2    
   242  122  242 1    
   243  122  243 1    
   244  124  125 1    
   245  124  244 1    
   246  124  245 1    
   247  125  126 1    
   248  126  246 1    
   249  126  247 1    
@<TRIPOS>SUBSTRUCTURE
     1 UNK         1 GROUP             0       ****    0 ROOT    
