@<TRIPOS>MOLECULE
3R540
247   249    1
SMALL
USER_CHARGES


@<TRIPOS>ATOM
      1 CA         -1.7937  -13.5900  -46.7080 C.3       0 UNK        -0.1800 
      2 C          -0.9318  -12.6294  -47.5104 C.2       0 UNK         0.5000 
      3 O          -1.0030  -11.4178  -47.2977 O.2       0 UNK        -0.5000 
      4 N          -0.1221  -13.1623  -48.4351 N.am      1 UNK        -0.5000 
      5 CA          0.8045  -12.3950  -49.2722 C.3       1 UNK         0.1400 
      6 C6          1.4121  -13.2416  -50.4177 C.3       23 UNK        -0.0398 
      7 S7          2.3289  -14.7324  -49.8818 S.3       23 UNK        -0.2404 
      8 C8          1.7970  -15.9644  -51.1125 C.3       23 UNK        -0.0205 
      9 C9          0.7931  -16.9520  -50.5376 C.ar      23 UNK        -0.0193 
     10 C10        -0.5265  -16.5635  -50.2866 C.ar      23 UNK        -0.1150 
     11 C11        -1.4598  -17.4923  -49.8159 C.ar      23 UNK        -0.0193 
     12 C12        -1.0573  -18.8064  -49.5617 C.ar      23 UNK        -0.1150 
     13 C13         0.2581  -19.2056  -49.8072 C.ar      23 UNK        -0.0193 
     14 C14         1.1781  -18.2738  -50.2944 C.ar      23 UNK        -0.1150 
     15 C15         0.6844  -20.6442  -49.5648 C.3       23 UNK        -0.0205 
     16 S16         1.6466  -20.7801  -48.0320 S.3       23 UNK        -0.2404 
     17 C17         1.9746  -22.5673  -47.9481 C.3       23 UNK        -0.0398 
     18 CA          1.0762  -23.3560  -46.9650 C.3       11 UNK         0.1400 
     19 N           1.0490  -22.8186  -45.5998 N.am      11 UNK        -0.5000 
     20 C           0.7226  -23.5655  -44.5341 C.2       10 UNK         0.5000 
     21 O           0.4532  -24.7657  -44.6048 O.2       10 UNK        -0.5000 
     22 CA          0.6388  -22.8587  -43.1702 C.3       10 UNK         0.1400 
     23 CB          2.0360  -22.5973  -42.5877 C.3       10 UNK        -0.1800 
     24 N          -0.1260  -21.6137  -43.2261 N.am      10 UNK        -0.5000 
     25 C          -1.4378  -21.5498  -43.4964 C.2       9 UNK         0.5000 
     26 O          -2.1353  -22.5362  -43.7290 O.2       9 UNK        -0.5000 
     27 CA         -2.0798  -20.1523  -43.5385 C.3       9 UNK         0.1400 
     28 CB         -2.4750  -19.7010  -42.1248 C.3       9 UNK        -0.1800 
     29 N          -1.2194  -19.1451  -44.1578 N.am      9 UNK        -0.5000 
     30 C          -0.8098  -19.1814  -45.4341 C.2       8 UNK         0.5000 
     31 O          -1.1506  -20.0517  -46.2323 O.2       8 UNK        -0.5000 
     32 CA          0.1870  -18.0964  -45.8757 C.3       8 UNK         0.1400 
     33 CB         -0.5342  -16.7752  -46.1682 C.3       8 UNK        -0.1800 
     34 N           1.2468  -17.8708  -44.8940 N.am      8 UNK        -0.5000 
     35 C           2.1164  -18.7995  -44.4692 C.2       7 UNK         0.5000 
     36 O           2.1381  -19.9645  -44.8655 O.2       7 UNK        -0.5000 
     37 CA          3.0942  -18.3611  -43.3685 C.3       7 UNK         0.1400 
     38 CB          4.2410  -17.5212  -43.9512 C.3       7 UNK        -0.1800 
     39 N           2.4107  -17.6079  -42.3182 N.am      7 UNK        -0.5000 
     40 C           1.5668  -18.1522  -41.4304 C.2       6 UNK         0.5000 
     41 O           1.3073  -19.3548  -41.3791 O.2       6 UNK        -0.5000 
     42 CA          0.8741  -17.1817  -40.4559 C.3       6 UNK         0.1400 
     43 CB          1.7866  -16.8685  -39.2607 C.3       6 UNK        -0.1800 
     44 N           0.4641  -15.9297  -41.0957 N.am      6 UNK        -0.5000 
     45 C          -0.4870  -15.8437  -42.0356 C.2       5 UNK         0.5000 
     46 O          -1.1168  -16.8103  -42.4608 O.2       5 UNK        -0.5000 
     47 CA         -0.7572  -14.4517  -42.6313 C.3       5 UNK         0.1400 
     48 CB         -1.7257  -13.6585  -41.7422 C.3       5 UNK        -0.1800 
     49 N           0.4458  -13.6512  -42.8690 N.am      5 UNK        -0.5000 
     50 C           1.4958  -14.0083  -43.6202 C.2       4 UNK         0.5000 
     51 O           1.6138  -15.1175  -44.1428 O.2       4 UNK        -0.5000 
     52 CA          2.5716  -12.9254  -43.8320 C.3       4 UNK         0.1400 
     53 CB          3.7868  -13.4396  -44.6239 C.3       4 UNK        -0.1800 
     54 N           2.0087  -11.7626  -44.5207 N.am      4 UNK        -0.5000 
     55 C           1.3254  -10.7709  -43.9287 C.2       3 UNK         0.5000 
     56 O           1.0924  -10.7566  -42.7182 O.2       3 UNK        -0.5000 
     57 CA          0.7738   -9.6331  -44.8180 C.3       3 UNK         0.1400 
     58 CB          0.8321   -8.2569  -44.1227 C.3       3 UNK        -0.1800 
     59 N           1.3676   -9.5776  -46.1577 N.am      3 UNK        -0.5000 
     60 C           2.6415   -9.3103  -46.4891 C.2       2 UNK         0.5000 
     61 O           3.5005   -8.9613  -45.6781 O.2       2 UNK        -0.5000 
     62 CA          3.0193   -9.4899  -47.9804 C.3       2 UNK         0.1400 
     63 CB          4.4924   -9.9105  -48.1665 C.3       2 UNK        -0.1800 
     64 N           2.1295  -10.4043  -48.7147 N.am      2 UNK        -0.5000 
     65 C           1.8790  -11.6886  -48.4167 C.2       1 UNK         0.5000 
     66 O           2.4061  -12.2869  -47.4764 O.2       1 UNK        -0.5000 
     67 C          -0.3380  -23.6226  -47.5195 C.2       11 UNK         0.5000 
     68 O          -0.5137  -24.6126  -48.2279 O.2       11 UNK        -0.5000 
     69 N          -1.3343  -22.7995  -47.1571 N.am      12 UNK        -0.5000 
     70 CA         -2.7396  -23.0238  -47.5098 C.3       12 UNK         0.1400 
     71 CB         -3.5859  -21.7922  -47.1597 C.3       12 UNK        -0.1800 
     72 C          -3.3338  -24.2904  -46.8712 C.2       12 UNK         0.5000 
     73 O          -4.1512  -24.9480  -47.5105 O.2       12 UNK        -0.5000 
     74 N          -2.9032  -24.6267  -45.6476 N.am      13 UNK        -0.5000 
     75 CA         -3.2737  -25.8632  -44.9578 C.3       13 UNK         0.1400 
     76 CB         -2.9034  -25.7510  -43.4711 C.3       13 UNK        -0.1800 
     77 C          -2.6317  -27.1164  -45.5845 C.2       13 UNK         0.5000 
     78 O          -3.2421  -28.1857  -45.5504 O.2       13 UNK        -0.5000 
     79 N          -1.4188  -26.9699  -46.1368 N.am      14 UNK        -0.5000 
     80 CA         -0.7098  -28.0260  -46.8613 C.3       14 UNK         0.1400 
     81 CB          0.7858  -27.6801  -46.9351 C.3       14 UNK        -0.1800 
     82 C          -1.2953  -28.2518  -48.2685 C.2       14 UNK         0.5000 
     83 O          -1.4546  -29.3990  -48.6886 O.2       14 UNK        -0.5000 
     84 N          -1.6080  -27.1513  -48.9631 N.am      15 UNK        -0.5000 
     85 CA         -2.2781  -27.1186  -50.2612 C.3       15 UNK         0.1400 
     86 CB         -2.0031  -25.7451  -50.9031 C.3       15 UNK        -0.1800 
     87 C          -3.7951  -27.3780  -50.1422 C.2       15 UNK         0.5000 
     88 O          -4.3246  -27.5712  -49.0459 O.2       15 UNK        -0.5000 
     89 N          -4.4931  -27.3322  -51.2833 N.am      16 UNK        -0.5000 
     90 CA         -5.9540  -27.3834  -51.3742 C.3       16 UNK         0.1400 
     91 CB         -6.3430  -27.9447  -52.7541 C.3       16 UNK        -0.1800 
     92 C          -6.5649  -25.9914  -51.1009 C.2       16 UNK         0.5000 
     93 O          -7.1732  -25.3985  -51.9926 O.2       16 UNK        -0.5000 
     94 N          -6.3356  -25.4728  -49.8843 N.am      17 UNK        -0.5000 
     95 CA         -6.7422  -24.1547  -49.3704 C.3       17 UNK         0.1400 
     96 CB         -8.2772  -23.9964  -49.3932 C.3       17 UNK        -0.1800 
     97 C          -6.0244  -22.9610  -50.0408 C.2       17 UNK         0.5000 
     98 O          -6.4362  -21.8184  -49.8330 O.2       17 UNK        -0.5000 
     99 N          -4.9716  -23.2406  -50.8253 N.am      18 UNK        -0.5000 
    100 CA        -4.1912  -22.3437  -51.6886 C.3       18 UNK         0.1400 
    101 CB        -3.4411  -21.2608  -50.8881 C.3       18 UNK        -0.1800 
    102 C         -5.0089  -21.7376  -52.8453 C.2       18 UNK         0.5000 
    103 O         -4.6773  -21.9816  -54.0063 O.2       18 UNK        -0.5000 
    104 N         -6.0602  -20.9778  -52.5102 N.am      19 UNK        -0.5000 
    105 CA        -7.0101  -20.3111  -53.4036 C.3       19 UNK         0.1400 
    106 CB        -7.9605  -21.3535  -54.0332 C.3       19 UNK        -0.1800 
    107 C         -6.2954  -19.4116  -54.4330 C.2       19 UNK         0.5000 
    108 O         -5.7945  -18.3494  -54.0624 O.2       19 UNK        -0.5000 
    109 N         -6.2203  -19.8653  -55.6918 N.am      20 UNK        -0.5000 
    110 CA        -5.5218  -19.2022  -56.7948 C.3       20 UNK         0.1400 
    111 CB        -5.7807  -19.9834  -58.0917 C.3       20 UNK        -0.1800 
    112 C         -4.0070  -19.0288  -56.5632 C.2       20 UNK         0.5000 
    113 O         -3.4227  -18.0864  -57.1009 O.2       20 UNK        -0.5000 
    114 N         -3.4012  -19.8986  -55.7385 N.am      21 UNK        -0.5000 
    115 CA        -1.9913  -19.8216  -55.3433 C.3       21 UNK         0.1400 
    116 CB        -1.5853  -21.1070  -54.6065 C.3       21 UNK        -0.1800 
    117 C         -1.6495  -18.5763  -54.4992 C.2       21 UNK         0.5000 
    118 O         -0.4757  -18.2095  -54.4338 O.2       21 UNK        -0.5000 
    119 N         -2.6634  -17.9291  -53.9045 N.am      22 UNK        -0.5000 
    120 CA        -2.5251  -16.6228  -53.2432 C.3       22 UNK         0.1400 
    121 C         -2.3474  -15.4254  -54.2253 C.2       22 UNK         0.5000 
    122 N         -2.5397  -15.5858  -55.5308 N.am      22 UNK        -0.7600 
    123 O         -2.0187  -14.3246  -53.7922 O.2       22 UNK        -0.5000 
    124 C124       -3.6699  -16.3292  -52.2365 C.3       23 UNK        -0.0398 
    125 S125       -3.9544  -17.6376  -50.9940 S.3       23 UNK        -0.2404 
    126 C126       -2.9109  -17.0946  -49.6022 C.3       23 UNK        -0.0205 
    127 H127       -2.7548  -13.1337  -46.4711 H         1 UNK         0.0600 
    128 H128       -1.2924  -13.8401  -45.7748 H         1 UNK         0.0600 
    129 H129       -1.9852  -14.5091  -47.2616 H         1 UNK         0.0600 
    130 H130       -0.0527  -14.1655  -48.5236 H         1 UNK         0.3000 
    131 H131        0.2062  -11.6141  -49.7471 H         1 UNK         0.0600 
    132 H132        0.6048  -13.5385  -51.0879 H         1 UNK         0.0800 
    133 H133        2.0815  -12.6308  -51.0259 H         1 UNK         0.0800 
    134 H134        2.6838  -16.4938  -51.4642 H         1 UNK         0.0800 
    135 H135        1.3752  -15.4829  -51.9956 H         1 UNK         0.0800 
    136 H136       -0.8341  -15.5479  -50.4904 H         1 UNK         0.1150 
    137 H137       -1.7747  -19.5225  -49.1872 H         1 UNK         0.1150 
    138 H138        2.1950  -18.5843  -50.4889 H         1 UNK         0.1150 
    139 H139       -0.1892  -21.2948  -49.5063 H         1 UNK         0.0800 
    140 H140        1.2824  -20.9966  -50.4064 H         1 UNK         0.0800 
    141 H141        1.9274  -23.0001  -48.9492 H         1 UNK         0.0800 
    142 H142        3.0138  -22.6798  -47.6368 H         1 UNK         0.0800 
    143 H143        1.5410  -24.3424  -46.8962 H         1 UNK         0.0600 
    144 H144        1.2588  -21.8318  -45.4838 H         1 UNK         0.3000 
    145 H145        0.1173  -23.5313  -42.4858 H         1 UNK         0.0600 
    146 H146        1.9717  -22.1504  -41.5955 H         1 UNK         0.0600 
    147 H147        2.5957  -23.5282  -42.4895 H         1 UNK         0.0600 
    148 H148        2.6229  -21.9292  -43.2170 H         1 UNK         0.0600 
    149 H149        0.3813  -20.7563  -43.0484 H         1 UNK         0.3000 
    150 H150       -2.9901  -20.2237  -44.1364 H         1 UNK         0.0600 
    151 H151       -3.1085  -20.4440  -41.6386 H         1 UNK         0.0600 
    152 H152       -3.0353  -18.7664  -42.1526 H         1 UNK         0.0600 
    153 H153       -1.5997  -19.5486  -41.4921 H         1 UNK         0.0600 
    154 H154       -0.9394  -18.3649  -43.5697 H         1 UNK         0.3000 
    155 H155        0.6581  -18.4251  -46.8016 H         1 UNK         0.0600 
    156 H156       -1.0001  -16.3651  -45.2726 H         1 UNK         0.0600 
    157 H157       -1.3184  -16.9183  -46.9116 H         1 UNK         0.0600 
    158 H158        0.1576  -16.0296  -46.5611 H         1 UNK         0.0600 
    159 H159        1.3273  -16.9259  -44.5258 H         1 UNK         0.3000 
    160 H160        3.5257  -19.2598  -42.9222 H         1 UNK         0.0600 
    161 H161        3.8744  -16.6182  -44.4393 H         1 UNK         0.0600 
    162 H162        4.7973  -18.0908  -44.6965 H         1 UNK         0.0600 
    163 H163        4.9467  -17.2226  -43.1760 H         1 UNK         0.0600 
    164 H164        2.5160  -16.6042  -42.3362 H         1 UNK         0.3000 
    165 H165       -0.0228  -17.6775  -40.0781 H         1 UNK         0.0600 
    166 H166        1.2736  -16.2488  -38.5249 H         1 UNK         0.0600 
    167 H167        2.0941  -17.7846  -38.7546 H         1 UNK         0.0600 
    168 H168        2.6918  -16.3442  -39.5695 H         1 UNK         0.0600 
    169 H169        0.9391  -15.0866  -40.8087 H         1 UNK         0.3000 
    170 H170       -1.2409  -14.6063  -43.5960 H         1 UNK         0.0600 
    171 H171       -2.6423  -14.2218  -41.5622 H         1 UNK         0.0600 
    172 H172       -1.2847  -13.4282  -40.7716 H         1 UNK         0.0600 
    173 H173       -2.0112  -12.7173  -42.2127 H         1 UNK         0.0600 
    174 H174        0.4427  -12.7058  -42.5016 H         1 UNK         0.3000 
    175 H175        2.9294  -12.6199  -42.8466 H         1 UNK         0.0600 
    176 H176        3.4984  -13.8378  -45.5974 H         1 UNK         0.0600 
    177 H177        4.5145  -12.6453  -44.7905 H         1 UNK         0.0600 
    178 H178        4.2950  -14.2365  -44.0806 H         1 UNK         0.0600 
    179 H179        2.1229  -11.7506  -45.5296 H         1 UNK         0.3000 
    180 H180       -0.2790   -9.8712  -44.9753 H         1 UNK         0.0600 
    181 H181        1.8503   -7.9835  -43.8450 H         1 UNK         0.0600 
    182 H182        0.2361   -8.2549  -43.2094 H         1 UNK         0.0600 
    183 H183        0.4364   -7.4718  -44.7669 H         1 UNK         0.0600 
    184 H184        0.7505   -9.8857  -46.8988 H         1 UNK         0.3000 
    185 H185        2.8959   -8.5085  -48.4403 H         1 UNK         0.0600 
    186 H186        5.1701   -9.1603  -47.7576 H         1 UNK         0.0600 
    187 H187        4.7101  -10.8545  -47.6657 H         1 UNK         0.0600 
    188 H188        4.7393  -10.0262  -49.2218 H         1 UNK         0.0600 
    189 H189        1.6301   -9.9844  -49.4871 H         1 UNK         0.3000 
    190 H190       -1.1265  -21.9581  -46.6251 H         1 UNK         0.3000 
    191 H191       -2.7889  -23.1688  -48.5891 H         1 UNK         0.0600 
    192 H192       -3.5454  -21.5691  -46.0939 H         1 UNK         0.0600 
    193 H193       -4.6327  -21.9470  -47.4233 H         1 UNK         0.0600 
    194 H194       -3.2448  -20.9112  -47.7029 H         1 UNK         0.0600 
    195 H195       -2.2975  -23.9868  -45.1442 H         1 UNK         0.3000 
    196 H196       -4.3574  -25.9793  -45.0273 H         1 UNK         0.0600 
    197 H197       -3.1755  -26.6582  -42.9302 H         1 UNK         0.0600 
    198 H198       -3.4272  -24.9210  -42.9969 H         1 UNK         0.0600 
    199 H199       -1.8334  -25.5937  -43.3331 H         1 UNK         0.0600 
    200 H200       -0.9734  -26.0634  -46.0923 H         1 UNK         0.3000 
    201 H201       -0.8108  -28.9583  -46.3016 H         1 UNK         0.0600 
    202 H202        1.2086  -27.5441  -45.9395 H         1 UNK         0.0600 
    203 H203        0.9640  -26.7658  -47.5011 H         1 UNK         0.0600 
    204 H204        1.3457  -28.4799  -47.4212 H         1 UNK         0.0600 
    205 H205       -1.4012  -26.2466  -48.5494 H         1 UNK         0.3000 
    206 H206       -1.8506  -27.8964  -50.8970 H         1 UNK         0.0600 
    207 H207       -0.9325  -25.5471  -50.9616 H         1 UNK         0.0600 
    208 H208       -2.3922  -25.6867  -51.9198 H         1 UNK         0.0600 
    209 H209       -2.4563  -24.9373  -50.3274 H         1 UNK         0.0600 
    210 H210       -4.0023  -27.1662  -52.1500 H         1 UNK         0.3000 
    211 H211       -6.3445  -28.0675  -50.6177 H         1 UNK         0.0600 
    212 H212       -5.9773  -27.3145  -53.5658 H         1 UNK         0.0600 
    213 H213       -7.4267  -28.0162  -52.8552 H         1 UNK         0.0600 
    214 H214       -5.9383  -28.9464  -52.8995 H         1 UNK         0.0600 
    215 H215       -5.7679  -26.0226  -49.2449 H         1 UNK         0.3000 
    216 H216       -6.4412  -24.1327  -48.3235 H         1 UNK         0.0600 
    217 H217       -8.5855  -23.1053  -48.8452 H         1 UNK         0.0600 
    218 H218       -8.7696  -24.8485  -48.9247 H         1 UNK         0.0600 
    219 H219       -8.6628  -23.8998  -50.4083 H         1 UNK         0.0600 
    220 H220       -4.7568  -24.2208  -50.9294 H         1 UNK         0.3000 
    221 H221       -3.4316  -22.9731  -52.1551 H         1 UNK         0.0600 
    222 H222       -4.1000  -20.6959  -50.2296 H         1 UNK         0.0600 
    223 H223       -2.6509  -21.6971  -50.2807 H         1 UNK         0.0600 
    224 H224       -2.9619  -20.5404  -51.5518 H         1 UNK         0.0600 
    225 H225       -6.2472  -20.8833  -51.5158 H         1 UNK         0.3000 
    226 H226       -7.6113  -19.6474  -52.7807 H         1 UNK         0.0600 
    227 H227       -8.5226  -21.8785  -53.2606 H         1 UNK         0.0600 
    228 H228       -8.6884  -20.8769  -54.6911 H         1 UNK         0.0600 
    229 H229       -7.4260  -22.1065  -54.6135 H         1 UNK         0.0600 
    230 H230       -6.6250  -20.7678  -55.8944 H         1 UNK         0.3000 
    231 H231       -5.9501  -18.2039  -56.9042 H         1 UNK         0.0600 
    232 H232       -5.2962  -19.5012  -58.9419 H         1 UNK         0.0600 
    233 H233       -6.8465  -20.0370  -58.3147 H         1 UNK         0.0600 
    234 H234       -5.3975  -21.0027  -58.0298 H         1 UNK         0.0600 
    235 H235       -3.9533  -20.6338  -55.3066 H         1 UNK         0.3000 
    236 H236       -1.3992  -19.7613  -56.2588 H         1 UNK         0.0600 
    237 H237       -1.8205  -21.9941  -55.1946 H         1 UNK         0.0600 
    238 H238       -0.5124  -21.1202  -54.4113 H         1 UNK         0.0600 
    239 H239       -2.0890  -21.1960  -53.6458 H         1 UNK         0.0600 
    240 H240       -3.6089  -18.2793  -54.0002 H         1 UNK         0.3000 
    241 H241       -1.5972  -16.6594  -52.6763 H         1 UNK         0.0600 
    242 H242       -2.4141  -14.7975  -56.1459 H         1 UNK         0.3800 
    243 H243       -2.8056  -16.4826  -55.9202 H         1 UNK         0.3800 
    244 H244       -3.4866  -15.3890  -51.7140 H         1 UNK         0.0800 
    245 H245       -4.6073  -16.1892  -52.7772 H         1 UNK         0.0800 
    246 H246       -3.0059  -16.0182  -49.4527 H         1 UNK         0.0800 
    247 H247       -3.2790  -17.5617  -48.6874 H         1 UNK         0.0800 
@<TRIPOS>BOND
     1    1    2 1    
     2    1  127 1    
     3    1  128 1    
     4    1  129 1    
     5    2    3 2    
     6    2    4 am   BACKBONE|DICT|INTERRES
     7    4    5 1    
     8    4  130 1    
     9    5    6 1    
    10    5   65 1    
    11    5  131 1    
    12    6    7 1    
    13    6  132 1    
    14    6  133 1    
    15    7    8 1    
    16    8    9 1    
    17    8  134 1    
    18    8  135 1    
    19    9   10 ar   
    20    9   14 ar   
    21   10   11 ar   
    22   10  136 1    
    23   11   12 ar   
    24   11  126 1    
    25   12   13 ar   
    26   12  137 1    
    27   13   14 ar   
    28   13   15 1    
    29   14  138 1    
    30   15   16 1    
    31   15  139 1    
    32   15  140 1    
    33   16   17 1    
    34   17   18 1    
    35   17  141 1    
    36   17  142 1    
    37   18   19 1    
    38   18   67 1    
    39   18  143 1    
    40   19   20 am   BACKBONE|DICT|INTERRES
    41   19  144 1    
    42   20   21 2    
    43   20   22 1    
    44   22   23 1    
    45   22   24 1    
    46   22  145 1    
    47   23  146 1    
    48   23  147 1    
    49   23  148 1    
    50   24   25 am   BACKBONE|DICT|INTERRES
    51   24  149 1    
    52   25   26 2    
    53   25   27 1    
    54   27   28 1    
    55   27   29 1    
    56   27  150 1    
    57   28  151 1    
    58   28  152 1    
    59   28  153 1    
    60   29   30 am   BACKBONE|DICT|INTERRES
    61   29  154 1    
    62   30   31 2    
    63   30   32 1    
    64   32   33 1    
    65   32   34 1    
    66   32  155 1    
    67   33  156 1    
    68   33  157 1    
    69   33  158 1    
    70   34   35 am   BACKBONE|DICT|INTERRES
    71   34  159 1    
    72   35   36 2    
    73   35   37 1    
    74   37   38 1    
    75   37   39 1    
    76   37  160 1    
    77   38  161 1    
    78   38  162 1    
    79   38  163 1    
    80   39   40 am   BACKBONE|DICT|INTERRES
    81   39  164 1    
    82   40   41 2    
    83   40   42 1    
    84   42   43 1    
    85   42   44 1    
    86   42  165 1    
    87   43  166 1    
    88   43  167 1    
    89   43  168 1    
    90   44   45 am   BACKBONE|DICT|INTERRES
    91   44  169 1    
    92   45   46 2    
    93   45   47 1    
    94   47   48 1    
    95   47   49 1    
    96   47  170 1    
    97   48  171 1    
    98   48  172 1    
    99   48  173 1    
   100   49   50 am   BACKBONE|DICT|INTERRES
   101   49  174 1    
   102   50   51 2    
   103   50   52 1    
   104   52   53 1    
   105   52   54 1    
   106   52  175 1    
   107   53  176 1    
   108   53  177 1    
   109   53  178 1    
   110   54   55 am   BACKBONE|DICT|INTERRES
   111   54  179 1    
   112   55   56 2    
   113   55   57 1    
   114   57   58 1    
   115   57   59 1    
   116   57  180 1    
   117   58  181 1    
   118   58  182 1    
   119   58  183 1    
   120   59   60 am   BACKBONE|DICT|INTERRES
   121   59  184 1    
   122   60   61 2    
   123   60   62 1    
   124   62   63 1    
   125   62   64 1    
   126   62  185 1    
   127   63  186 1    
   128   63  187 1    
   129   63  188 1    
   130   64   65 am   BACKBONE|DICT|INTERRES
   131   64  189 1    
   132   65   66 2    
   133   67   68 2    
   134   67   69 am   BACKBONE|DICT|INTERRES
   135   69   70 1    
   136   69  190 1    
   137   70   71 1    
   138   70   72 1    
   139   70  191 1    
   140   71  192 1    
   141   71  193 1    
   142   71  194 1    
   143   72   73 2    
   144   72   74 am   BACKBONE|DICT|INTERRES
   145   74   75 1    
   146   74  195 1    
   147   75   76 1    
   148   75   77 1    
   149   75  196 1    
   150   76  197 1    
   151   76  198 1    
   152   76  199 1    
   153   77   78 2    
   154   77   79 am   BACKBONE|DICT|INTERRES
   155   79   80 1    
   156   79  200 1    
   157   80   81 1    
   158   80   82 1    
   159   80  201 1    
   160   81  202 1    
   161   81  203 1    
   162   81  204 1    
   163   82   83 2    
   164   82   84 am   BACKBONE|DICT|INTERRES
   165   84   85 1    
   166   84  205 1    
   167   85   86 1    
   168   85   87 1    
   169   85  206 1    
   170   86  207 1    
   171   86  208 1    
   172   86  209 1    
   173   87   88 2    
   174   87   89 am   BACKBONE|DICT|INTERRES
   175   89   90 1    
   176   89  210 1    
   177   90   91 1    
   178   90   92 1    
   179   90  211 1    
   180   91  212 1    
   181   91  213 1    
   182   91  214 1    
   183   92   93 2    
   184   92   94 am   BACKBONE|DICT|INTERRES
   185   94   95 1    
   186   94  215 1    
   187   95   96 1    
   188   95   97 1    
   189   95  216 1    
   190   96  217 1    
   191   96  218 1    
   192   96  219 1    
   193   97   98 2    
   194   97   99 am   BACKBONE|DICT|INTERRES
   195   99  100 1    
   196   99  220 1    
   197  100  101 1    
   198  100  102 1    
   199  100  221 1    
   200  101  222 1    
   201  101  223 1    
   202  101  224 1    
   203  102  103 2    
   204  102  104 am   BACKBONE|DICT|INTERRES
   205  104  105 1    
   206  104  225 1    
   207  105  106 1    
   208  105  107 1    
   209  105  226 1    
   210  106  227 1    
   211  106  228 1    
   212  106  229 1    
   213  107  108 2    
   214  107  109 am   BACKBONE|DICT|INTERRES
   215  109  110 1    
   216  109  230 1    
   217  110  111 1    
   218  110  112 1    
   219  110  231 1    
   220  111  232 1    
   221  111  233 1    
   222  111  234 1    
   223  112  113 2    
   224  112  114 am   BACKBONE|DICT|INTERRES
   225  114  115 1    
   226  114  235 1    
   227  115  116 1    
   228  115  117 1    
   229  115  236 1    
   230  116  237 1    
   231  116  238 1    
   232  116  239 1    
   233  117  118 2    
   234  117  119 am   BACKBONE|DICT|INTERRES
   235  119  120 1    
   236  119  240 1    
   237  120  121 1    
   238  120  124 1    
   239  120  241 1    
   240  121  122 am   BACKBONE|DICT|INTERRES
   241  121  123 2    
   242  122  242 1    
   243  122  243 1    
   244  124  125 1    
   245  124  244 1    
   246  124  245 1    
   247  125  126 1    
   248  126  246 1    
   249  126  247 1    
@<TRIPOS>SUBSTRUCTURE
     1 UNK         1 GROUP             0       ****    0 ROOT    
