@<TRIPOS>MOLECULE
3R540
247   249    1
SMALL
USER_CHARGES


@<TRIPOS>ATOM
      1 CA         -0.8916  -13.4625  -48.6757 C.3       0 UNK        -0.1800 
      2 C           0.4232  -12.9451  -48.1087 C.2       0 UNK         0.5000 
      3 O           0.4238  -12.0120  -47.3045 O.2       0 UNK        -0.5000 
      4 N           1.5417  -13.5459  -48.5321 N.am      1 UNK        -0.5000 
      5 CA          2.8948  -13.2456  -48.0556 C.3       1 UNK         0.1400 
      6 C6          3.9768  -13.9563  -48.9039 C.3       23 UNK        -0.0398 
      7 S7          3.9693  -13.3619  -50.6287 S.3       23 UNK        -0.2404 
      8 C8          4.3295  -14.8841  -51.5660 C.3       23 UNK        -0.0205 
      9 C9          3.1673  -15.8705  -51.6319 C.ar      23 UNK        -0.0193 
     10 C10         3.4058  -17.2337  -51.4375 C.ar      23 UNK        -0.1150 
     11 C11         2.3712  -18.1624  -51.5679 C.ar      23 UNK        -0.0193 
     12 C12         1.0837  -17.7183  -51.8775 C.ar      23 UNK        -0.1150 
     13 C13         0.8206  -16.3564  -52.0756 C.ar      23 UNK        -0.0193 
     14 C14         1.8736  -15.4438  -51.9532 C.ar      23 UNK        -0.1150 
     15 C15        -0.5570  -15.8195  -52.4720 C.3       23 UNK        -0.0205 
     16 S16        -1.9183  -17.0387  -52.5158 S.3       23 UNK        -0.2404 
     17 C17        -2.5885  -16.9713  -50.8197 C.3       23 UNK        -0.0398 
     18 CA         -2.1528  -18.1883  -49.9622 C.3       11 UNK         0.1400 
     19 N          -0.9098  -17.9337  -49.2272 N.am      11 UNK        -0.5000 
     20 C          -0.1939  -18.8466  -48.5544 C.2       10 UNK         0.5000 
     21 O          -0.5821  -19.9969  -48.3548 O.2       10 UNK        -0.5000 
     22 CA          1.2163  -18.4235  -48.1077 C.3       10 UNK         0.1400 
     23 CB          1.4585  -16.9006  -48.1451 C.3       10 UNK        -0.1800 
     24 N           1.6016  -18.9534  -46.7969 N.am      10 UNK        -0.5000 
     25 C           2.8789  -19.2287  -46.4873 C.2       9 UNK         0.5000 
     26 O           3.7795  -19.2729  -47.3276 O.2       9 UNK        -0.5000 
     27 CA          3.2725  -19.4224  -45.0123 C.3       9 UNK         0.1400 
     28 CB          3.9064  -18.1248  -44.4809 C.3       9 UNK        -0.1800 
     29 N           2.1797  -19.7960  -44.1178 N.am      9 UNK        -0.5000 
     30 C           1.8622  -21.0604  -43.8089 C.2       8 UNK         0.5000 
     31 O           2.3352  -22.0406  -44.3846 O.2       8 UNK        -0.5000 
     32 CA          0.8694  -21.2774  -42.6514 C.3       8 UNK         0.1400 
     33 CB          1.6187  -21.3313  -41.3108 C.3       8 UNK        -0.1800 
     34 N          -0.1284  -20.2110  -42.5936 N.am      8 UNK        -0.5000 
     35 C          -1.4494  -20.3841  -42.7315 C.2       7 UNK         0.5000 
     36 O          -1.9935  -21.4873  -42.7840 O.2       7 UNK        -0.5000 
     37 CA         -2.3213  -19.1178  -42.8541 C.3       7 UNK         0.1400 
     38 CB         -3.0703  -18.8472  -41.5411 C.3       7 UNK        -0.1800 
     39 N          -1.5773  -17.9121  -43.2261 N.am      7 UNK        -0.5000 
     40 C          -0.9258  -17.7097  -44.3805 C.2       6 UNK         0.5000 
     41 O          -0.9509  -18.4926  -45.3307 O.2       6 UNK        -0.5000 
     42 CA         -0.0718  -16.4318  -44.4839 C.3       6 UNK         0.1400 
     43 CB         -0.8425  -15.3657  -45.2747 C.3       6 UNK        -0.1800 
     44 N           0.3679  -15.8782  -43.1944 N.am      6 UNK        -0.5000 
     45 C           1.0784  -16.5423  -42.2658 C.2       5 UNK         0.5000 
     46 O           1.4007  -17.7242  -42.3925 O.2       5 UNK        -0.5000 
     47 CA          1.4764  -15.8098  -40.9700 C.3       5 UNK         0.1400 
     48 CB          3.0030  -15.7257  -40.8325 C.3       5 UNK        -0.1800 
     49 N           0.9029  -14.4691  -40.8587 N.am      5 UNK        -0.5000 
     50 C          -0.3477  -14.2185  -40.4452 C.2       4 UNK         0.5000 
     51 O          -1.1342  -15.0982  -40.0924 O.2       4 UNK        -0.5000 
     52 CA         -0.8133  -12.7482  -40.4436 C.3       4 UNK         0.1400 
     53 CB         -0.6877  -12.1475  -39.0353 C.3       4 UNK        -0.1800 
     54 N          -0.0960  -11.8912  -41.3907 N.am      4 UNK        -0.5000 
     55 C          -0.0936  -12.0442  -42.7216 C.2       3 UNK         0.5000 
     56 O          -0.7047  -12.9430  -43.2974 O.2       3 UNK        -0.5000 
     57 CA          0.7453  -11.0519  -43.5518 C.3       3 UNK         0.1400 
     58 CB          1.1734   -9.7883  -42.7721 C.3       3 UNK        -0.1800 
     59 N           1.9189  -11.6844  -44.1610 N.am      3 UNK        -0.5000 
     60 C           2.8920  -12.3756  -43.5455 C.2       2 UNK         0.5000 
     61 O           2.8849  -12.6366  -42.3409 O.2       2 UNK        -0.5000 
     62 CA          4.1034  -12.7969  -44.4098 C.3       2 UNK         0.1400 
     63 CB          4.7187  -14.1439  -43.9760 C.3       2 UNK        -0.1800 
     64 N           3.8466  -12.7597  -45.8561 N.am      2 UNK        -0.5000 
     65 C           3.0547  -13.5828  -46.5574 C.2       1 UNK         0.5000 
     66 O           2.4701  -14.5548  -46.0771 O.2       1 UNK        -0.5000 
     67 C          -3.3150  -18.6981  -49.0885 C.2       11 UNK         0.5000 
     68 O          -4.1307  -19.4661  -49.5943 O.2       11 UNK        -0.5000 
     69 N          -3.3748  -18.3109  -47.8071 N.am      12 UNK        -0.5000 
     70 CA         -4.3864  -18.8244  -46.8783 C.3       12 UNK         0.1400 
     71 CB         -4.5372  -17.8804  -45.6779 C.3       12 UNK        -0.1800 
     72 C          -4.1099  -20.2829  -46.4593 C.2       12 UNK         0.5000 
     73 O          -5.0568  -21.0535  -46.2982 O.2       12 UNK        -0.5000 
     74 N          -2.8261  -20.6615  -46.3673 N.am      13 UNK        -0.5000 
     75 CA         -2.3862  -22.0501  -46.2054 C.3       13 UNK         0.1400 
     76 CB         -0.8791  -22.0936  -45.9071 C.3       13 UNK        -0.1800 
     77 C          -2.6977  -22.8795  -47.4615 C.2       13 UNK         0.5000 
     78 O          -3.1971  -23.9990  -47.3523 O.2       13 UNK        -0.5000 
     79 N          -2.4357  -22.2911  -48.6374 N.am      14 UNK        -0.5000 
     80 CA         -2.7440  -22.8790  -49.9391 C.3       14 UNK         0.1400 
     81 CB         -2.1470  -22.0183  -51.0595 C.3       14 UNK        -0.1800 
     82 C          -4.2534  -23.0723  -50.1563 C.2       14 UNK         0.5000 
     83 O          -4.6474  -24.0646  -50.7647 O.2       14 UNK        -0.5000 
     84 N          -5.0762  -22.1343  -49.6701 N.am      15 UNK        -0.5000 
     85 CA         -6.5371  -22.2103  -49.7013 C.3       15 UNK         0.1400 
     86 CB         -7.1424  -20.8520  -49.3216 C.3       15 UNK        -0.1800 
     87 C          -7.0829  -23.3306  -48.8020 C.2       15 UNK         0.5000 
     88 O          -7.9964  -24.0416  -49.2191 O.2       15 UNK        -0.5000 
     89 N          -6.4771  -23.5172  -47.6200 N.am      16 UNK        -0.5000 
     90 CA         -6.7659  -24.6341  -46.7146 C.3       16 UNK         0.1400 
     91 CB         -6.0689  -24.3995  -45.3659 C.3       16 UNK        -0.1800 
     92 C          -6.3748  -26.0014  -47.3141 C.2       16 UNK         0.5000 
     93 O          -7.0696  -26.9904  -47.0800 O.2       16 UNK        -0.5000 
     94 N          -5.3018  -26.0194  -48.1169 N.am      17 UNK        -0.5000 
     95 CA         -4.8517  -27.1665  -48.9102 C.3       17 UNK         0.1400 
     96 CB         -3.3554  -26.9920  -49.2183 C.3       17 UNK        -0.1800 
     97 C          -5.6570  -27.3756  -50.2140 C.2       17 UNK         0.5000 
     98 O          -5.4124  -28.3596  -50.9130 O.2       17 UNK        -0.5000 
     99 N          -6.5837  -26.4555  -50.5251 N.am      18 UNK        -0.5000 
    100 CA        -7.4593  -26.4069  -51.7029 C.3       18 UNK         0.1400 
    101 CB        -8.3836  -27.6411  -51.7627 C.3       18 UNK        -0.1800 
    102 C         -6.7260  -26.1404  -53.0369 C.2       18 UNK         0.5000 
    103 O         -7.2872  -26.4030  -54.1021 O.2       18 UNK        -0.5000 
    104 N         -5.5056  -25.5946  -52.9666 N.am      19 UNK        -0.5000 
    105 CA        -4.7270  -25.1311  -54.1155 C.3       19 UNK         0.1400 
    106 CB        -3.2312  -25.3176  -53.8190 C.3       19 UNK        -0.1800 
    107 C         -5.0424  -23.6579  -54.4310 C.2       19 UNK         0.5000 
    108 O         -5.2127  -23.3060  -55.5977 O.2       19 UNK        -0.5000 
    109 N         -5.1337  -22.8388  -53.3712 N.am      20 UNK        -0.5000 
    110 CA        -5.5598  -21.4317  -53.3335 C.3       20 UNK         0.1400 
    111 CB        -7.0568  -21.3281  -53.6904 C.3       20 UNK        -0.1800 
    112 C         -4.6993  -20.4326  -54.1405 C.2       20 UNK         0.5000 
    113 O         -5.1329  -19.2970  -54.3388 O.2       20 UNK        -0.5000 
    114 N         -3.5009  -20.8391  -54.5763 N.am      21 UNK        -0.5000 
    115 CA        -2.5977  -20.0319  -55.3983 C.3       21 UNK         0.1400 
    116 CB        -3.0643  -20.0467  -56.8682 C.3       21 UNK        -0.1800 
    117 C         -1.1484  -20.5119  -55.2209 C.2       21 UNK         0.5000 
    118 O         -0.4375  -20.7144  -56.2043 O.2       21 UNK        -0.5000 
    119 N         -0.7454  -20.7057  -53.9601 N.am      22 UNK        -0.5000 
    120 CA         0.5476  -21.2813  -53.5533 C.3       22 UNK         0.1400 
    121 C          0.6985  -22.7864  -53.9331 C.2       22 UNK         0.5000 
    122 N          1.9000  -23.3472  -53.8695 N.am      22 UNK        -0.7600 
    123 O         -0.2744  -23.4695  -54.2403 O.2       22 UNK        -0.5000 
    124 C124        1.7487  -20.3845  -53.9798 C.3       23 UNK        -0.0398 
    125 S125        3.2019  -20.4870  -52.8743 S.3       23 UNK        -0.2404 
    126 C126        2.6396  -19.6456  -51.3588 C.3       23 UNK        -0.0205 
    127 H127       -0.7424  -14.3400  -49.3042 H         1 UNK         0.0600 
    128 H128       -1.5681  -13.7354  -47.8660 H         1 UNK         0.0600 
    129 H129       -1.3712  -12.6898  -49.2762 H         1 UNK         0.0600 
    130 H130        1.4826  -14.2913  -49.2078 H         1 UNK         0.3000 
    131 H131        3.0361  -12.1680  -48.1654 H         1 UNK         0.0600 
    132 H132        4.9725  -13.7697  -48.4979 H         1 UNK         0.0800 
    133 H133        3.8363  -15.0377  -48.8837 H         1 UNK         0.0800 
    134 H134        5.2165  -15.3554  -51.1398 H         1 UNK         0.0800 
    135 H135        4.5935  -14.6049  -52.5867 H         1 UNK         0.0800 
    136 H136        4.4032  -17.5789  -51.2040 H         1 UNK         0.1150 
    137 H137        0.2981  -18.4511  -51.9783 H         1 UNK         0.1150 
    138 H138        1.6893  -14.3935  -52.1308 H         1 UNK         0.1150 
    139 H139       -0.8301  -14.9884  -51.8213 H         1 UNK         0.0800 
    140 H140       -0.4686  -15.3981  -53.4742 H         1 UNK         0.0800 
    141 H141       -3.6730  -16.9379  -50.9432 H         1 UNK         0.0800 
    142 H142       -2.3293  -16.0294  -50.3358 H         1 UNK         0.0800 
    143 H143       -1.9303  -19.0140  -50.6391 H         1 UNK         0.0600 
    144 H144       -0.5011  -17.0214  -49.3572 H         1 UNK         0.3000 
    145 H145        1.8677  -18.8702  -48.8562 H         1 UNK         0.0600 
    146 H146        2.4762  -16.6625  -47.8385 H         1 UNK         0.0600 
    147 H147        1.3359  -16.4957  -49.1485 H         1 UNK         0.0600 
    148 H148        0.7835  -16.3657  -47.4790 H         1 UNK         0.0600 
    149 H149        0.8685  -19.0044  -46.0979 H         1 UNK         0.3000 
    150 H150        4.0410  -20.1981  -44.9816 H         1 UNK         0.0600 
    151 H151        4.7847  -17.8481  -45.0655 H         1 UNK         0.0600 
    152 H152        4.2277  -18.2339  -43.4449 H         1 UNK         0.0600 
    153 H153        3.2087  -17.2879  -44.5289 H         1 UNK         0.0600 
    154 H154        1.7991  -19.0420  -43.5526 H         1 UNK         0.3000 
    155 H155        0.3910  -22.2453  -42.8151 H         1 UNK         0.0600 
    156 H156        2.1198  -20.3872  -41.0918 H         1 UNK         0.0600 
    157 H157        2.3779  -22.1144  -41.3176 H         1 UNK         0.0600 
    158 H158        0.9363  -21.5465  -40.4885 H         1 UNK         0.0600 
    159 H159        0.2323  -19.2652  -42.5260 H         1 UNK         0.3000 
    160 H160       -3.0578  -19.3182  -43.6327 H         1 UNK         0.0600 
    161 H161       -3.7587  -18.0083  -41.6457 H         1 UNK         0.0600 
    162 H162       -2.3822  -18.6184  -40.7262 H         1 UNK         0.0600 
    163 H163       -3.6603  -19.7140  -41.2403 H         1 UNK         0.0600 
    164 H164       -1.4950  -17.2018  -42.5129 H         1 UNK         0.3000 
    165 H165        0.8277  -16.6887  -45.0453 H         1 UNK         0.0600 
    166 H166       -0.2166  -14.4958  -45.4734 H         1 UNK         0.0600 
    167 H167       -1.1763  -15.7506  -46.2388 H         1 UNK         0.0600 
    168 H168       -1.7278  -15.0277  -44.7352 H         1 UNK         0.0600 
    169 H169        0.1274  -14.9080  -43.0251 H         1 UNK         0.3000 
    170 H170        1.1090  -16.4179  -40.1408 H         1 UNK         0.0600 
    171 H171        3.4556  -16.7180  -40.8552 H         1 UNK         0.0600 
    172 H172        3.4458  -15.1472  -41.6398 H         1 UNK         0.0600 
    173 H173        3.2896  -15.2596  -39.8898 H         1 UNK         0.0600 
    174 H174        1.4852  -13.6995  -41.1732 H         1 UNK         0.3000 
    175 H175       -1.8682  -12.7422  -40.7253 H         1 UNK         0.0600 
    176 H176       -1.0965  -11.1376  -38.9982 H         1 UNK         0.0600 
    177 H177       -1.2351  -12.7449  -38.3049 H         1 UNK         0.0600 
    178 H178        0.3522  -12.1025  -38.7093 H         1 UNK         0.0600 
    179 H179        0.4588  -11.1465  -40.9946 H         1 UNK         0.3000 
    180 H180        0.1055  -10.7310  -44.3752 H         1 UNK         0.0600 
    181 H181        1.8678  -10.0161  -41.9626 H         1 UNK         0.0600 
    182 H182        0.3105   -9.2788  -42.3410 H         1 UNK         0.0600 
    183 H183        1.6659   -9.0750  -43.4330 H         1 UNK         0.0600 
    184 H184        1.9839  -11.5839  -45.1643 H         1 UNK         0.3000 
    185 H185        4.8609  -12.0324  -44.2321 H         1 UNK         0.0600 
    186 H186        3.9851  -14.9499  -43.9895 H         1 UNK         0.0600 
    187 H187        5.5439  -14.4307  -44.6277 H         1 UNK         0.0600 
    188 H188        5.1171  -14.0800  -42.9632 H         1 UNK         0.0600 
    189 H189        4.2863  -11.9905  -46.3430 H         1 UNK         0.3000 
    190 H190       -2.6534  -17.7128  -47.4323 H         1 UNK         0.3000 
    191 H191       -5.3503  -18.8284  -47.3919 H         1 UNK         0.0600 
    192 H192       -3.5818  -17.6513  -45.2161 H         1 UNK         0.0600 
    193 H193       -5.1838  -18.3120  -44.9128 H         1 UNK         0.0600 
    194 H194       -4.9848  -16.9348  -45.9839 H         1 UNK         0.0600 
    195 H195       -2.0974  -19.9719  -46.5113 H         1 UNK         0.3000 
    196 H196       -2.9232  -22.4769  -45.3557 H         1 UNK         0.0600 
    197 H197       -0.6137  -23.0186  -45.3949 H         1 UNK         0.0600 
    198 H198       -0.5787  -21.2651  -45.2723 H         1 UNK         0.0600 
    199 H199       -0.2694  -22.0391  -46.8091 H         1 UNK         0.0600 
    200 H200       -1.9655  -21.3910  -48.6259 H         1 UNK         0.3000 
    201 H201       -2.2681  -23.8607  -49.9755 H         1 UNK         0.0600 
    202 H202       -1.1112  -21.7582  -50.8437 H         1 UNK         0.0600 
    203 H203       -2.7073  -21.0958  -51.2044 H         1 UNK         0.0600 
    204 H204       -2.1610  -22.5582  -52.0067 H         1 UNK         0.0600 
    205 H205       -4.6738  -21.2838  -49.2878 H         1 UNK         0.3000 
    206 H206       -6.8417  -22.4391  -50.7241 H         1 UNK         0.0600 
    207 H207       -6.8103  -20.0685  -50.0029 H         1 UNK         0.0600 
    208 H208       -8.2315  -20.8835  -49.3696 H         1 UNK         0.0600 
    209 H209       -6.8671  -20.5566  -48.3095 H         1 UNK         0.0600 
    210 H210       -5.7532  -22.8692  -47.3317 H         1 UNK         0.3000 
    211 H211       -7.8434  -24.6487  -46.5380 H         1 UNK         0.0600 
    212 H212       -4.9840  -24.3824  -45.4661 H         1 UNK         0.0600 
    213 H213       -6.3191  -25.1890  -44.6564 H         1 UNK         0.0600 
    214 H214       -6.3775  -23.4527  -44.9223 H         1 UNK         0.0600 
    215 H215       -4.7463  -25.1746  -48.1902 H         1 UNK         0.3000 
    216 H216       -4.9688  -28.0707  -48.3095 H         1 UNK         0.0600 
    217 H217       -2.9543  -27.8713  -49.7237 H         1 UNK         0.0600 
    218 H218       -2.7770  -26.8508  -48.3050 H         1 UNK         0.0600 
    219 H219       -3.1747  -26.1342  -49.8652 H         1 UNK         0.0600 
    220 H220       -6.6979  -25.6793  -49.8858 H         1 UNK         0.3000 
    221 H221       -8.0993  -25.5370  -51.5505 H         1 UNK         0.0600 
    222 H222       -7.8329  -28.5505  -52.0036 H         1 UNK         0.0600 
    223 H223       -8.8935  -27.7978  -50.8121 H         1 UNK         0.0600 
    224 H224       -9.1539  -27.5168  -52.5247 H         1 UNK         0.0600 
    225 H225       -5.1452  -25.3535  -52.0476 H         1 UNK         0.3000 
    226 H226       -4.9733  -25.7285  -54.9960 H         1 UNK         0.0600 
    227 H227       -2.9154  -24.7576  -52.9382 H         1 UNK         0.0600 
    228 H228       -2.6223  -24.9807  -54.6589 H         1 UNK         0.0600 
    229 H229       -2.9941  -26.3674  -53.6467 H         1 UNK         0.0600 
    230 H230       -4.9728  -23.2620  -52.4629 H         1 UNK         0.3000 
    231 H231       -5.4529  -21.1143  -52.2962 H         1 UNK         0.0600 
    232 H232       -7.6558  -22.0092  -53.0862 H         1 UNK         0.0600 
    233 H233       -7.2365  -21.5653  -54.7394 H         1 UNK         0.0600 
    234 H234       -7.4377  -20.3217  -53.5118 H         1 UNK         0.0600 
    235 H235       -3.2095  -21.7890  -54.3947 H         1 UNK         0.3000 
    236 H236       -2.6193  -18.9999  -55.0435 H         1 UNK         0.0600 
    237 H237       -4.0698  -19.6398  -56.9704 H         1 UNK         0.0600 
    238 H238       -2.4089  -19.4425  -57.4960 H         1 UNK         0.0600 
    239 H239       -3.0716  -21.0586  -57.2731 H         1 UNK         0.0600 
    240 H240       -1.4033  -20.5223  -53.2206 H         1 UNK         0.3000 
    241 H241        0.4997  -21.2836  -52.4683 H         1 UNK         0.0600 
    242 H242        2.0019  -24.3225  -54.0958 H         1 UNK         0.3800 
    243 H243        2.7090  -22.8113  -53.5947 H         1 UNK         0.3800 
    244 H244        2.0677  -20.6346  -54.9920 H         1 UNK         0.0800 
    245 H245        1.4461  -19.3399  -54.0349 H         1 UNK         0.0800 
    246 H246        1.7536  -20.1413  -50.9632 H         1 UNK         0.0800 
    247 H247        3.4097  -19.7680  -50.5958 H         1 UNK         0.0800 
@<TRIPOS>BOND
     1    1    2 1    
     2    1  127 1    
     3    1  128 1    
     4    1  129 1    
     5    2    3 2    
     6    2    4 am   BACKBONE|DICT|INTERRES
     7    4    5 1    
     8    4  130 1    
     9    5    6 1    
    10    5   65 1    
    11    5  131 1    
    12    6    7 1    
    13    6  132 1    
    14    6  133 1    
    15    7    8 1    
    16    8    9 1    
    17    8  134 1    
    18    8  135 1    
    19    9   10 ar   
    20    9   14 ar   
    21   10   11 ar   
    22   10  136 1    
    23   11   12 ar   
    24   11  126 1    
    25   12   13 ar   
    26   12  137 1    
    27   13   14 ar   
    28   13   15 1    
    29   14  138 1    
    30   15   16 1    
    31   15  139 1    
    32   15  140 1    
    33   16   17 1    
    34   17   18 1    
    35   17  141 1    
    36   17  142 1    
    37   18   19 1    
    38   18   67 1    
    39   18  143 1    
    40   19   20 am   BACKBONE|DICT|INTERRES
    41   19  144 1    
    42   20   21 2    
    43   20   22 1    
    44   22   23 1    
    45   22   24 1    
    46   22  145 1    
    47   23  146 1    
    48   23  147 1    
    49   23  148 1    
    50   24   25 am   BACKBONE|DICT|INTERRES
    51   24  149 1    
    52   25   26 2    
    53   25   27 1    
    54   27   28 1    
    55   27   29 1    
    56   27  150 1    
    57   28  151 1    
    58   28  152 1    
    59   28  153 1    
    60   29   30 am   BACKBONE|DICT|INTERRES
    61   29  154 1    
    62   30   31 2    
    63   30   32 1    
    64   32   33 1    
    65   32   34 1    
    66   32  155 1    
    67   33  156 1    
    68   33  157 1    
    69   33  158 1    
    70   34   35 am   BACKBONE|DICT|INTERRES
    71   34  159 1    
    72   35   36 2    
    73   35   37 1    
    74   37   38 1    
    75   37   39 1    
    76   37  160 1    
    77   38  161 1    
    78   38  162 1    
    79   38  163 1    
    80   39   40 am   BACKBONE|DICT|INTERRES
    81   39  164 1    
    82   40   41 2    
    83   40   42 1    
    84   42   43 1    
    85   42   44 1    
    86   42  165 1    
    87   43  166 1    
    88   43  167 1    
    89   43  168 1    
    90   44   45 am   BACKBONE|DICT|INTERRES
    91   44  169 1    
    92   45   46 2    
    93   45   47 1    
    94   47   48 1    
    95   47   49 1    
    96   47  170 1    
    97   48  171 1    
    98   48  172 1    
    99   48  173 1    
   100   49   50 am   BACKBONE|DICT|INTERRES
   101   49  174 1    
   102   50   51 2    
   103   50   52 1    
   104   52   53 1    
   105   52   54 1    
   106   52  175 1    
   107   53  176 1    
   108   53  177 1    
   109   53  178 1    
   110   54   55 am   BACKBONE|DICT|INTERRES
   111   54  179 1    
   112   55   56 2    
   113   55   57 1    
   114   57   58 1    
   115   57   59 1    
   116   57  180 1    
   117   58  181 1    
   118   58  182 1    
   119   58  183 1    
   120   59   60 am   BACKBONE|DICT|INTERRES
   121   59  184 1    
   122   60   61 2    
   123   60   62 1    
   124   62   63 1    
   125   62   64 1    
   126   62  185 1    
   127   63  186 1    
   128   63  187 1    
   129   63  188 1    
   130   64   65 am   BACKBONE|DICT|INTERRES
   131   64  189 1    
   132   65   66 2    
   133   67   68 2    
   134   67   69 am   BACKBONE|DICT|INTERRES
   135   69   70 1    
   136   69  190 1    
   137   70   71 1    
   138   70   72 1    
   139   70  191 1    
   140   71  192 1    
   141   71  193 1    
   142   71  194 1    
   143   72   73 2    
   144   72   74 am   BACKBONE|DICT|INTERRES
   145   74   75 1    
   146   74  195 1    
   147   75   76 1    
   148   75   77 1    
   149   75  196 1    
   150   76  197 1    
   151   76  198 1    
   152   76  199 1    
   153   77   78 2    
   154   77   79 am   BACKBONE|DICT|INTERRES
   155   79   80 1    
   156   79  200 1    
   157   80   81 1    
   158   80   82 1    
   159   80  201 1    
   160   81  202 1    
   161   81  203 1    
   162   81  204 1    
   163   82   83 2    
   164   82   84 am   BACKBONE|DICT|INTERRES
   165   84   85 1    
   166   84  205 1    
   167   85   86 1    
   168   85   87 1    
   169   85  206 1    
   170   86  207 1    
   171   86  208 1    
   172   86  209 1    
   173   87   88 2    
   174   87   89 am   BACKBONE|DICT|INTERRES
   175   89   90 1    
   176   89  210 1    
   177   90   91 1    
   178   90   92 1    
   179   90  211 1    
   180   91  212 1    
   181   91  213 1    
   182   91  214 1    
   183   92   93 2    
   184   92   94 am   BACKBONE|DICT|INTERRES
   185   94   95 1    
   186   94  215 1    
   187   95   96 1    
   188   95   97 1    
   189   95  216 1    
   190   96  217 1    
   191   96  218 1    
   192   96  219 1    
   193   97   98 2    
   194   97   99 am   BACKBONE|DICT|INTERRES
   195   99  100 1    
   196   99  220 1    
   197  100  101 1    
   198  100  102 1    
   199  100  221 1    
   200  101  222 1    
   201  101  223 1    
   202  101  224 1    
   203  102  103 2    
   204  102  104 am   BACKBONE|DICT|INTERRES
   205  104  105 1    
   206  104  225 1    
   207  105  106 1    
   208  105  107 1    
   209  105  226 1    
   210  106  227 1    
   211  106  228 1    
   212  106  229 1    
   213  107  108 2    
   214  107  109 am   BACKBONE|DICT|INTERRES
   215  109  110 1    
   216  109  230 1    
   217  110  111 1    
   218  110  112 1    
   219  110  231 1    
   220  111  232 1    
   221  111  233 1    
   222  111  234 1    
   223  112  113 2    
   224  112  114 am   BACKBONE|DICT|INTERRES
   225  114  115 1    
   226  114  235 1    
   227  115  116 1    
   228  115  117 1    
   229  115  236 1    
   230  116  237 1    
   231  116  238 1    
   232  116  239 1    
   233  117  118 2    
   234  117  119 am   BACKBONE|DICT|INTERRES
   235  119  120 1    
   236  119  240 1    
   237  120  121 1    
   238  120  124 1    
   239  120  241 1    
   240  121  122 am   BACKBONE|DICT|INTERRES
   241  121  123 2    
   242  122  242 1    
   243  122  243 1    
   244  124  125 1    
   245  124  244 1    
   246  124  245 1    
   247  125  126 1    
   248  126  246 1    
   249  126  247 1    
@<TRIPOS>SUBSTRUCTURE
     1 UNK         1 GROUP             0       ****    0 ROOT    
