@<TRIPOS>MOLECULE
3R540
247   249    1
SMALL
USER_CHARGES


@<TRIPOS>ATOM
      1 CA         -3.8883  -10.1401  -46.5416 C.3       0 UNK        -0.1800 
      2 C          -2.7533  -11.1418  -46.6909 C.2       0 UNK         0.5000 
      3 O          -1.9690  -11.3223  -45.7603 O.2       0 UNK        -0.5000 
      4 N          -2.6672  -11.8107  -47.8483 N.am      1 UNK        -0.5000 
      5 CA         -1.6318  -12.8028  -48.1648 C.3       1 UNK         0.1400 
      6 C6         -1.6588  -13.1834  -49.6650 C.3       23 UNK        -0.0398 
      7 S7         -0.1286  -13.9958  -50.2427 S.3       23 UNK        -0.2404 
      8 C8         -0.7700  -15.6486  -50.6388 C.3       23 UNK        -0.0205 
      9 C9          0.3363  -16.6033  -51.0560 C.ar      23 UNK        -0.0193 
     10 C10         0.6655  -16.7662  -52.4047 C.ar      23 UNK        -0.1150 
     11 C11         1.6437  -17.6889  -52.7912 C.ar      23 UNK        -0.0193 
     12 C12         2.2878  -18.4566  -51.8157 C.ar      23 UNK        -0.1150 
     13 C13         1.9659  -18.3023  -50.4638 C.ar      23 UNK        -0.0193 
     14 C14         1.0052  -17.3580  -50.0905 C.ar      23 UNK        -0.1150 
     15 C15         2.6450  -19.1641  -49.4090 C.3       23 UNK        -0.0205 
     16 S16         1.7203  -20.7026  -49.0871 S.3       23 UNK        -0.2404 
     17 C17         0.2583  -20.0608  -48.2071 C.3       23 UNK        -0.0398 
     18 CA         -0.7115  -21.1669  -47.7466 C.3       11 UNK         0.1400 
     19 N          -0.0893  -22.1130  -46.8160 N.am      11 UNK        -0.5000 
     20 C          -0.6281  -23.2891  -46.4672 C.2       10 UNK         0.5000 
     21 O          -1.7061  -23.6998  -46.8936 O.2       10 UNK        -0.5000 
     22 CA          0.1407  -24.1132  -45.4201 C.3       10 UNK         0.1400 
     23 CB          1.3287  -24.8420  -46.0653 C.3       10 UNK        -0.1800 
     24 N           0.6179  -23.3036  -44.2973 N.am      10 UNK        -0.5000 
     25 C          -0.1585  -22.5960  -43.4679 C.2       9 UNK         0.5000 
     26 O          -1.3827  -22.5345  -43.5762 O.2       9 UNK        -0.5000 
     27 CA          0.5293  -21.7897  -42.3523 C.3       9 UNK         0.1400 
     28 CB          0.6695  -22.6266  -41.0678 C.3       9 UNK        -0.1800 
     29 N           1.8036  -21.1688  -42.7320 N.am      9 UNK        -0.5000 
     30 C           2.9907  -21.7342  -42.9959 C.2       8 UNK         0.5000 
     31 O           3.1788  -22.9491  -43.0619 O.2       8 UNK        -0.5000 
     32 CA          4.1665  -20.7675  -43.2240 C.3       8 UNK         0.1400 
     33 CB          4.2677  -20.3783  -44.7081 C.3       8 UNK        -0.1800 
     34 N           4.0269  -19.5598  -42.4059 N.am      8 UNK        -0.5000 
     35 C           4.3670  -19.4804  -41.1103 C.2       7 UNK         0.5000 
     36 O           4.9434  -20.3814  -40.4998 O.2       7 UNK        -0.5000 
     37 CA          3.9902  -18.1844  -40.3628 C.3       7 UNK         0.1400 
     38 CB          5.1178  -17.1477  -40.4799 C.3       7 UNK        -0.1800 
     39 N           2.7430  -17.5898  -40.8455 N.am      7 UNK        -0.5000 
     40 C           1.5214  -18.1127  -40.6618 C.2       6 UNK         0.5000 
     41 O           1.3011  -19.1064  -39.9702 O.2       6 UNK        -0.5000 
     42 CA          0.3518  -17.4377  -41.4094 C.3       6 UNK         0.1400 
     43 CB         -0.4173  -16.4973  -40.4718 C.3       6 UNK        -0.1800 
     44 N           0.7651  -16.7024  -42.6106 N.am      6 UNK        -0.5000 
     45 C           1.3442  -17.2625  -43.6822 C.2       5 UNK         0.5000 
     46 O           1.5683  -18.4714  -43.7568 O.2       5 UNK        -0.5000 
     47 CA          1.7835  -16.3501  -44.8440 C.3       5 UNK         0.1400 
     48 CB          1.3542  -16.9331  -46.1964 C.3       5 UNK        -0.1800 
     49 N           1.2935  -14.9768  -44.7359 N.am      5 UNK        -0.5000 
     50 C           1.8988  -13.9963  -44.0534 C.2       4 UNK         0.5000 
     51 O           2.9342  -14.1531  -43.4057 O.2       4 UNK        -0.5000 
     52 CA          1.2051  -12.6213  -44.0671 C.3       4 UNK         0.1400 
     53 CB          1.4977  -11.8751  -45.3776 C.3       4 UNK        -0.1800 
     54 N          -0.2424  -12.7262  -43.8803 N.am      4 UNK        -0.5000 
     55 C          -0.8354  -13.1677  -42.7624 C.2       3 UNK         0.5000 
     56 O          -0.2214  -13.4811  -41.7432 O.2       3 UNK        -0.5000 
     57 CA         -2.3649  -13.3237  -42.8044 C.3       3 UNK         0.1400 
     58 CB         -3.0684  -11.9873  -42.5217 C.3       3 UNK        -0.1800 
     59 N          -2.8148  -13.8618  -44.0886 N.am      3 UNK        -0.5000 
     60 C          -2.6865  -15.1477  -44.4452 C.2       2 UNK         0.5000 
     61 O          -2.2321  -16.0166  -43.7043 O.2       2 UNK        -0.5000 
     62 CA         -3.1273  -15.5312  -45.8709 C.3       2 UNK         0.1400 
     63 CB         -4.6061  -15.9472  -45.8716 C.3       2 UNK        -0.1800 
     64 N          -2.9096  -14.4618  -46.8515 N.am      2 UNK        -0.5000 
     65 C          -1.6951  -14.0358  -47.2334 C.2       1 UNK         0.5000 
     66 O          -0.6494  -14.5374  -46.8246 O.2       1 UNK        -0.5000 
     67 C          -1.9822  -20.5253  -47.1535 C.2       11 UNK         0.5000 
     68 O          -2.9295  -20.2645  -47.8958 O.2       11 UNK        -0.5000 
     69 N          -1.9864  -20.2901  -45.8337 N.am      12 UNK        -0.5000 
     70 CA         -3.1273  -19.7479  -45.0972 C.3       12 UNK         0.1400 
     71 CB         -2.6816  -19.3188  -43.6912 C.3       12 UNK        -0.1800 
     72 C          -4.2874  -20.7564  -45.0406 C.2       12 UNK         0.5000 
     73 O          -5.4234  -20.3922  -45.3448 O.2       12 UNK        -0.5000 
     74 N          -3.9645  -22.0200  -44.7274 N.am      13 UNK        -0.5000 
     75 CA         -4.8871  -23.1586  -44.7444 C.3       13 UNK         0.1400 
     76 CB         -4.1729  -24.3951  -44.1786 C.3       13 UNK        -0.1800 
     77 C          -5.4546  -23.4524  -46.1471 C.2       13 UNK         0.5000 
     78 O          -6.6173  -23.8383  -46.2665 O.2       13 UNK        -0.5000 
     79 N          -4.6393  -23.2129  -47.1825 N.am      14 UNK        -0.5000 
     80 CA         -5.0039  -23.2917  -48.5974 C.3       14 UNK         0.1400 
     81 CB         -3.7293  -23.5352  -49.4203 C.3       14 UNK        -0.1800 
     82 C          -5.7799  -22.0619  -49.1203 C.2       14 UNK         0.5000 
     83 O          -5.9943  -21.9752  -50.3306 O.2       14 UNK        -0.5000 
     84 N          -6.1830  -21.1475  -48.2231 N.am      15 UNK        -0.5000 
     85 CA         -6.9885  -19.9467  -48.4614 C.3       15 UNK         0.1400 
     86 CB         -8.3942  -20.3213  -48.9772 C.3       15 UNK        -0.1800 
     87 C          -6.2628  -18.9325  -49.3628 C.2       15 UNK         0.5000 
     88 O          -6.7109  -18.6571  -50.4755 O.2       15 UNK        -0.5000 
     89 N          -5.1258  -18.4244  -48.8655 N.am      16 UNK        -0.5000 
     90 CA         -4.1956  -17.5164  -49.5520 C.3       16 UNK         0.1400 
     91 CB         -4.8585  -16.1587  -49.8731 C.3       16 UNK        -0.1800 
     92 C          -3.5615  -18.1834  -50.7889 C.2       16 UNK         0.5000 
     93 O          -3.4347  -17.5587  -51.8423 O.2       16 UNK        -0.5000 
     94 N          -3.2034  -19.4632  -50.6194 N.am      17 UNK        -0.5000 
     95 CA         -2.6301  -20.3743  -51.6100 C.3       17 UNK         0.1400 
     96 CB         -1.2322  -19.9020  -52.0490 C.3       17 UNK        -0.1800 
     97 C          -3.5449  -20.6815  -52.8142 C.2       17 UNK         0.5000 
     98 O          -3.0535  -21.1951  -53.8183 O.2       17 UNK        -0.5000 
     99 N          -4.8562  -20.4253  -52.7016 N.am      18 UNK        -0.5000 
    100 CA        -5.8452  -20.7020  -53.7469 C.3       18 UNK         0.1400 
    101 CB        -7.2099  -20.1335  -53.3336 C.3       18 UNK        -0.1800 
    102 C         -5.9603  -22.1999  -54.0828 C.2       18 UNK         0.5000 
    103 O         -6.0293  -22.5550  -55.2600 O.2       18 UNK        -0.5000 
    104 N         -5.9390  -23.0497  -53.0471 N.am      19 UNK        -0.5000 
    105 CA        -5.9472  -24.5074  -53.1880 C.3       19 UNK         0.1400 
    106 CB        -6.5065  -25.1326  -51.9010 C.3       19 UNK        -0.1800 
    107 C         -4.5546  -25.0868  -53.5113 C.2       19 UNK         0.5000 
    108 O         -4.4725  -26.1857  -54.0610 O.2       19 UNK        -0.5000 
    109 N         -3.4899  -24.3548  -53.1549 N.am      20 UNK        -0.5000 
    110 CA        -2.0956  -24.7638  -53.3443 C.3       20 UNK         0.1400 
    111 CB        -1.2283  -24.1102  -52.2562 C.3       20 UNK        -0.1800 
    112 C         -1.5487  -24.4104  -54.7394 C.2       20 UNK         0.5000 
    113 O         -0.5876  -25.0376  -55.1845 O.2       20 UNK        -0.5000 
    114 N         -2.1321  -23.3883  -55.3805 N.am      21 UNK        -0.5000 
    115 CA        -1.8005  -22.7818  -56.6767 C.3       21 UNK         0.1400 
    116 CB        -1.8373  -23.8157  -57.8185 C.3       21 UNK        -0.1800 
    117 C         -0.4880  -21.9699  -56.6910 C.2       21 UNK         0.5000 
    118 O         -0.4243  -20.9703  -57.4058 O.2       21 UNK        -0.5000 
    119 N          0.5130  -22.4081  -55.9147 N.am      22 UNK        -0.5000 
    120 CA         1.8264  -21.7881  -55.6457 C.3       22 UNK         0.1400 
    121 C          2.7346  -21.4590  -56.8723 C.2       22 UNK         0.5000 
    122 N          2.4553  -21.9734  -58.0630 N.am      22 UNK        -0.7600 
    123 O          3.7419  -20.7693  -56.7363 O.2       22 UNK        -0.5000 
    124 C124        1.7707  -20.6639  -54.5687 C.3       23 UNK        -0.0398 
    125 S125        0.9635  -19.1041  -55.0798 S.3       23 UNK        -0.2404 
    126 C126        2.0012  -17.8511  -54.2619 C.3       23 UNK        -0.0205 
    127 H127       -4.5162  -10.1023  -47.4319 H         1 UNK         0.0600 
    128 H128       -4.5160  -10.4099  -45.6923 H         1 UNK         0.0600 
    129 H129       -3.4854   -9.1428  -46.3655 H         1 UNK         0.0600 
    130 H130       -3.3401  -11.6206  -48.5775 H         1 UNK         0.3000 
    131 H131       -0.6744  -12.3142  -47.9709 H         1 UNK         0.0600 
    132 H132       -1.7688  -12.2800  -50.2667 H         1 UNK         0.0800 
    133 H133       -2.5307  -13.7953  -49.8963 H         1 UNK         0.0800 
    134 H134       -1.5118  -15.5678  -51.4350 H         1 UNK         0.0800 
    135 H135       -1.2915  -16.0508  -49.7692 H         1 UNK         0.0800 
    136 H136        0.1505  -16.1840  -53.1558 H         1 UNK         0.1150 
    137 H137        3.0341  -19.1813  -52.1082 H         1 UNK         0.1150 
    138 H138        0.7533  -17.2287  -49.0482 H         1 UNK         0.1150 
    139 H139        3.6515  -19.4246  -49.7395 H         1 UNK         0.0800 
    140 H140        2.7690  -18.6041  -48.4817 H         1 UNK         0.0800 
    141 H141        0.5944  -19.4751  -47.3529 H         1 UNK         0.0800 
    142 H142       -0.2657  -19.3755  -48.8731 H         1 UNK         0.0800 
    143 H143       -1.0156  -21.7265  -48.6331 H         1 UNK         0.0600 
    144 H144        0.8067  -21.8537  -46.4307 H         1 UNK         0.3000 
    145 H145       -0.5457  -24.8625  -45.0205 H         1 UNK         0.0600 
    146 H146        1.8242  -25.4973  -45.3487 H         1 UNK         0.0600 
    147 H147        0.9998  -25.4630  -46.8998 H         1 UNK         0.0600 
    148 H148        2.0726  -24.1423  -46.4485 H         1 UNK         0.0600 
    149 H149        1.6141  -23.3194  -44.0991 H         1 UNK         0.3000 
    150 H150       -0.1357  -20.9559  -42.1221 H         1 UNK         0.0600 
    151 H151       -0.3037  -22.9855  -40.7305 H         1 UNK         0.0600 
    152 H152        1.0958  -22.0338  -40.2581 H         1 UNK         0.0600 
    153 H153        1.3047  -23.5004  -41.2155 H         1 UNK         0.0600 
    154 H154        1.7598  -20.1595  -42.8358 H         1 UNK         0.3000 
    155 H155        5.0874  -21.2849  -42.9466 H         1 UNK         0.0600 
    156 H156        4.4233  -21.2604  -45.3305 H         1 UNK         0.0600 
    157 H157        5.1081  -19.7064  -44.8825 H         1 UNK         0.0600 
    158 H158        3.3643  -19.8841  -45.0660 H         1 UNK         0.0600 
    159 H159        3.5108  -18.7966  -42.8216 H         1 UNK         0.3000 
    160 H160        3.8637  -18.4342  -39.3072 H         1 UNK         0.0600 
    161 H161        5.2771  -16.8399  -41.5142 H         1 UNK         0.0600 
    162 H162        4.8953  -16.2553  -39.8945 H         1 UNK         0.0600 
    163 H163        6.0602  -17.5523  -40.1085 H         1 UNK         0.0600 
    164 H164        2.8244  -16.7571  -41.4109 H         1 UNK         0.3000 
    165 H165       -0.3296  -18.2295  -41.7266 H         1 UNK         0.0600 
    166 H166       -1.2894  -16.0730  -40.9696 H         1 UNK         0.0600 
    167 H167       -0.7749  -17.0300  -39.5898 H         1 UNK         0.0600 
    168 H168        0.2091  -15.6737  -40.1273 H         1 UNK         0.0600 
    169 H169        0.5915  -15.7069  -42.6168 H         1 UNK         0.3000 
    170 H170        2.8751  -16.3327  -44.8311 H         1 UNK         0.0600 
    171 H171        1.8472  -17.8890  -46.3678 H         1 UNK         0.0600 
    172 H172        0.2763  -17.0935  -46.2448 H         1 UNK         0.0600 
    173 H173        1.6359  -16.2730  -47.0170 H         1 UNK         0.0600 
    174 H174        0.4651  -14.7564  -45.2832 H         1 UNK         0.3000 
    175 H175        1.6096  -12.0324  -43.2413 H         1 UNK         0.0600 
    176 H176        1.1172  -12.4169  -46.2438 H         1 UNK         0.0600 
    177 H177        1.0428  -10.8843  -45.3774 H         1 UNK         0.0600 
    178 H178        2.5709  -11.7418  -45.5193 H         1 UNK         0.0600 
    179 H179       -0.8282  -12.4254  -44.6541 H         1 UNK         0.3000 
    180 H180       -2.6505  -14.0234  -42.0157 H         1 UNK         0.0600 
    181 H181       -2.7803  -11.5976  -41.5446 H         1 UNK         0.0600 
    182 H182       -2.8173  -11.2277  -43.2618 H         1 UNK         0.0600 
    183 H183       -4.1520  -12.1058  -42.5172 H         1 UNK         0.0600 
    184 H184       -3.1522  -13.1956  -44.7676 H         1 UNK         0.3000 
    185 H185       -2.5320  -16.3958  -46.1731 H         1 UNK         0.0600 
    186 H186       -4.8982  -16.3756  -46.8276 H         1 UNK         0.0600 
    187 H187       -4.8005  -16.7055  -45.1116 H         1 UNK         0.0600 
    188 H188       -5.2635  -15.1019  -45.6648 H         1 UNK         0.0600 
    189 H189       -3.7270  -13.9831  -47.2005 H         1 UNK         0.3000 
    190 H190       -1.1870  -20.5729  -45.2872 H         1 UNK         0.3000 
    191 H191       -3.4764  -18.8587  -45.6258 H         1 UNK         0.0600 
    192 H192       -3.4768  -18.7708  -43.1846 H         1 UNK         0.0600 
    193 H193       -1.8133  -18.6616  -43.7372 H         1 UNK         0.0600 
    194 H194       -2.4215  -20.1698  -43.0626 H         1 UNK         0.0600 
    195 H195       -3.0051  -22.2235  -44.4559 H         1 UNK         0.3000 
    196 H196       -5.7272  -22.9170  -44.0902 H         1 UNK         0.0600 
    197 H197       -4.8412  -25.2566  -44.1537 H         1 UNK         0.0600 
    198 H198       -3.8292  -24.2192  -43.1591 H         1 UNK         0.0600 
    199 H199       -3.3050  -24.6679  -44.7802 H         1 UNK         0.0600 
    200 H200       -3.6747  -22.9727  -46.9842 H         1 UNK         0.3000 
    201 H201       -5.6597  -24.1532  -48.7348 H         1 UNK         0.0600 
    202 H202       -3.2460  -24.4676  -49.1283 H         1 UNK         0.0600 
    203 H203       -3.0102  -22.7306  -49.2826 H         1 UNK         0.0600 
    204 H204       -3.9446  -23.6052  -50.4851 H         1 UNK         0.0600 
    205 H205       -5.9083  -21.2862  -47.2584 H         1 UNK         0.3000 
    206 H206       -7.1176  -19.4644  -47.4912 H         1 UNK         0.0600 
    207 H207       -8.8952  -21.0043  -48.2912 H         1 UNK         0.0600 
    208 H208       -9.0222  -19.4346  -49.0700 H         1 UNK         0.0600 
    209 H209       -8.3593  -20.7979  -49.9571 H         1 UNK         0.0600 
    210 H210       -4.7978  -18.7946  -47.9834 H         1 UNK         0.3000 
    211 H211       -3.3789  -17.3278  -48.8536 H         1 UNK         0.0600 
    212 H212       -5.6441  -16.2563  -50.6225 H         1 UNK         0.0600 
    213 H213       -4.1272  -15.4553  -50.2692 H         1 UNK         0.0600 
    214 H214       -5.3001  -15.7039  -48.9880 H         1 UNK         0.0600 
    215 H215       -3.3351  -19.8556  -49.6903 H         1 UNK         0.3000 
    216 H216       -2.4998  -21.3236  -51.0925 H         1 UNK         0.0600 
    217 H217       -1.2781  -18.9750  -52.6204 H         1 UNK         0.0600 
    218 H218       -0.7509  -20.6457  -52.6818 H         1 UNK         0.0600 
    219 H219       -0.5785  -19.7383  -51.1944 H         1 UNK         0.0600 
    220 H220       -5.2103  -20.0392  -51.8359 H         1 UNK         0.3000 
    221 H221       -5.5227  -20.1841  -54.6525 H         1 UNK         0.0600 
    222 H222       -7.5645  -20.5780  -52.4027 H         1 UNK         0.0600 
    223 H223       -7.1590  -19.0540  -53.1910 H         1 UNK         0.0600 
    224 H224       -7.9632  -20.3251  -54.0987 H         1 UNK         0.0600 
    225 H225       -5.9212  -22.6690  -52.1030 H         1 UNK         0.3000 
    226 H226       -6.6155  -24.7788  -54.0080 H         1 UNK         0.0600 
    227 H227       -7.4974  -24.7413  -51.6698 H         1 UNK         0.0600 
    228 H228       -6.5994  -26.2146  -52.0023 H         1 UNK         0.0600 
    229 H229       -5.8621  -24.9398  -51.0447 H         1 UNK         0.0600 
    230 H230       -3.6520  -23.4440  -52.7547 H         1 UNK         0.3000 
    231 H231       -2.0215  -25.8471  -53.2263 H         1 UNK         0.0600 
    232 H232       -1.2411  -23.0235  -52.3289 H         1 UNK         0.0600 
    233 H233       -1.5667  -24.3880  -51.2583 H         1 UNK         0.0600 
    234 H234       -0.1887  -24.4289  -52.3430 H         1 UNK         0.0600 
    235 H235       -2.8181  -22.8574  -54.8533 H         1 UNK         0.3000 
    236 H236       -2.6023  -22.0655  -56.8635 H         1 UNK         0.0600 
    237 H237       -2.7845  -24.3548  -57.8314 H         1 UNK         0.0600 
    238 H238       -1.7289  -23.3257  -58.7868 H         1 UNK         0.0600 
    239 H239       -1.0339  -24.5478  -57.7356 H         1 UNK         0.0600 
    240 H240        0.3516  -23.2943  -55.4492 H         1 UNK         0.3000 
    241 H241        2.3765  -22.6004  -55.1694 H         1 UNK         0.0600 
    242 H242        3.0558  -21.7696  -58.8464 H         1 UNK         0.3800 
    243 H243        1.6244  -22.5270  -58.1963 H         1 UNK         0.3800 
    244 H244        2.7842  -20.4431  -54.2320 H         1 UNK         0.0800 
    245 H245        1.2566  -21.0363  -53.6835 H         1 UNK         0.0800 
    246 H246        3.0567  -18.1019  -54.3768 H         1 UNK         0.0800 
    247 H247        1.8633  -16.8990  -54.7765 H         1 UNK         0.0800 
@<TRIPOS>BOND
     1    1    2 1    
     2    1  127 1    
     3    1  128 1    
     4    1  129 1    
     5    2    3 2    
     6    2    4 am   BACKBONE|DICT|INTERRES
     7    4    5 1    
     8    4  130 1    
     9    5    6 1    
    10    5   65 1    
    11    5  131 1    
    12    6    7 1    
    13    6  132 1    
    14    6  133 1    
    15    7    8 1    
    16    8    9 1    
    17    8  134 1    
    18    8  135 1    
    19    9   10 ar   
    20    9   14 ar   
    21   10   11 ar   
    22   10  136 1    
    23   11   12 ar   
    24   11  126 1    
    25   12   13 ar   
    26   12  137 1    
    27   13   14 ar   
    28   13   15 1    
    29   14  138 1    
    30   15   16 1    
    31   15  139 1    
    32   15  140 1    
    33   16   17 1    
    34   17   18 1    
    35   17  141 1    
    36   17  142 1    
    37   18   19 1    
    38   18   67 1    
    39   18  143 1    
    40   19   20 am   BACKBONE|DICT|INTERRES
    41   19  144 1    
    42   20   21 2    
    43   20   22 1    
    44   22   23 1    
    45   22   24 1    
    46   22  145 1    
    47   23  146 1    
    48   23  147 1    
    49   23  148 1    
    50   24   25 am   BACKBONE|DICT|INTERRES
    51   24  149 1    
    52   25   26 2    
    53   25   27 1    
    54   27   28 1    
    55   27   29 1    
    56   27  150 1    
    57   28  151 1    
    58   28  152 1    
    59   28  153 1    
    60   29   30 am   BACKBONE|DICT|INTERRES
    61   29  154 1    
    62   30   31 2    
    63   30   32 1    
    64   32   33 1    
    65   32   34 1    
    66   32  155 1    
    67   33  156 1    
    68   33  157 1    
    69   33  158 1    
    70   34   35 am   BACKBONE|DICT|INTERRES
    71   34  159 1    
    72   35   36 2    
    73   35   37 1    
    74   37   38 1    
    75   37   39 1    
    76   37  160 1    
    77   38  161 1    
    78   38  162 1    
    79   38  163 1    
    80   39   40 am   BACKBONE|DICT|INTERRES
    81   39  164 1    
    82   40   41 2    
    83   40   42 1    
    84   42   43 1    
    85   42   44 1    
    86   42  165 1    
    87   43  166 1    
    88   43  167 1    
    89   43  168 1    
    90   44   45 am   BACKBONE|DICT|INTERRES
    91   44  169 1    
    92   45   46 2    
    93   45   47 1    
    94   47   48 1    
    95   47   49 1    
    96   47  170 1    
    97   48  171 1    
    98   48  172 1    
    99   48  173 1    
   100   49   50 am   BACKBONE|DICT|INTERRES
   101   49  174 1    
   102   50   51 2    
   103   50   52 1    
   104   52   53 1    
   105   52   54 1    
   106   52  175 1    
   107   53  176 1    
   108   53  177 1    
   109   53  178 1    
   110   54   55 am   BACKBONE|DICT|INTERRES
   111   54  179 1    
   112   55   56 2    
   113   55   57 1    
   114   57   58 1    
   115   57   59 1    
   116   57  180 1    
   117   58  181 1    
   118   58  182 1    
   119   58  183 1    
   120   59   60 am   BACKBONE|DICT|INTERRES
   121   59  184 1    
   122   60   61 2    
   123   60   62 1    
   124   62   63 1    
   125   62   64 1    
   126   62  185 1    
   127   63  186 1    
   128   63  187 1    
   129   63  188 1    
   130   64   65 am   BACKBONE|DICT|INTERRES
   131   64  189 1    
   132   65   66 2    
   133   67   68 2    
   134   67   69 am   BACKBONE|DICT|INTERRES
   135   69   70 1    
   136   69  190 1    
   137   70   71 1    
   138   70   72 1    
   139   70  191 1    
   140   71  192 1    
   141   71  193 1    
   142   71  194 1    
   143   72   73 2    
   144   72   74 am   BACKBONE|DICT|INTERRES
   145   74   75 1    
   146   74  195 1    
   147   75   76 1    
   148   75   77 1    
   149   75  196 1    
   150   76  197 1    
   151   76  198 1    
   152   76  199 1    
   153   77   78 2    
   154   77   79 am   BACKBONE|DICT|INTERRES
   155   79   80 1    
   156   79  200 1    
   157   80   81 1    
   158   80   82 1    
   159   80  201 1    
   160   81  202 1    
   161   81  203 1    
   162   81  204 1    
   163   82   83 2    
   164   82   84 am   BACKBONE|DICT|INTERRES
   165   84   85 1    
   166   84  205 1    
   167   85   86 1    
   168   85   87 1    
   169   85  206 1    
   170   86  207 1    
   171   86  208 1    
   172   86  209 1    
   173   87   88 2    
   174   87   89 am   BACKBONE|DICT|INTERRES
   175   89   90 1    
   176   89  210 1    
   177   90   91 1    
   178   90   92 1    
   179   90  211 1    
   180   91  212 1    
   181   91  213 1    
   182   91  214 1    
   183   92   93 2    
   184   92   94 am   BACKBONE|DICT|INTERRES
   185   94   95 1    
   186   94  215 1    
   187   95   96 1    
   188   95   97 1    
   189   95  216 1    
   190   96  217 1    
   191   96  218 1    
   192   96  219 1    
   193   97   98 2    
   194   97   99 am   BACKBONE|DICT|INTERRES
   195   99  100 1    
   196   99  220 1    
   197  100  101 1    
   198  100  102 1    
   199  100  221 1    
   200  101  222 1    
   201  101  223 1    
   202  101  224 1    
   203  102  103 2    
   204  102  104 am   BACKBONE|DICT|INTERRES
   205  104  105 1    
   206  104  225 1    
   207  105  106 1    
   208  105  107 1    
   209  105  226 1    
   210  106  227 1    
   211  106  228 1    
   212  106  229 1    
   213  107  108 2    
   214  107  109 am   BACKBONE|DICT|INTERRES
   215  109  110 1    
   216  109  230 1    
   217  110  111 1    
   218  110  112 1    
   219  110  231 1    
   220  111  232 1    
   221  111  233 1    
   222  111  234 1    
   223  112  113 2    
   224  112  114 am   BACKBONE|DICT|INTERRES
   225  114  115 1    
   226  114  235 1    
   227  115  116 1    
   228  115  117 1    
   229  115  236 1    
   230  116  237 1    
   231  116  238 1    
   232  116  239 1    
   233  117  118 2    
   234  117  119 am   BACKBONE|DICT|INTERRES
   235  119  120 1    
   236  119  240 1    
   237  120  121 1    
   238  120  124 1    
   239  120  241 1    
   240  121  122 am   BACKBONE|DICT|INTERRES
   241  121  123 2    
   242  122  242 1    
   243  122  243 1    
   244  124  125 1    
   245  124  244 1    
   246  124  245 1    
   247  125  126 1    
   248  126  246 1    
   249  126  247 1    
@<TRIPOS>SUBSTRUCTURE
     1 UNK         1 GROUP             0       ****    0 ROOT    
