@<TRIPOS>MOLECULE
3R540
247   249    1
SMALL
USER_CHARGES


@<TRIPOS>ATOM
      1 CA          4.7257  -18.0479  -47.8913 C.3       0 UNK        -0.1800 
      2 C           4.4833  -16.8046  -47.0502 C.2       0 UNK         0.5000 
      3 O           4.6423  -16.8475  -45.8305 O.2       0 UNK        -0.5000 
      4 N           4.1272  -15.6877  -47.6989 N.am      1 UNK        -0.5000 
      5 CA          3.8156  -14.3862  -47.0831 C.3       1 UNK         0.1400 
      6 C6          3.2466  -13.3894  -48.1251 C.3       23 UNK        -0.0398 
      7 S7          1.4814  -13.6879  -48.4580 S.3       23 UNK        -0.2404 
      8 C8          1.5169  -14.7083  -49.9602 C.3       23 UNK        -0.0205 
      9 C9          0.1017  -15.0632  -50.3880 C.ar      23 UNK        -0.0193 
     10 C10        -0.5361  -14.3435  -51.4035 C.ar      23 UNK        -0.1150 
     11 C11        -1.8479  -14.6533  -51.7780 C.ar      23 UNK        -0.0193 
     12 C12        -2.5234  -15.6851  -51.1192 C.ar      23 UNK        -0.1150 
     13 C13        -1.8881  -16.4246  -50.1200 C.ar      23 UNK        -0.0193 
     14 C14        -0.5771  -16.1083  -49.7557 C.ar      23 UNK        -0.1150 
     15 C15        -2.6137  -17.5753  -49.4494 C.3       23 UNK        -0.0205 
     16 S16        -2.3663  -19.1104  -50.3790 S.3       23 UNK        -0.2404 
     17 C17        -3.2023  -20.3140  -49.3029 C.3       23 UNK        -0.0398 
     18 CA         -2.1989  -21.2428  -48.5891 C.3       11 UNK         0.1400 
     19 N          -1.3150  -20.5296  -47.6649 N.am      11 UNK        -0.5000 
     20 C          -0.2127  -21.0559  -47.1161 C.2       10 UNK         0.5000 
     21 O           0.1788  -22.2043  -47.3245 O.2       10 UNK        -0.5000 
     22 CA          0.5499  -20.1548  -46.1330 C.3       10 UNK         0.1400 
     23 CB          1.3824  -19.1130  -46.8947 C.3       10 UNK        -0.1800 
     24 N          -0.3526  -19.4900  -45.1901 N.am      10 UNK        -0.5000 
     25 C          -1.0358  -20.1410  -44.2347 C.2       9 UNK         0.5000 
     26 O          -0.9418  -21.3522  -44.0380 O.2       9 UNK        -0.5000 
     27 CA         -2.0261  -19.3246  -43.3813 C.3       9 UNK         0.1400 
     28 CB         -1.3341  -18.7675  -42.1283 C.3       9 UNK        -0.1800 
     29 N          -2.6689  -18.2286  -44.1051 N.am      9 UNK        -0.5000 
     30 C          -3.4179  -18.3618  -45.2085 C.2       8 UNK         0.5000 
     31 O          -3.6631  -19.4412  -45.7471 O.2       8 UNK        -0.5000 
     32 CA         -3.9445  -17.0643  -45.8460 C.3       8 UNK         0.1400 
     33 CB         -5.3372  -16.7287  -45.2941 C.3       8 UNK        -0.1800 
     34 N          -3.0731  -15.8972  -45.6786 N.am      8 UNK        -0.5000 
     35 C          -1.7746  -15.8011  -45.9951 C.2       7 UNK         0.5000 
     36 O          -1.0863  -16.7505  -46.3705 O.2       7 UNK        -0.5000 
     37 CA         -1.1288  -14.4158  -45.8278 C.3       7 UNK         0.1400 
     38 CB         -1.7090  -13.3939  -46.8254 C.3       7 UNK        -0.1800 
     39 N          -1.1613  -13.9189  -44.4471 N.am      7 UNK        -0.5000 
     40 C          -2.2156  -13.5588  -43.6973 C.2       6 UNK         0.5000 
     41 O          -3.3750  -13.5498  -44.1135 O.2       6 UNK        -0.5000 
     42 CA         -1.9528  -13.1850  -42.2218 C.3       6 UNK         0.1400 
     43 CB         -2.6430  -14.1937  -41.2881 C.3       6 UNK        -0.1800 
     44 N          -0.5306  -13.1412  -41.8770 N.am      6 UNK        -0.5000 
     45 C           0.2933  -12.1080  -42.1005 C.2       5 UNK         0.5000 
     46 O          -0.0748  -11.0249  -42.5556 O.2       5 UNK        -0.5000 
     47 CA          1.7893  -12.3422  -41.7942 C.3       5 UNK         0.1400 
     48 CB          2.1371  -11.8381  -40.3856 C.3       5 UNK        -0.1800 
     49 N           2.2021  -13.7465  -41.9168 N.am      5 UNK        -0.5000 
     50 C           2.1426  -14.4585  -43.0491 C.2       4 UNK         0.5000 
     51 O           1.7632  -13.9911  -44.1226 O.2       4 UNK        -0.5000 
     52 CA          2.5360  -15.9407  -42.9585 C.3       4 UNK         0.1400 
     53 CB          1.7483  -16.7939  -43.9683 C.3       4 UNK        -0.1800 
     54 N           3.9640  -16.1099  -43.2011 N.am      4 UNK        -0.5000 
     55 C           4.9285  -15.8954  -42.2969 C.2       3 UNK         0.5000 
     56 O           4.7093  -15.5309  -41.1408 O.2       3 UNK        -0.5000 
     57 CA          6.3764  -16.1236  -42.7593 C.3       3 UNK         0.1400 
     58 CB          6.6876  -17.6269  -42.8372 C.3       3 UNK        -0.1800 
     59 N           6.6060  -15.5186  -44.0702 N.am      3 UNK        -0.5000 
     60 C           7.3490  -14.4256  -44.2946 C.2       2 UNK         0.5000 
     61 O           7.9716  -13.8271  -43.4163 O.2       2 UNK        -0.5000 
     62 CA          7.4102  -13.9023  -45.7460 C.3       2 UNK         0.1400 
     63 CB          8.6539  -14.4503  -46.4624 C.3       2 UNK        -0.1800 
     64 N           6.2221  -14.2433  -46.5300 N.am      2 UNK        -0.5000 
     65 C           4.9942  -13.7555  -46.3033 C.2       1 UNK         0.5000 
     66 O           4.7680  -12.8571  -45.4923 O.2       1 UNK        -0.5000 
     67 C          -2.9368  -22.3955  -47.8892 C.2       11 UNK         0.5000 
     68 O          -3.0767  -23.4609  -48.4886 O.2       11 UNK        -0.5000 
     69 N          -3.3539  -22.1768  -46.6339 N.am      12 UNK        -0.5000 
     70 CA         -3.9733  -23.1798  -45.7700 C.3       12 UNK         0.1400 
     71 CB         -4.4825  -22.5100  -44.4855 C.3       12 UNK        -0.1800 
     72 C          -3.0225  -24.3447  -45.4427 C.2       12 UNK         0.5000 
     73 O          -3.4359  -25.5008  -45.5285 O.2       12 UNK        -0.5000 
     74 N          -1.7641  -24.0239  -45.1061 N.am      13 UNK        -0.5000 
     75 CA         -0.7096  -24.9985  -44.8196 C.3       13 UNK         0.1400 
     76 CB          0.5068  -24.2803  -44.2159 C.3       13 UNK        -0.1800 
     77 C          -0.2984  -25.8152  -46.0578 C.2       13 UNK         0.5000 
     78 O          -0.1145  -27.0284  -45.9518 O.2       13 UNK        -0.5000 
     79 N          -0.1772  -25.1411  -47.2094 N.am      14 UNK        -0.5000 
     80 CA          0.1531  -25.7570  -48.4960 C.3       14 UNK         0.1400 
     81 CB          0.6190  -24.6569  -49.4623 C.3       14 UNK        -0.1800 
     82 C          -1.0153  -26.5450  -49.1207 C.2       14 UNK         0.5000 
     83 O          -0.7721  -27.4022  -49.9706 O.2       14 UNK        -0.5000 
     84 N          -2.2516  -26.2107  -48.7202 N.am      15 UNK        -0.5000 
     85 CA         -3.5294  -26.6318  -49.3054 C.3       15 UNK         0.1400 
     86 CB         -3.7662  -28.1429  -49.1105 C.3       15 UNK        -0.1800 
     87 C          -3.6640  -26.1747  -50.7750 C.2       15 UNK         0.5000 
     88 O          -4.1806  -26.9177  -51.6108 O.2       15 UNK        -0.5000 
     89 N          -3.1657  -24.9616  -51.0571 N.am      16 UNK        -0.5000 
     90 CA         -2.9483  -24.3801  -52.3838 C.3       16 UNK         0.1400 
     91 CB         -2.2272  -23.0347  -52.2128 C.3       16 UNK        -0.1800 
     92 C          -4.2459  -24.2275  -53.1985 C.2       16 UNK         0.5000 
     93 O          -4.9543  -23.2309  -53.0436 O.2       16 UNK        -0.5000 
     94 N          -4.5552  -25.2459  -54.0118 N.am      17 UNK        -0.5000 
     95 CA         -5.7991  -25.4236  -54.7728 C.3       17 UNK         0.1400 
     96 CB         -5.9552  -24.3252  -55.8438 C.3       17 UNK        -0.1800 
     97 C          -7.0510  -25.5534  -53.8748 C.2       17 UNK         0.5000 
     98 O          -8.1569  -25.2577  -54.3293 O.2       17 UNK        -0.5000 
     99 N          -6.8456  -26.0037  -52.6263 N.am      18 UNK        -0.5000 
    100 CA        -7.8324  -26.1935  -51.5599 C.3       18 UNK         0.1400 
    101 CB        -8.7106  -27.4219  -51.8768 C.3       18 UNK        -0.1800 
    102 C         -8.6719  -24.9223  -51.2673 C.2       18 UNK         0.5000 
    103 O         -9.8607  -24.8992  -51.5865 O.2       18 UNK        -0.5000 
    104 N         -8.1071  -23.8523  -50.6901 N.am      19 UNK        -0.5000 
    105 CA        -6.7523  -23.6741  -50.1724 C.3       19 UNK         0.1400 
    106 CB        -6.6230  -24.3406  -48.7862 C.3       19 UNK        -0.1800 
    107 C         -6.4899  -22.1578  -50.1097 C.2       19 UNK         0.5000 
    108 O         -6.4661  -21.5855  -49.0189 O.2       19 UNK        -0.5000 
    109 N         -6.3809  -21.5116  -51.2779 N.am      20 UNK        -0.5000 
    110 CA        -6.3568  -20.0499  -51.4022 C.3       20 UNK         0.1400 
    111 CB        -7.8056  -19.5224  -51.3960 C.3       20 UNK        -0.1800 
    112 C         -5.5758  -19.5127  -52.6191 C.2       20 UNK         0.5000 
    113 O         -5.5494  -18.2940  -52.7983 O.2       20 UNK        -0.5000 
    114 N         -4.9744  -20.3782  -53.4500 N.am      21 UNK        -0.5000 
    115 CA        -4.2180  -19.9561  -54.6340 C.3       21 UNK         0.1400 
    116 CB        -4.0069  -21.1496  -55.5777 C.3       21 UNK        -0.1800 
    117 C         -2.8738  -19.3089  -54.2517 C.2       21 UNK         0.5000 
    118 O         -2.0356  -19.9728  -53.6414 O.2       21 UNK        -0.5000 
    119 N         -2.7021  -18.0340  -54.6213 N.am      22 UNK        -0.5000 
    120 CA        -1.5183  -17.2074  -54.3346 C.3       22 UNK         0.1400 
    121 C         -0.1955  -17.7949  -54.9015 C.2       22 UNK         0.5000 
    122 N          0.8933  -17.7305  -54.1470 N.am      22 UNK        -0.7600 
    123 O         -0.1377  -18.2585  -56.0387 O.2       22 UNK        -0.5000 
    124 C124       -1.7020  -15.7518  -54.8421 C.3       23 UNK        -0.0398 
    125 S125       -3.2089  -14.9404  -54.2030 S.3       23 UNK        -0.2404 
    126 C126       -2.5361  -13.8689  -52.8883 C.3       23 UNK        -0.0205 
    127 H127        4.1733  -18.0091  -48.8306 H         1 UNK         0.0600 
    128 H128        4.4104  -18.9389  -47.3486 H         1 UNK         0.0600 
    129 H129        5.7875  -18.1462  -48.1167 H         1 UNK         0.0600 
    130 H130        4.0426  -15.7198  -48.7040 H         1 UNK         0.3000 
    131 H131        3.0457  -14.5735  -46.3328 H         1 UNK         0.0600 
    132 H132        3.3072  -12.3617  -47.7613 H         1 UNK         0.0800 
    133 H133        3.8208  -13.4096  -49.0527 H         1 UNK         0.0800 
    134 H134        2.0819  -15.6220  -49.7733 H         1 UNK         0.0800 
    135 H135        2.0357  -14.1723  -50.7565 H         1 UNK         0.0800 
    136 H136       -0.0118  -13.5367  -51.8962 H         1 UNK         0.1150 
    137 H137       -3.5358  -15.9336  -51.4068 H         1 UNK         0.1150 
    138 H138       -0.0867  -16.6706  -48.9735 H         1 UNK         0.1150 
    139 H139       -2.2444  -17.7114  -48.4349 H         1 UNK         0.0800 
    140 H140       -3.6803  -17.3578  -49.3762 H         1 UNK         0.0800 
    141 H141       -3.8562  -20.9015  -49.9463 H         1 UNK         0.0800 
    142 H142       -3.8511  -19.8051  -48.5874 H         1 UNK         0.0800 
    143 H143       -1.5662  -21.6969  -49.3552 H         1 UNK         0.0600 
    144 H144       -1.5844  -19.5924  -47.4066 H         1 UNK         0.3000 
    145 H145        1.2361  -20.7873  -45.5655 H         1 UNK         0.0600 
    146 H146        2.0403  -18.5676  -46.2209 H         1 UNK         0.0600 
    147 H147        2.0143  -19.5924  -47.6432 H         1 UNK         0.0600 
    148 H148        0.7550  -18.3891  -47.4145 H         1 UNK         0.0600 
    149 H149       -0.5281  -18.5029  -45.3430 H         1 UNK         0.3000 
    150 H150       -2.8148  -20.0049  -43.0556 H         1 UNK         0.0600 
    151 H151       -0.8691  -19.5683  -41.5516 H         1 UNK         0.0600 
    152 H152       -2.0476  -18.2690  -41.4718 H         1 UNK         0.0600 
    153 H153       -0.5532  -18.0509  -42.3807 H         1 UNK         0.0600 
    154 H154       -2.5138  -17.2970  -43.7513 H         1 UNK         0.3000 
    155 H155       -4.0435  -17.2464  -46.9161 H         1 UNK         0.0600 
    156 H156       -6.0219  -17.5689  -45.4185 H         1 UNK         0.0600 
    157 H157       -5.7730  -15.8762  -45.8155 H         1 UNK         0.0600 
    158 H158       -5.3002  -16.4878  -44.2308 H         1 UNK         0.0600 
    159 H159       -3.5067  -15.0604  -45.2983 H         1 UNK         0.3000 
    160 H160       -0.0725  -14.5401  -46.0688 H         1 UNK         0.0600 
    161 H161       -2.7661  -13.1936  -46.6519 H         1 UNK         0.0600 
    162 H162       -1.6138  -13.7577  -47.8496 H         1 UNK         0.0600 
    163 H163       -1.1741  -12.4461  -46.7682 H         1 UNK         0.0600 
    164 H164       -0.2428  -13.8660  -44.0205 H         1 UNK         0.3000 
    165 H165       -2.3937  -12.2010  -42.0499 H         1 UNK         0.0600 
    166 H166       -2.5060  -13.9199  -40.2418 H         1 UNK         0.0600 
    167 H167       -3.7175  -14.2295  -41.4727 H         1 UNK         0.0600 
    168 H168       -2.2530  -15.2032  -41.4254 H         1 UNK         0.0600 
    169 H169       -0.1373  -13.9828  -41.4824 H         1 UNK         0.3000 
    170 H170        2.3656  -11.7624  -42.5183 H         1 UNK         0.0600 
    171 H171        3.2061  -11.9226  -40.1892 H         1 UNK         0.0600 
    172 H172        1.8686  -10.7872  -40.2692 H         1 UNK         0.0600 
    173 H173        1.6078  -12.3998  -39.6149 H         1 UNK         0.0600 
    174 H174        2.5752  -14.1864  -41.0862 H         1 UNK         0.3000 
    175 H175        2.2930  -16.3041  -41.9577 H         1 UNK         0.0600 
    176 H176        1.9849  -16.5226  -44.9976 H         1 UNK         0.0600 
    177 H177        1.9645  -17.8547  -43.8411 H         1 UNK         0.0600 
    178 H178        0.6738  -16.6605  -43.8419 H         1 UNK         0.0600 
    179 H179        4.2229  -16.3997  -44.1419 H         1 UNK         0.3000 
    180 H180        7.0368  -15.6829  -42.0097 H         1 UNK         0.0600 
    181 H181        6.0666  -18.1319  -43.5785 H         1 UNK         0.0600 
    182 H182        6.5142  -18.1124  -41.8759 H         1 UNK         0.0600 
    183 H183        7.7306  -17.7975  -43.1043 H         1 UNK         0.0600 
    184 H184        6.0957  -15.9289  -44.8452 H         1 UNK         0.3000 
    185 H185        7.4906  -12.8141  -45.7029 H         1 UNK         0.0600 
    186 H186        8.7471  -14.0343  -47.4658 H         1 UNK         0.0600 
    187 H187        9.5635  -14.1911  -45.9188 H         1 UNK         0.0600 
    188 H188        8.6221  -15.5371  -46.5497 H         1 UNK         0.0600 
    189 H189        6.3253  -14.9747  -47.2179 H         1 UNK         0.3000 
    190 H190       -3.2572  -21.2424  -46.2454 H         1 UNK         0.3000 
    191 H191       -4.8359  -23.5891  -46.2969 H         1 UNK         0.0600 
    192 H192       -5.1868  -21.7088  -44.7107 H         1 UNK         0.0600 
    193 H193       -4.9993  -23.2296  -43.8495 H         1 UNK         0.0600 
    194 H194       -3.6661  -22.0847  -43.9026 H         1 UNK         0.0600 
    195 H195       -1.5108  -23.0454  -45.0131 H         1 UNK         0.3000 
    196 H196       -1.0928  -25.6981  -44.0738 H         1 UNK         0.0600 
    197 H197        1.3094  -24.9854  -43.9961 H         1 UNK         0.0600 
    198 H198        0.2460  -23.7838  -43.2811 H         1 UNK         0.0600 
    199 H199        0.9069  -23.5258  -44.8943 H         1 UNK         0.0600 
    200 H200       -0.2794  -24.1302  -47.2015 H         1 UNK         0.3000 
    201 H201        0.9803  -26.4542  -48.3469 H         1 UNK         0.0600 
    202 H202        1.4999  -24.1424  -49.0780 H         1 UNK         0.0600 
    203 H203       -0.1595  -23.9103  -49.6220 H         1 UNK         0.0600 
    204 H204        0.8831  -25.0720  -50.4359 H         1 UNK         0.0600 
    205 H205       -2.3258  -25.4549  -48.0505 H         1 UNK         0.3000 
    206 H206       -4.3027  -26.1070  -48.7458 H         1 UNK         0.0600 
    207 H207       -3.6569  -28.4256  -48.0635 H         1 UNK         0.0600 
    208 H208       -4.7747  -28.4215  -49.4184 H         1 UNK         0.0600 
    209 H209       -3.0696  -28.7438  -49.6955 H         1 UNK         0.0600 
    210 H210       -2.8496  -24.4069  -50.2690 H         1 UNK         0.3000 
    211 H211       -2.2783  -25.0470  -52.9299 H         1 UNK         0.0600 
    212 H212       -1.9940  -22.5977  -53.1835 H         1 UNK         0.0600 
    213 H213       -1.2838  -23.1526  -51.6805 H         1 UNK         0.0600 
    214 H214       -2.8335  -22.3126  -51.6655 H         1 UNK         0.0600 
    215 H215       -3.9330  -26.0431  -54.0198 H         1 UNK         0.3000 
    216 H216       -5.6994  -26.3776  -55.2921 H         1 UNK         0.0600 
    217 H217       -6.7388  -24.5851  -56.5561 H         1 UNK         0.0600 
    218 H218       -6.2297  -23.3697  -55.3975 H         1 UNK         0.0600 
    219 H219       -5.0345  -24.1853  -56.4101 H         1 UNK         0.0600 
    220 H220       -5.8915  -26.2469  -52.3774 H         1 UNK         0.3000 
    221 H221       -7.2707  -26.4416  -50.6625 H         1 UNK         0.0600 
    222 H222       -9.2941  -27.2833  -52.7876 H         1 UNK         0.0600 
    223 H223       -8.1021  -28.3173  -52.0042 H         1 UNK         0.0600 
    224 H224       -9.4120  -27.6197  -51.0653 H         1 UNK         0.0600 
    225 H225       -8.6899  -23.0359  -50.5689 H         1 UNK         0.3000 
    226 H226       -6.0232  -24.1166  -50.8474 H         1 UNK         0.0600 
    227 H227       -6.7588  -25.4190  -48.8180 H         1 UNK         0.0600 
    228 H228       -5.6341  -24.1590  -48.3700 H         1 UNK         0.0600 
    229 H229       -7.3513  -23.9415  -48.0792 H         1 UNK         0.0600 
    230 H230       -6.3382  -22.0523  -52.1352 H         1 UNK         0.3000 
    231 H231       -5.8467  -19.6283  -50.5340 H         1 UNK         0.0600 
    232 H232       -8.3758  -19.9168  -52.2378 H         1 UNK         0.0600 
    233 H233       -7.8343  -18.4339  -51.4596 H         1 UNK         0.0600 
    234 H234       -8.3259  -19.8001  -50.4793 H         1 UNK         0.0600 
    235 H235       -4.9674  -21.3725  -53.2424 H         1 UNK         0.3000 
    236 H236       -4.8172  -19.2209  -55.1760 H         1 UNK         0.0600 
    237 H237       -4.9587  -21.5211  -55.9536 H         1 UNK         0.0600 
    238 H238       -3.4104  -20.8605  -56.4439 H         1 UNK         0.0600 
    239 H239       -3.4891  -21.9718  -55.0848 H         1 UNK         0.0600 
    240 H240       -3.4526  -17.5606  -55.1019 H         1 UNK         0.3000 
    241 H241       -1.4247  -17.1794  -53.2479 H         1 UNK         0.0600 
    242 H242        1.7618  -18.0922  -54.5093 H         1 UNK         0.3800 
    243 H243        0.8656  -17.3523  -53.2130 H         1 UNK         0.3800 
    244 H244       -1.7564  -15.7374  -55.9321 H         1 UNK         0.0800 
    245 H245       -0.8346  -15.1440  -54.5782 H         1 UNK         0.0800 
    246 H246       -3.3529  -13.2919  -52.4532 H         1 UNK         0.0800 
    247 H247       -1.8532  -13.1456  -53.3366 H         1 UNK         0.0800 
@<TRIPOS>BOND
     1    1    2 1    
     2    1  127 1    
     3    1  128 1    
     4    1  129 1    
     5    2    3 2    
     6    2    4 am   BACKBONE|DICT|INTERRES
     7    4    5 1    
     8    4  130 1    
     9    5    6 1    
    10    5   65 1    
    11    5  131 1    
    12    6    7 1    
    13    6  132 1    
    14    6  133 1    
    15    7    8 1    
    16    8    9 1    
    17    8  134 1    
    18    8  135 1    
    19    9   10 ar   
    20    9   14 ar   
    21   10   11 ar   
    22   10  136 1    
    23   11   12 ar   
    24   11  126 1    
    25   12   13 ar   
    26   12  137 1    
    27   13   14 ar   
    28   13   15 1    
    29   14  138 1    
    30   15   16 1    
    31   15  139 1    
    32   15  140 1    
    33   16   17 1    
    34   17   18 1    
    35   17  141 1    
    36   17  142 1    
    37   18   19 1    
    38   18   67 1    
    39   18  143 1    
    40   19   20 am   BACKBONE|DICT|INTERRES
    41   19  144 1    
    42   20   21 2    
    43   20   22 1    
    44   22   23 1    
    45   22   24 1    
    46   22  145 1    
    47   23  146 1    
    48   23  147 1    
    49   23  148 1    
    50   24   25 am   BACKBONE|DICT|INTERRES
    51   24  149 1    
    52   25   26 2    
    53   25   27 1    
    54   27   28 1    
    55   27   29 1    
    56   27  150 1    
    57   28  151 1    
    58   28  152 1    
    59   28  153 1    
    60   29   30 am   BACKBONE|DICT|INTERRES
    61   29  154 1    
    62   30   31 2    
    63   30   32 1    
    64   32   33 1    
    65   32   34 1    
    66   32  155 1    
    67   33  156 1    
    68   33  157 1    
    69   33  158 1    
    70   34   35 am   BACKBONE|DICT|INTERRES
    71   34  159 1    
    72   35   36 2    
    73   35   37 1    
    74   37   38 1    
    75   37   39 1    
    76   37  160 1    
    77   38  161 1    
    78   38  162 1    
    79   38  163 1    
    80   39   40 am   BACKBONE|DICT|INTERRES
    81   39  164 1    
    82   40   41 2    
    83   40   42 1    
    84   42   43 1    
    85   42   44 1    
    86   42  165 1    
    87   43  166 1    
    88   43  167 1    
    89   43  168 1    
    90   44   45 am   BACKBONE|DICT|INTERRES
    91   44  169 1    
    92   45   46 2    
    93   45   47 1    
    94   47   48 1    
    95   47   49 1    
    96   47  170 1    
    97   48  171 1    
    98   48  172 1    
    99   48  173 1    
   100   49   50 am   BACKBONE|DICT|INTERRES
   101   49  174 1    
   102   50   51 2    
   103   50   52 1    
   104   52   53 1    
   105   52   54 1    
   106   52  175 1    
   107   53  176 1    
   108   53  177 1    
   109   53  178 1    
   110   54   55 am   BACKBONE|DICT|INTERRES
   111   54  179 1    
   112   55   56 2    
   113   55   57 1    
   114   57   58 1    
   115   57   59 1    
   116   57  180 1    
   117   58  181 1    
   118   58  182 1    
   119   58  183 1    
   120   59   60 am   BACKBONE|DICT|INTERRES
   121   59  184 1    
   122   60   61 2    
   123   60   62 1    
   124   62   63 1    
   125   62   64 1    
   126   62  185 1    
   127   63  186 1    
   128   63  187 1    
   129   63  188 1    
   130   64   65 am   BACKBONE|DICT|INTERRES
   131   64  189 1    
   132   65   66 2    
   133   67   68 2    
   134   67   69 am   BACKBONE|DICT|INTERRES
   135   69   70 1    
   136   69  190 1    
   137   70   71 1    
   138   70   72 1    
   139   70  191 1    
   140   71  192 1    
   141   71  193 1    
   142   71  194 1    
   143   72   73 2    
   144   72   74 am   BACKBONE|DICT|INTERRES
   145   74   75 1    
   146   74  195 1    
   147   75   76 1    
   148   75   77 1    
   149   75  196 1    
   150   76  197 1    
   151   76  198 1    
   152   76  199 1    
   153   77   78 2    
   154   77   79 am   BACKBONE|DICT|INTERRES
   155   79   80 1    
   156   79  200 1    
   157   80   81 1    
   158   80   82 1    
   159   80  201 1    
   160   81  202 1    
   161   81  203 1    
   162   81  204 1    
   163   82   83 2    
   164   82   84 am   BACKBONE|DICT|INTERRES
   165   84   85 1    
   166   84  205 1    
   167   85   86 1    
   168   85   87 1    
   169   85  206 1    
   170   86  207 1    
   171   86  208 1    
   172   86  209 1    
   173   87   88 2    
   174   87   89 am   BACKBONE|DICT|INTERRES
   175   89   90 1    
   176   89  210 1    
   177   90   91 1    
   178   90   92 1    
   179   90  211 1    
   180   91  212 1    
   181   91  213 1    
   182   91  214 1    
   183   92   93 2    
   184   92   94 am   BACKBONE|DICT|INTERRES
   185   94   95 1    
   186   94  215 1    
   187   95   96 1    
   188   95   97 1    
   189   95  216 1    
   190   96  217 1    
   191   96  218 1    
   192   96  219 1    
   193   97   98 2    
   194   97   99 am   BACKBONE|DICT|INTERRES
   195   99  100 1    
   196   99  220 1    
   197  100  101 1    
   198  100  102 1    
   199  100  221 1    
   200  101  222 1    
   201  101  223 1    
   202  101  224 1    
   203  102  103 2    
   204  102  104 am   BACKBONE|DICT|INTERRES
   205  104  105 1    
   206  104  225 1    
   207  105  106 1    
   208  105  107 1    
   209  105  226 1    
   210  106  227 1    
   211  106  228 1    
   212  106  229 1    
   213  107  108 2    
   214  107  109 am   BACKBONE|DICT|INTERRES
   215  109  110 1    
   216  109  230 1    
   217  110  111 1    
   218  110  112 1    
   219  110  231 1    
   220  111  232 1    
   221  111  233 1    
   222  111  234 1    
   223  112  113 2    
   224  112  114 am   BACKBONE|DICT|INTERRES
   225  114  115 1    
   226  114  235 1    
   227  115  116 1    
   228  115  117 1    
   229  115  236 1    
   230  116  237 1    
   231  116  238 1    
   232  116  239 1    
   233  117  118 2    
   234  117  119 am   BACKBONE|DICT|INTERRES
   235  119  120 1    
   236  119  240 1    
   237  120  121 1    
   238  120  124 1    
   239  120  241 1    
   240  121  122 am   BACKBONE|DICT|INTERRES
   241  121  123 2    
   242  122  242 1    
   243  122  243 1    
   244  124  125 1    
   245  124  244 1    
   246  124  245 1    
   247  125  126 1    
   248  126  246 1    
   249  126  247 1    
@<TRIPOS>SUBSTRUCTURE
     1 UNK         1 GROUP             0       ****    0 ROOT    
