@<TRIPOS>MOLECULE
3R540
247   249    1
SMALL
USER_CHARGES


@<TRIPOS>ATOM
      1 CA         -3.5447  -13.6130  -46.8227 C.3       0 UNK        -0.1800 
      2 C          -2.2997  -12.9411  -47.3840 C.2       0 UNK         0.5000 
      3 O          -2.3468  -11.7721  -47.7642 O.2       0 UNK        -0.5000 
      4 N          -1.1843  -13.6764  -47.4232 N.am      1 UNK        -0.5000 
      5 CA          0.1126  -13.2614  -47.9694 C.3       1 UNK         0.1400 
      6 C6          0.7909  -14.4517  -48.7028 C.3       23 UNK        -0.0398 
      7 S7          1.4627  -14.0160  -50.3398 S.3       23 UNK        -0.2404 
      8 C8         -0.0528  -13.8905  -51.3539 C.3       23 UNK        -0.0205 
      9 C9         -0.9468  -15.1246  -51.2848 C.ar      23 UNK        -0.0193 
     10 C10        -0.4573  -16.3785  -51.6584 C.ar      23 UNK        -0.1150 
     11 C11        -1.2791  -17.5073  -51.6038 C.ar      23 UNK        -0.0193 
     12 C12        -2.6095  -17.3722  -51.1946 C.ar      23 UNK        -0.1150 
     13 C13        -3.1167  -16.1231  -50.8149 C.ar      23 UNK        -0.0193 
     14 C14        -2.2735  -15.0076  -50.8587 C.ar      23 UNK        -0.1150 
     15 C15        -4.5769  -15.9304  -50.4016 C.3       23 UNK        -0.0205 
     16 S16        -5.3193  -17.3108  -49.4630 S.3       23 UNK        -0.2404 
     17 C17        -4.2272  -17.4198  -48.0080 C.3       23 UNK        -0.0398 
     18 CA         -3.4587  -18.7658  -47.9806 C.3       11 UNK         0.1400 
     19 N          -2.0660  -18.5823  -47.5858 N.am      11 UNK        -0.5000 
     20 C          -1.0952  -19.4969  -47.6478 C.2       10 UNK         0.5000 
     21 O          -1.2910  -20.6711  -47.9575 O.2       10 UNK        -0.5000 
     22 CA          0.3277  -19.0258  -47.2944 C.3       10 UNK         0.1400 
     23 CB          0.9907  -18.3531  -48.5091 C.3       10 UNK        -0.1800 
     24 N           0.4213  -18.1761  -46.0979 N.am      10 UNK        -0.5000 
     25 C          -0.1061  -16.9653  -45.8508 C.2       9 UNK         0.5000 
     26 O          -0.8034  -16.3439  -46.6534 O.2       9 UNK        -0.5000 
     27 CA          0.1924  -16.3317  -44.4777 C.3       9 UNK         0.1400 
     28 CB         -0.9381  -15.4087  -43.9786 C.3       9 UNK        -0.1800 
     29 N           0.5713  -17.3055  -43.4512 N.am      9 UNK        -0.5000 
     30 C          -0.1694  -18.3097  -42.9580 C.2       8 UNK         0.5000 
     31 O          -1.3450  -18.5077  -43.2667 O.2       8 UNK        -0.5000 
     32 CA          0.5590  -19.2747  -41.9942 C.3       8 UNK         0.1400 
     33 CB         -0.0892  -20.6748  -41.9609 C.3       8 UNK        -0.1800 
     34 N           2.0043  -19.3813  -42.2604 N.am      8 UNK        -0.5000 
     35 C           2.5735  -19.7711  -43.4129 C.2       7 UNK         0.5000 
     36 O           1.9238  -20.0881  -44.4107 O.2       7 UNK        -0.5000 
     37 CA          4.1101  -19.7713  -43.4860 C.3       7 UNK         0.1400 
     38 CB          4.6218  -19.4383  -44.9025 C.3       7 UNK        -0.1800 
     39 N           4.7195  -18.8454  -42.5279 N.am      7 UNK        -0.5000 
     40 C           5.9144  -19.0479  -41.9572 C.2       6 UNK         0.5000 
     41 O           6.5480  -20.1000  -42.0545 O.2       6 UNK        -0.5000 
     42 CA          6.5322  -17.8792  -41.1737 C.3       6 UNK         0.1400 
     43 CB          7.2327  -16.9022  -42.1303 C.3       6 UNK        -0.1800 
     44 N           5.5567  -17.1425  -40.3732 N.am      6 UNK        -0.5000 
     45 C           5.2664  -17.4261  -39.0969 C.2       5 UNK         0.5000 
     46 O           5.7070  -18.4066  -38.4957 O.2       5 UNK        -0.5000 
     47 CA          4.3613  -16.4286  -38.3502 C.3       5 UNK         0.1400 
     48 CB          5.2143  -15.4242  -37.5598 C.3       5 UNK        -0.1800 
     49 N           3.4669  -15.6892  -39.2419 N.am      5 UNK        -0.5000 
     50 C           2.3259  -16.1891  -39.7290 C.2       4 UNK         0.5000 
     51 O           1.9203  -17.3272  -39.4950 O.2       4 UNK        -0.5000 
     52 CA          1.5152  -15.2684  -40.6550 C.3       4 UNK         0.1400 
     53 CB          0.7359  -14.2232  -39.8435 C.3       4 UNK        -0.1800 
     54 N           2.3194  -14.5875  -41.6727 N.am      4 UNK        -0.5000 
     55 C           3.0685  -15.1715  -42.6152 C.2       3 UNK         0.5000 
     56 O           3.2496  -16.3908  -42.6680 O.2       3 UNK        -0.5000 
     57 CA          3.6587  -14.2510  -43.7105 C.3       3 UNK         0.1400 
     58 CB          4.3289  -15.0541  -44.8413 C.3       3 UNK        -0.1800 
     59 N           2.6643  -13.3618  -44.3233 N.am      3 UNK        -0.5000 
     60 C           2.0795  -12.2928  -43.7695 C.2       2 UNK         0.5000 
     61 O           2.3099  -11.9259  -42.6163 O.2       2 UNK        -0.5000 
     62 CA          1.0405  -11.5138  -44.6050 C.3       2 UNK         0.1400 
     63 CB          1.6007  -10.1465  -45.0421 C.3       2 UNK        -0.1800 
     64 N           0.4523  -12.2318  -45.7487 N.am      2 UNK        -0.5000 
     65 C           1.0279  -12.6212  -46.8972 C.2       1 UNK         0.5000 
     66 O           2.2347  -12.5134  -47.1129 O.2       1 UNK        -0.5000 
     67 C          -4.1916  -19.8382  -47.1503 C.2       11 UNK         0.5000 
     68 O          -5.0477  -20.5361  -47.6932 O.2       11 UNK        -0.5000 
     69 N          -3.8197  -19.9870  -45.8700 N.am      12 UNK        -0.5000 
     70 CA         -4.3413  -21.0284  -44.9829 C.3       12 UNK         0.1400 
     71 CB         -3.9068  -20.7403  -43.5391 C.3       12 UNK        -0.1800 
     72 C          -3.8948  -22.4379  -45.4124 C.2       12 UNK         0.5000 
     73 O          -4.7119  -23.3586  -45.4202 O.2       12 UNK        -0.5000 
     74 N          -2.6190  -22.5696  -45.8033 N.am      13 UNK        -0.5000 
     75 CA         -2.0339  -23.8070  -46.3246 C.3       13 UNK         0.1400 
     76 CB         -0.5018  -23.6913  -46.3151 C.3       13 UNK        -0.1800 
     77 C          -2.5532  -24.1440  -47.7346 C.2       13 UNK         0.5000 
     78 O          -2.7461  -25.3181  -48.0502 O.2       13 UNK        -0.5000 
     79 N          -2.8106  -23.1030  -48.5374 N.am      14 UNK        -0.5000 
     80 CA         -3.3954  -23.1870  -49.8760 C.3       14 UNK         0.1400 
     81 CB         -3.0807  -21.8879  -50.6295 C.3       14 UNK        -0.1800 
     82 C          -4.9171  -23.4432  -49.8812 C.2       14 UNK         0.5000 
     83 O          -5.4926  -23.5613  -50.9644 O.2       14 UNK        -0.5000 
     84 N          -5.5427  -23.4864  -48.6948 N.am      15 UNK        -0.5000 
     85 CA         -6.9720  -23.6903  -48.4436 C.3       15 UNK         0.1400 
     86 CB         -7.3952  -25.1182  -48.8469 C.3       15 UNK        -0.1800 
     87 C          -7.8405  -22.5900  -49.0859 C.2       15 UNK         0.5000 
     88 O          -8.7710  -22.8890  -49.8342 O.2       15 UNK        -0.5000 
     89 N          -7.4853  -21.3296  -48.7983 N.am      16 UNK        -0.5000 
     90 CA         -8.0621  -20.0950  -49.3422 C.3       16 UNK         0.1400 
     91 CB         -9.5530  -19.9511  -48.9698 C.3       16 UNK        -0.1800 
     92 C          -7.7848  -19.9452  -50.8521 C.2       16 UNK         0.5000 
     93 O          -8.6575  -19.5127  -51.6069 O.2       16 UNK        -0.5000 
     94 N          -6.5608  -20.3243  -51.2512 N.am      17 UNK        -0.5000 
     95 CA         -6.0277  -20.3278  -52.6185 C.3       17 UNK         0.1400 
     96 CB         -5.9218  -18.8930  -53.1761 C.3       17 UNK        -0.1800 
     97 C          -6.7679  -21.2961  -53.5673 C.2       17 UNK         0.5000 
     98 O          -6.8063  -21.0632  -54.7768 O.2       17 UNK        -0.5000 
     99 N          -7.3310  -22.3765  -53.0085 N.am      18 UNK        -0.5000 
    100 CA        -7.9560  -23.4647  -53.7588 C.3       18 UNK         0.1400 
    101 CB        -8.8899  -24.2564  -52.8330 C.3       18 UNK        -0.1800 
    102 C         -6.9080  -24.3949  -54.3937 C.2       18 UNK         0.5000 
    103 O         -7.1427  -24.9149  -55.4856 O.2       18 UNK        -0.5000 
    104 N         -5.7683  -24.5787  -53.7115 N.am      19 UNK        -0.5000 
    105 CA        -4.6082  -25.3034  -54.2214 C.3       19 UNK         0.1400 
    106 CB        -3.6350  -25.5818  -53.0649 C.3       19 UNK        -0.1800 
    107 C         -3.9155  -24.4854  -55.3238 C.2       19 UNK         0.5000 
    108 O         -3.4798  -23.3636  -55.0576 O.2       19 UNK        -0.5000 
    109 N         -3.8003  -25.0628  -56.5269 N.am      20 UNK        -0.5000 
    110 CA        -3.2049  -24.4249  -57.7078 C.3       20 UNK         0.1400 
    111 CB        -3.4406  -25.3198  -58.9341 C.3       20 UNK        -0.1800 
    112 C         -1.7046  -24.1034  -57.5544 C.2       20 UNK         0.5000 
    113 O         -1.2201  -23.1497  -58.1643 O.2       20 UNK        -0.5000 
    114 N         -1.0062  -24.8888  -56.7236 N.am      21 UNK        -0.5000 
    115 CA         0.3921  -24.6765  -56.3460 C.3       21 UNK         0.1400 
    116 CB         0.9651  -26.0064  -55.8303 C.3       21 UNK        -0.1800 
    117 C          0.5769  -23.5657  -55.2901 C.2       21 UNK         0.5000 
    118 O          1.7090  -23.1340  -55.0697 O.2       21 UNK        -0.5000 
    119 N         -0.5195  -23.1323  -54.6498 N.am      22 UNK        -0.5000 
    120 CA        -0.5562  -22.1382  -53.5651 C.3       22 UNK         0.1400 
    121 C          0.1385  -22.6046  -52.2462 C.2       22 UNK         0.5000 
    122 N          0.2173  -23.9026  -51.9769 N.am      22 UNK        -0.7600 
    123 O          0.6003  -21.7947  -51.4485 O.2       22 UNK        -0.5000 
    124 C124       -0.1280  -20.7156  -54.0384 C.3       23 UNK        -0.0398 
    125 S125       -1.3383  -19.4197  -53.6003 S.3       23 UNK        -0.2404 
    126 C126       -0.7227  -18.8710  -51.9794 C.3       23 UNK        -0.0205 
    127 H127       -3.9642  -13.0136  -46.0148 H         1 UNK         0.0600 
    128 H128       -4.2998  -13.7149  -47.6018 H         1 UNK         0.0600 
    129 H129       -3.3250  -14.6057  -46.4283 H         1 UNK         0.0600 
    130 H130       -1.2104  -14.6416  -47.0980 H         1 UNK         0.3000 
    131 H131       -0.0736  -12.4694  -48.6969 H         1 UNK         0.0600 
    132 H132        1.5864  -14.9041  -48.1079 H         1 UNK         0.0800 
    133 H133        0.0792  -15.2603  -48.8584 H         1 UNK         0.0800 
    134 H134        0.2356  -13.7260  -52.3928 H         1 UNK         0.0800 
    135 H135       -0.6043  -12.9999  -51.0490 H         1 UNK         0.0800 
    136 H136        0.5691  -16.4736  -51.9841 H         1 UNK         0.1150 
    137 H137       -3.2479  -18.2434  -51.1833 H         1 UNK         0.1150 
    138 H138       -2.6575  -14.0376  -50.5751 H         1 UNK         0.1150 
    139 H139       -5.1679  -15.7733  -51.3045 H         1 UNK         0.0800 
    140 H140       -4.6825  -15.0227  -49.8056 H         1 UNK         0.0800 
    141 H141       -3.5313  -16.5804  -48.0431 H         1 UNK         0.0800 
    142 H142       -4.8174  -17.2632  -47.1031 H         1 UNK         0.0800 
    143 H143       -3.4056  -19.1562  -48.9969 H         1 UNK         0.0600 
    144 H144       -1.7852  -17.6445  -47.3060 H         1 UNK         0.3000 
    145 H145        0.9043  -19.9222  -47.0607 H         1 UNK         0.0600 
    146 H146        1.9958  -18.0041  -48.2726 H         1 UNK         0.0600 
    147 H147        1.0754  -19.0553  -49.3394 H         1 UNK         0.0600 
    148 H148        0.4118  -17.5032  -48.8668 H         1 UNK         0.0600 
    149 H149        0.9346  -18.6170  -45.3408 H         1 UNK         0.3000 
    150 H150        1.0687  -15.7074  -44.6431 H         1 UNK         0.0600 
    151 H151       -1.1135  -14.5874  -44.6724 H         1 UNK         0.0600 
    152 H152       -0.6872  -14.9636  -43.0160 H         1 UNK         0.0600 
    153 H153       -1.8803  -15.9455  -43.8657 H         1 UNK         0.0600 
    154 H154        1.5349  -17.2429  -43.1369 H         1 UNK         0.3000 
    155 H155        0.4530  -18.8445  -40.9989 H         1 UNK         0.0600 
    156 H156       -1.1181  -20.6199  -41.6038 H         1 UNK         0.0600 
    157 H157        0.4491  -21.3426  -41.2884 H         1 UNK         0.0600 
    158 H158       -0.1097  -21.1374  -42.9482 H         1 UNK         0.0600 
    159 H159        2.6099  -19.1181  -41.4949 H         1 UNK         0.3000 
    160 H160        4.4087  -20.7938  -43.2462 H         1 UNK         0.0600 
    161 H161        4.3185  -18.4362  -45.2086 H         1 UNK         0.0600 
    162 H162        5.7095  -19.4884  -44.9537 H         1 UNK         0.0600 
    163 H163        4.2353  -20.1412  -45.6416 H         1 UNK         0.0600 
    164 H164        4.2590  -17.9435  -42.4280 H         1 UNK         0.3000 
    165 H165        7.2992  -18.2952  -40.5163 H         1 UNK         0.0600 
    166 H166        7.7652  -16.1267  -41.5793 H         1 UNK         0.0600 
    167 H167        7.9649  -17.4190  -42.7522 H         1 UNK         0.0600 
    168 H168        6.5237  -16.4120  -42.7958 H         1 UNK         0.0600 
    169 H169        5.1196  -16.3408  -40.8013 H         1 UNK         0.3000 
    170 H170        3.7613  -16.9968  -37.6358 H         1 UNK         0.0600 
    171 H171        5.8775  -15.9380  -36.8626 H         1 UNK         0.0600 
    172 H172        5.8370  -14.8173  -38.2183 H         1 UNK         0.0600 
    173 H173        4.5885  -14.7507  -36.9738 H         1 UNK         0.0600 
    174 H174        3.7299  -14.7448  -39.4839 H         1 UNK         0.3000 
    175 H175        0.7850  -15.8915  -41.1707 H         1 UNK         0.0600 
    176 H176        1.4034  -13.5256  -39.3363 H         1 UNK         0.0600 
    177 H177        0.0718  -13.6436  -40.4851 H         1 UNK         0.0600 
    178 H178        0.1166  -14.6997  -39.0824 H         1 UNK         0.0600 
    179 H179        2.2265  -13.5762  -41.7259 H         1 UNK         0.3000 
    180 H180        4.4232  -13.6355  -43.2326 H         1 UNK         0.0600 
    181 H181        5.1159  -15.7033  -44.4596 H         1 UNK         0.0600 
    182 H182        3.6113  -15.6864  -45.3658 H         1 UNK         0.0600 
    183 H183        4.7884  -14.3918  -45.5755 H         1 UNK         0.0600 
    184 H184        2.4653  -13.5210  -45.3027 H         1 UNK         0.3000 
    185 H185        0.2061  -11.3193  -43.9293 H         1 UNK         0.0600 
    186 H186        1.9180   -9.5610  -44.1782 H         1 UNK         0.0600 
    187 H187        2.4657  -10.2506  -45.6976 H         1 UNK         0.0600 
    188 H188        0.8472   -9.5618  -45.5699 H         1 UNK         0.0600 
    189 H189       -0.5419  -12.3959  -45.6772 H         1 UNK         0.3000 
    190 H190       -3.1029  -19.3818  -45.4944 H         1 UNK         0.3000 
    191 H191       -5.4322  -20.9939  -45.0236 H         1 UNK         0.0600 
    192 H192       -4.3337  -21.4701  -42.8500 H         1 UNK         0.0600 
    193 H193       -4.2368  -19.7533  -43.2146 H         1 UNK         0.0600 
    194 H194       -2.8230  -20.7830  -43.4308 H         1 UNK         0.0600 
    195 H195       -2.0295  -21.7501  -45.8216 H         1 UNK         0.3000 
    196 H196       -2.3167  -24.6261  -45.6600 H         1 UNK         0.0600 
    197 H197       -0.0401  -24.6187  -46.6562 H         1 UNK         0.0600 
    198 H198       -0.1270  -23.4916  -45.3111 H         1 UNK         0.0600 
    199 H199       -0.1505  -22.8923  -46.9686 H         1 UNK         0.0600 
    200 H200       -2.5359  -22.1779  -48.2209 H         1 UNK         0.3000 
    201 H201       -2.9161  -24.0144  -50.4015 H         1 UNK         0.0600 
    202 H202       -2.0284  -21.6241  -50.5394 H         1 UNK         0.0600 
    203 H203       -3.6664  -21.0508  -50.2524 H         1 UNK         0.0600 
    204 H204       -3.3021  -21.9961  -51.6906 H         1 UNK         0.0600 
    205 H205       -4.9783  -23.3339  -47.8702 H         1 UNK         0.3000 
    206 H206       -7.1110  -23.5993  -47.3653 H         1 UNK         0.0600 
    207 H207       -6.7968  -25.8656  -48.3260 H         1 UNK         0.0600 
    208 H208       -8.4393  -25.3032  -48.5922 H         1 UNK         0.0600 
    209 H209       -7.2841  -25.2902  -49.9174 H         1 UNK         0.0600 
    210 H210       -6.6539  -21.1879  -48.2260 H         1 UNK         0.3000 
    211 H211       -7.5297  -19.2780  -48.8544 H         1 UNK         0.0600 
    212 H212      -10.1757  -20.6842  -49.4828 H         1 UNK         0.0600 
    213 H213       -9.9262  -18.9629  -49.2407 H         1 UNK         0.0600 
    214 H214       -9.7048  -20.0718  -47.8973 H         1 UNK         0.0600 
    215 H215       -5.9416  -20.6835  -50.5398 H         1 UNK         0.3000 
    216 H216       -5.0119  -20.7136  -52.5455 H         1 UNK         0.0600 
    217 H217       -5.3864  -18.2400  -52.4876 H         1 UNK         0.0600 
    218 H218       -5.3760  -18.8801  -54.1201 H         1 UNK         0.0600 
    219 H219       -6.9030  -18.4548  -53.3596 H         1 UNK         0.0600 
    220 H220       -7.2242  -22.5181  -52.0119 H         1 UNK         0.3000 
    221 H221       -8.5587  -23.0369  -54.5627 H         1 UNK         0.0600 
    222 H222       -8.3452  -24.7048  -52.0019 H         1 UNK         0.0600 
    223 H223       -9.6674  -23.6155  -52.4168 H         1 UNK         0.0600 
    224 H224       -9.3868  -25.0623  -53.3744 H         1 UNK         0.0600 
    225 H225       -5.6592  -24.1186  -52.8120 H         1 UNK         0.3000 
    226 H226       -4.9440  -26.2597  -54.6278 H         1 UNK         0.0600 
    227 H227       -4.1237  -26.1293  -52.2587 H         1 UNK         0.0600 
    228 H228       -2.7892  -26.1818  -53.4024 H         1 UNK         0.0600 
    229 H229       -3.2350  -24.6575  -52.6474 H         1 UNK         0.0600 
    230 H230       -4.1919  -25.9834  -56.6664 H         1 UNK         0.3000 
    231 H231       -3.7247  -23.4785  -57.8710 H         1 UNK         0.0600 
    232 H232       -2.9664  -26.2951  -58.8180 H         1 UNK         0.0600 
    233 H233       -4.5049  -25.4810  -59.1065 H         1 UNK         0.0600 
    234 H234       -3.0328  -24.8619  -59.8364 H         1 UNK         0.0600 
    235 H235       -1.4850  -25.6585  -56.2797 H         1 UNK         0.3000 
    236 H236        0.9564  -24.3827  -57.2336 H         1 UNK         0.0600 
    237 H237        0.4377  -26.3552  -54.9416 H         1 UNK         0.0600 
    238 H238        0.8971  -26.7859  -56.5894 H         1 UNK         0.0600 
    239 H239        2.0187  -25.9034  -55.5672 H         1 UNK         0.0600 
    240 H240       -1.4247  -23.4942  -54.9259 H         1 UNK         0.3000 
    241 H241       -1.6126  -22.0953  -53.3032 H         1 UNK         0.0600 
    242 H242        0.6674  -24.1991  -51.1259 H         1 UNK         0.3800 
    243 H243       -0.1422  -24.5882  -52.6198 H         1 UNK         0.3800 
    244 H244       -0.0520  -20.6880  -55.1261 H         1 UNK         0.0800 
    245 H245        0.8684  -20.4450  -53.6853 H         1 UNK         0.0800 
    246 H246       -1.0023  -19.5976  -51.2163 H         1 UNK         0.0800 
    247 H247        0.3679  -18.8424  -51.9896 H         1 UNK         0.0800 
@<TRIPOS>BOND
     1    1    2 1    
     2    1  127 1    
     3    1  128 1    
     4    1  129 1    
     5    2    3 2    
     6    2    4 am   BACKBONE|DICT|INTERRES
     7    4    5 1    
     8    4  130 1    
     9    5    6 1    
    10    5   65 1    
    11    5  131 1    
    12    6    7 1    
    13    6  132 1    
    14    6  133 1    
    15    7    8 1    
    16    8    9 1    
    17    8  134 1    
    18    8  135 1    
    19    9   10 ar   
    20    9   14 ar   
    21   10   11 ar   
    22   10  136 1    
    23   11   12 ar   
    24   11  126 1    
    25   12   13 ar   
    26   12  137 1    
    27   13   14 ar   
    28   13   15 1    
    29   14  138 1    
    30   15   16 1    
    31   15  139 1    
    32   15  140 1    
    33   16   17 1    
    34   17   18 1    
    35   17  141 1    
    36   17  142 1    
    37   18   19 1    
    38   18   67 1    
    39   18  143 1    
    40   19   20 am   BACKBONE|DICT|INTERRES
    41   19  144 1    
    42   20   21 2    
    43   20   22 1    
    44   22   23 1    
    45   22   24 1    
    46   22  145 1    
    47   23  146 1    
    48   23  147 1    
    49   23  148 1    
    50   24   25 am   BACKBONE|DICT|INTERRES
    51   24  149 1    
    52   25   26 2    
    53   25   27 1    
    54   27   28 1    
    55   27   29 1    
    56   27  150 1    
    57   28  151 1    
    58   28  152 1    
    59   28  153 1    
    60   29   30 am   BACKBONE|DICT|INTERRES
    61   29  154 1    
    62   30   31 2    
    63   30   32 1    
    64   32   33 1    
    65   32   34 1    
    66   32  155 1    
    67   33  156 1    
    68   33  157 1    
    69   33  158 1    
    70   34   35 am   BACKBONE|DICT|INTERRES
    71   34  159 1    
    72   35   36 2    
    73   35   37 1    
    74   37   38 1    
    75   37   39 1    
    76   37  160 1    
    77   38  161 1    
    78   38  162 1    
    79   38  163 1    
    80   39   40 am   BACKBONE|DICT|INTERRES
    81   39  164 1    
    82   40   41 2    
    83   40   42 1    
    84   42   43 1    
    85   42   44 1    
    86   42  165 1    
    87   43  166 1    
    88   43  167 1    
    89   43  168 1    
    90   44   45 am   BACKBONE|DICT|INTERRES
    91   44  169 1    
    92   45   46 2    
    93   45   47 1    
    94   47   48 1    
    95   47   49 1    
    96   47  170 1    
    97   48  171 1    
    98   48  172 1    
    99   48  173 1    
   100   49   50 am   BACKBONE|DICT|INTERRES
   101   49  174 1    
   102   50   51 2    
   103   50   52 1    
   104   52   53 1    
   105   52   54 1    
   106   52  175 1    
   107   53  176 1    
   108   53  177 1    
   109   53  178 1    
   110   54   55 am   BACKBONE|DICT|INTERRES
   111   54  179 1    
   112   55   56 2    
   113   55   57 1    
   114   57   58 1    
   115   57   59 1    
   116   57  180 1    
   117   58  181 1    
   118   58  182 1    
   119   58  183 1    
   120   59   60 am   BACKBONE|DICT|INTERRES
   121   59  184 1    
   122   60   61 2    
   123   60   62 1    
   124   62   63 1    
   125   62   64 1    
   126   62  185 1    
   127   63  186 1    
   128   63  187 1    
   129   63  188 1    
   130   64   65 am   BACKBONE|DICT|INTERRES
   131   64  189 1    
   132   65   66 2    
   133   67   68 2    
   134   67   69 am   BACKBONE|DICT|INTERRES
   135   69   70 1    
   136   69  190 1    
   137   70   71 1    
   138   70   72 1    
   139   70  191 1    
   140   71  192 1    
   141   71  193 1    
   142   71  194 1    
   143   72   73 2    
   144   72   74 am   BACKBONE|DICT|INTERRES
   145   74   75 1    
   146   74  195 1    
   147   75   76 1    
   148   75   77 1    
   149   75  196 1    
   150   76  197 1    
   151   76  198 1    
   152   76  199 1    
   153   77   78 2    
   154   77   79 am   BACKBONE|DICT|INTERRES
   155   79   80 1    
   156   79  200 1    
   157   80   81 1    
   158   80   82 1    
   159   80  201 1    
   160   81  202 1    
   161   81  203 1    
   162   81  204 1    
   163   82   83 2    
   164   82   84 am   BACKBONE|DICT|INTERRES
   165   84   85 1    
   166   84  205 1    
   167   85   86 1    
   168   85   87 1    
   169   85  206 1    
   170   86  207 1    
   171   86  208 1    
   172   86  209 1    
   173   87   88 2    
   174   87   89 am   BACKBONE|DICT|INTERRES
   175   89   90 1    
   176   89  210 1    
   177   90   91 1    
   178   90   92 1    
   179   90  211 1    
   180   91  212 1    
   181   91  213 1    
   182   91  214 1    
   183   92   93 2    
   184   92   94 am   BACKBONE|DICT|INTERRES
   185   94   95 1    
   186   94  215 1    
   187   95   96 1    
   188   95   97 1    
   189   95  216 1    
   190   96  217 1    
   191   96  218 1    
   192   96  219 1    
   193   97   98 2    
   194   97   99 am   BACKBONE|DICT|INTERRES
   195   99  100 1    
   196   99  220 1    
   197  100  101 1    
   198  100  102 1    
   199  100  221 1    
   200  101  222 1    
   201  101  223 1    
   202  101  224 1    
   203  102  103 2    
   204  102  104 am   BACKBONE|DICT|INTERRES
   205  104  105 1    
   206  104  225 1    
   207  105  106 1    
   208  105  107 1    
   209  105  226 1    
   210  106  227 1    
   211  106  228 1    
   212  106  229 1    
   213  107  108 2    
   214  107  109 am   BACKBONE|DICT|INTERRES
   215  109  110 1    
   216  109  230 1    
   217  110  111 1    
   218  110  112 1    
   219  110  231 1    
   220  111  232 1    
   221  111  233 1    
   222  111  234 1    
   223  112  113 2    
   224  112  114 am   BACKBONE|DICT|INTERRES
   225  114  115 1    
   226  114  235 1    
   227  115  116 1    
   228  115  117 1    
   229  115  236 1    
   230  116  237 1    
   231  116  238 1    
   232  116  239 1    
   233  117  118 2    
   234  117  119 am   BACKBONE|DICT|INTERRES
   235  119  120 1    
   236  119  240 1    
   237  120  121 1    
   238  120  124 1    
   239  120  241 1    
   240  121  122 am   BACKBONE|DICT|INTERRES
   241  121  123 2    
   242  122  242 1    
   243  122  243 1    
   244  124  125 1    
   245  124  244 1    
   246  124  245 1    
   247  125  126 1    
   248  126  246 1    
   249  126  247 1    
@<TRIPOS>SUBSTRUCTURE
     1 UNK         1 GROUP             0       ****    0 ROOT    
