@<TRIPOS>MOLECULE
3R540
247   249    1
SMALL
USER_CHARGES


@<TRIPOS>ATOM
      1 CA         -4.0190  -11.2971  -47.9974 C.3       0 UNK        -0.1800 
      2 C          -2.6732  -11.3192  -48.7086 C.2       0 UNK         0.5000 
      3 O          -2.6324  -11.3122  -49.9391 O.2       0 UNK        -0.5000 
      4 N          -1.5818  -11.3454  -47.9378 N.am      1 UNK        -0.5000 
      5 CA         -0.1981  -11.3333  -48.4145 C.3       1 UNK         0.1400 
      6 C6          0.5275  -12.6752  -48.1410 C.3       23 UNK        -0.0398 
      7 S7         -0.1768  -14.0865  -49.0561 S.3       23 UNK        -0.2404 
      8 C8         -1.2207  -14.8492  -47.7751 C.3       23 UNK        -0.0205 
      9 C9         -1.4651  -16.3215  -48.0622 C.ar      23 UNK        -0.0193 
     10 C10        -2.7267  -16.7628  -48.4706 C.ar      23 UNK        -0.1150 
     11 C11        -2.9524  -18.1157  -48.7415 C.ar      23 UNK        -0.0193 
     12 C12        -1.9039  -19.0286  -48.5942 C.ar      23 UNK        -0.1150 
     13 C13        -0.6412  -18.6027  -48.1730 C.ar      23 UNK        -0.0193 
     14 C14        -0.4277  -17.2475  -47.9090 C.ar      23 UNK        -0.1150 
     15 C15         0.4908  -19.6063  -48.0180 C.3       23 UNK        -0.0205 
     16 S16         0.7119  -20.0956  -46.2778 S.3       23 UNK        -0.2404 
     17 C17         1.5065  -21.7297  -46.4652 C.3       23 UNK        -0.0398 
     18 CA          0.5875  -22.9594  -46.2342 C.3       11 UNK         0.1400 
     19 N           0.1892  -23.1536  -44.8343 N.am      11 UNK        -0.5000 
     20 C          -0.2373  -24.3347  -44.3564 C.2       10 UNK         0.5000 
     21 O          -0.3348  -25.3501  -45.0457 O.2       10 UNK        -0.5000 
     22 CA         -0.6545  -24.3986  -42.8767 C.3       10 UNK         0.1400 
     23 CB          0.5809  -24.5067  -41.9703 C.3       10 UNK        -0.1800 
     24 N          -1.4672  -23.2615  -42.4518 N.am      10 UNK        -0.5000 
     25 C          -2.6726  -22.9396  -42.9441 C.2       9 UNK         0.5000 
     26 O          -3.2458  -23.5814  -43.8227 O.2       9 UNK        -0.5000 
     27 CA         -3.3301  -21.6619  -42.3824 C.3       9 UNK         0.1400 
     28 CB         -4.2752  -22.0076  -41.2224 C.3       9 UNK        -0.1800 
     29 N          -2.3475  -20.6713  -41.9299 N.am      9 UNK        -0.5000 
     30 C          -1.4754  -20.0679  -42.7469 C.2       8 UNK         0.5000 
     31 O          -1.4827  -20.2187  -43.9703 O.2       8 UNK        -0.5000 
     32 CA         -0.3800  -19.2245  -42.0812 C.3       8 UNK         0.1400 
     33 CB          0.5979  -20.1259  -41.2989 C.3       8 UNK        -0.1800 
     34 N           0.3426  -18.4897  -43.1137 N.am      8 UNK        -0.5000 
     35 C           1.1392  -17.4381  -42.9055 C.2       7 UNK         0.5000 
     36 O           1.3403  -16.9430  -41.7938 O.2       7 UNK        -0.5000 
     37 CA          1.7888  -16.8194  -44.1587 C.3       7 UNK         0.1400 
     38 CB          0.8597  -15.7647  -44.7724 C.3       7 UNK        -0.1800 
     39 N           3.0750  -16.1882  -43.8714 N.am      7 UNK        -0.5000 
     40 C           4.1797  -16.8287  -43.4668 C.2       6 UNK         0.5000 
     41 O           4.2659  -18.0528  -43.3597 O.2       6 UNK        -0.5000 
     42 CA          5.3951  -15.9504  -43.1247 C.3       6 UNK         0.1400 
     43 CB          6.2343  -15.6788  -44.3830 C.3       6 UNK        -0.1800 
     44 N           4.9877  -14.6769  -42.5281 N.am      6 UNK        -0.5000 
     45 C           4.7738  -14.4918  -41.2171 C.2       5 UNK         0.5000 
     46 O           4.9472  -15.3672  -40.3682 O.2       5 UNK        -0.5000 
     47 CA          4.3048  -13.0937  -40.7659 C.3       5 UNK         0.1400 
     48 CB          5.5047  -12.2472  -40.3133 C.3       5 UNK        -0.1800 
     49 N           3.5802  -12.3667  -41.8085 N.am      5 UNK        -0.5000 
     50 C           2.3137  -12.6141  -42.1696 C.2       4 UNK         0.5000 
     51 O           1.5914  -13.4371  -41.6090 O.2       4 UNK        -0.5000 
     52 CA          1.7629  -11.8202  -43.3713 C.3       4 UNK         0.1400 
     53 CB          0.9601  -10.6027  -42.8892 C.3       4 UNK        -0.1800 
     54 N           2.7882  -11.3681  -44.3165 N.am      4 UNK        -0.5000 
     55 C           3.6056  -12.1610  -45.0209 C.2       3 UNK         0.5000 
     56 O           3.6242  -13.3872  -44.8973 O.2       3 UNK        -0.5000 
     57 CA          4.5436  -11.4581  -46.0253 C.3       3 UNK         0.1400 
     58 CB          5.3654  -12.4531  -46.8636 C.3       3 UNK        -0.1800 
     59 N           3.7912  -10.5897  -46.9317 N.am      3 UNK        -0.5000 
     60 C           3.3910   -9.3377  -46.6682 C.2       2 UNK         0.5000 
     61 O           3.6572   -8.7431  -45.6234 O.2       2 UNK        -0.5000 
     62 CA          2.4880   -8.6712  -47.7246 C.3       2 UNK         0.1400 
     63 CB          3.3332   -8.0052  -48.8210 C.3       2 UNK        -0.1800 
     64 N           1.5613   -9.6297  -48.3353 N.am      2 UNK        -0.5000 
     65 C           0.5404  -10.2019  -47.6821 C.2       1 UNK         0.5000 
     66 O           0.2125   -9.9053  -46.5298 O.2       1 UNK        -0.5000 
     67 C          -0.6313  -23.0024  -47.1784 C.2       11 UNK         0.5000 
     68 O          -0.5313  -23.5701  -48.2652 O.2       11 UNK        -0.5000 
     69 N          -1.7709  -22.4577  -46.7254 N.am      12 UNK        -0.5000 
     70 CA         -3.0515  -22.5182  -47.4282 C.3       12 UNK         0.1400 
     71 CB         -4.0688  -21.6001  -46.7350 C.3       12 UNK        -0.1800 
     72 C          -3.5839  -23.9558  -47.5441 C.2       12 UNK         0.5000 
     73 O          -4.0346  -24.3433  -48.6216 O.2       12 UNK        -0.5000 
     74 N          -3.4785  -24.7303  -46.4551 N.am      13 UNK        -0.5000 
     75 CA         -3.8272  -26.1496  -46.4045 C.3       13 UNK         0.1400 
     76 CB         -3.7793  -26.6460  -44.9517 C.3       13 UNK        -0.1800 
     77 C          -2.9296  -27.0115  -47.3094 C.2       13 UNK         0.5000 
     78 O          -3.4491  -27.8507  -48.0448 O.2       13 UNK        -0.5000 
     79 N          -1.6115  -26.7629  -47.2787 N.am      14 UNK        -0.5000 
     80 CA         -0.6185  -27.4291  -48.1277 C.3       14 UNK         0.1400 
     81 CB          0.7944  -27.0248  -47.6814 C.3       14 UNK        -0.1800 
     82 C          -0.8173  -27.1388  -49.6278 C.2       14 UNK         0.5000 
     83 O          -0.6594  -28.0407  -50.4510 O.2       14 UNK        -0.5000 
     84 N          -1.1973  -25.8955  -49.9486 N.am      15 UNK        -0.5000 
     85 CA         -1.5571  -25.4432  -51.2928 C.3       15 UNK         0.1400 
     86 CB         -1.4857  -23.9083  -51.3164 C.3       15 UNK        -0.1800 
     87 C          -2.9546  -25.9077  -51.7524 C.2       15 UNK         0.5000 
     88 O          -3.2913  -25.7209  -52.9238 O.2       15 UNK        -0.5000 
     89 N          -3.7600  -26.4394  -50.8180 N.am      16 UNK        -0.5000 
     90 CA         -5.1789  -26.7916  -50.9498 C.3       16 UNK         0.1400 
     91 CB         -5.3429  -28.0290  -51.8552 C.3       16 UNK        -0.1800 
     92 C          -6.0392  -25.5934  -51.4078 C.2       16 UNK         0.5000 
     93 O          -6.9787  -25.7666  -52.1865 O.2       16 UNK        -0.5000 
     94 N          -5.6446  -24.3880  -50.9680 N.am      17 UNK        -0.5000 
     95 CA         -6.0623  -23.0459  -51.3913 C.3       17 UNK         0.1400 
     96 CB         -7.5452  -22.7932  -51.0663 C.3       17 UNK        -0.1800 
     97 C          -5.7516  -22.7125  -52.8669 C.2       17 UNK         0.5000 
     98 O          -5.2758  -21.6126  -53.1501 O.2       17 UNK        -0.5000 
     99 N          -6.0215  -23.6568  -53.7746 N.am      18 UNK        -0.5000 
    100 CA        -5.9264  -23.5420  -55.2272 C.3       18 UNK         0.1400 
    101 CB        -6.3759  -24.8653  -55.8643 C.3       18 UNK        -0.1800 
    102 C         -4.5377  -23.1366  -55.7462 C.2       18 UNK         0.5000 
    103 O         -4.4545  -22.2379  -56.5836 O.2       18 UNK        -0.5000 
    104 N         -3.4706  -23.7658  -55.2306 N.am      19 UNK        -0.5000 
    105 CA        -2.0938  -23.4910  -55.6630 C.3       19 UNK         0.1400 
    106 CB        -1.1717  -24.6442  -55.2403 C.3       19 UNK        -0.1800 
    107 C         -1.5547  -22.1345  -55.1647 C.2       19 UNK         0.5000 
    108 O         -0.6006  -21.6144  -55.7437 O.2       19 UNK        -0.5000 
    109 N         -2.1876  -21.5761  -54.1245 N.am      20 UNK        -0.5000 
    110 CA        -1.9217  -20.2372  -53.5979 C.3       20 UNK         0.1400 
    111 CB        -2.1166  -20.2651  -52.0723 C.3       20 UNK        -0.1800 
    112 C         -2.8198  -19.1660  -54.2535 C.2       20 UNK         0.5000 
    113 O         -2.6331  -17.9804  -53.9794 O.2       20 UNK        -0.5000 
    114 N         -3.7731  -19.5977  -55.0967 N.am      21 UNK        -0.5000 
    115 CA        -4.8262  -18.8102  -55.7468 C.3       21 UNK         0.1400 
    116 CB        -4.2295  -17.7735  -56.7217 C.3       21 UNK        -0.1800 
    117 C         -5.8288  -18.1988  -54.7432 C.2       21 UNK         0.5000 
    118 O         -6.3973  -17.1374  -55.0070 O.2       21 UNK        -0.5000 
    119 N         -6.0360  -18.8891  -53.6154 N.am      22 UNK        -0.5000 
    120 CA        -6.9346  -18.4872  -52.5214 C.3       22 UNK         0.1400 
    121 C         -8.3742  -19.0638  -52.6544 C.2       22 UNK         0.5000 
    122 N         -8.6723  -19.8973  -53.6442 N.am      22 UNK        -0.7600 
    123 O         -9.2432  -18.7405  -51.8495 O.2       22 UNK        -0.5000 
    124 C124       -6.3263  -18.8252  -51.1354 C.3       23 UNK        -0.0398 
    125 S125       -4.7211  -18.0068  -50.8615 S.3       23 UNK        -0.2404 
    126 C126       -4.3292  -18.5879  -49.1848 C.3       23 UNK        -0.0205 
    127 H127       -4.6068  -12.1701  -48.2814 H         1 UNK         0.0600 
    128 H128       -3.9052  -11.3027  -46.9130 H         1 UNK         0.0600 
    129 H129       -4.5769  -10.4032  -48.2763 H         1 UNK         0.0600 
    130 H130       -1.6737  -11.2635  -46.9339 H         1 UNK         0.3000 
    131 H131       -0.1637  -11.1201  -49.4850 H         1 UNK         0.0600 
    132 H132        0.5459  -12.8972  -47.0723 H         1 UNK         0.0800 
    133 H133        1.5740  -12.6052  -48.4427 H         1 UNK         0.0800 
    134 H134       -2.1636  -14.3039  -47.7156 H         1 UNK         0.0800 
    135 H135       -0.7541  -14.7523  -46.7973 H         1 UNK         0.0800 
    136 H136       -3.5344  -16.0541  -48.5890 H         1 UNK         0.1150 
    137 H137       -2.0675  -20.0731  -48.8099 H         1 UNK         0.1150 
    138 H138        0.5489  -16.9114  -47.5903 H         1 UNK         0.1150 
    139 H139        0.2858  -20.4859  -48.6301 H         1 UNK         0.0800 
    140 H140        1.4221  -19.1807  -48.3945 H         1 UNK         0.0800 
    141 H141        1.9611  -21.7928  -47.4552 H         1 UNK         0.0800 
    142 H142        2.3432  -21.7714  -45.7668 H         1 UNK         0.0800 
    143 H143        1.1971  -23.8258  -46.5007 H         1 UNK         0.0600 
    144 H144        0.1975  -22.3401  -44.2363 H         1 UNK         0.3000 
    145 H145       -1.2544  -25.3012  -42.7426 H         1 UNK         0.0600 
    146 H146        0.2943  -24.6493  -40.9282 H         1 UNK         0.0600 
    147 H147        1.2001  -25.3586  -42.2547 H         1 UNK         0.0600 
    148 H148        1.2046  -23.6137  -42.0279 H         1 UNK         0.0600 
    149 H149       -1.0804  -22.6766  -41.7273 H         1 UNK         0.3000 
    150 H150       -3.9205  -21.2146  -43.1850 H         1 UNK         0.0600 
    151 H151       -5.0316  -22.7278  -41.5376 H         1 UNK         0.0600 
    152 H152       -4.8009  -21.1222  -40.8644 H         1 UNK         0.0600 
    153 H153       -3.7373  -22.4439  -40.3799 H         1 UNK         0.0600 
    154 H154       -2.2971  -20.5019  -40.9354 H         1 UNK         0.3000 
    155 H155       -0.8589  -18.5157  -41.4027 H         1 UNK         0.0600 
    156 H156        1.3758  -19.5402  -40.8090 H         1 UNK         0.0600 
    157 H157        1.0895  -20.8460  -41.9544 H         1 UNK         0.0600 
    158 H158        0.0857  -20.6869  -40.5167 H         1 UNK         0.0600 
    159 H159        0.1679  -18.8287  -44.0541 H         1 UNK         0.3000 
    160 H160        1.9589  -17.6091  -44.8933 H         1 UNK         0.0600 
    161 H161        1.2952  -15.3346  -45.6748 H         1 UNK         0.0600 
    162 H162        0.6610  -14.9509  -44.0742 H         1 UNK         0.0600 
    163 H163       -0.0996  -16.2070  -45.0434 H         1 UNK         0.0600 
    164 H164        3.1150  -15.1809  -43.9685 H         1 UNK         0.3000 
    165 H165        6.0210  -16.4996  -42.4179 H         1 UNK         0.0600 
    166 H166        5.6480  -15.1905  -45.1615 H         1 UNK         0.0600 
    167 H167        7.0923  -15.0451  -44.1586 H         1 UNK         0.0600 
    168 H168        6.6176  -16.6104  -44.8012 H         1 UNK         0.0600 
    169 H169        4.7652  -13.9299  -43.1731 H         1 UNK         0.3000 
    170 H170        3.6413  -13.2280  -39.9087 H         1 UNK         0.0600 
    171 H171        6.0551  -12.7459  -39.5143 H         1 UNK         0.0600 
    172 H172        6.2037  -12.0688  -41.1314 H         1 UNK         0.0600 
    173 H173        5.1822  -11.2794  -39.9286 H         1 UNK         0.0600 
    174 H174        4.0923  -11.6577  -42.3121 H         1 UNK         0.3000 
    175 H175        1.0854  -12.4810  -43.9154 H         1 UNK         0.0600 
    176 H176        1.5933   -9.8862  -42.3645 H         1 UNK         0.0600 
    177 H177        0.4887  -10.0852  -43.7250 H         1 UNK         0.0600 
    178 H178        0.1654  -10.9031  -42.2050 H         1 UNK         0.0600 
    179 H179        2.8435  -10.3702  -44.4839 H         1 UNK         0.3000 
    180 H180        5.2443  -10.8525  -45.4469 H         1 UNK         0.0600 
    181 H181        4.7253  -13.1301  -47.4309 H         1 UNK         0.0600 
    182 H182        6.0084  -13.0611  -46.2268 H         1 UNK         0.0600 
    183 H183        6.0133  -11.9332  -47.5696 H         1 UNK         0.0600 
    184 H184        3.5049  -11.0039  -47.8057 H         1 UNK         0.3000 
    185 H185        1.9038   -7.8953  -47.2248 H         1 UNK         0.0600 
    186 H186        4.0194   -7.2732  -48.3929 H         1 UNK         0.0600 
    187 H187        3.9311   -8.7335  -49.3704 H         1 UNK         0.0600 
    188 H188        2.7036   -7.4778  -49.5379 H         1 UNK         0.0600 
    189 H189        1.7603   -9.9063  -49.2864 H         1 UNK         0.3000 
    190 H190       -1.7620  -21.9972  -45.8251 H         1 UNK         0.3000 
    191 H191       -2.8962  -22.1497  -48.4434 H         1 UNK         0.0600 
    192 H192       -5.0123  -21.5819  -47.2818 H         1 UNK         0.0600 
    193 H193       -3.7027  -20.5746  -46.6803 H         1 UNK         0.0600 
    194 H194       -4.2850  -21.9296  -45.7188 H         1 UNK         0.0600 
    195 H195       -3.1555  -24.3131  -45.5864 H         1 UNK         0.3000 
    196 H196       -4.8538  -26.2517  -46.7623 H         1 UNK         0.0600 
    197 H197       -4.0474  -27.7013  -44.8898 H         1 UNK         0.0600 
    198 H198       -4.4807  -26.0950  -44.3249 H         1 UNK         0.0600 
    199 H199       -2.7853  -26.5328  -44.5185 H         1 UNK         0.0600 
    200 H200       -1.2548  -26.0894  -46.6067 H         1 UNK         0.3000 
    201 H201       -0.7258  -28.5059  -47.9819 H         1 UNK         0.0600 
    202 H202        0.9714  -27.2945  -46.6401 H         1 UNK         0.0600 
    203 H203        0.9554  -25.9513  -47.7816 H         1 UNK         0.0600 
    204 H204        1.5532  -27.5286  -48.2813 H         1 UNK         0.0600 
    205 H205       -1.2309  -25.1923  -49.2167 H         1 UNK         0.3000 
    206 H206       -0.8281  -25.8380  -52.0028 H         1 UNK         0.0600 
    207 H207       -0.4780  -23.5556  -51.0963 H         1 UNK         0.0600 
    208 H208       -1.7603  -23.5143  -52.2922 H         1 UNK         0.0600 
    209 H209       -2.1635  -23.4630  -50.5875 H         1 UNK         0.0600 
    210 H210       -3.3856  -26.5323  -49.8826 H         1 UNK         0.3000 
    211 H211       -5.5264  -27.0565  -49.9504 H         1 UNK         0.0600 
    212 H212       -5.0629  -27.8151  -52.8873 H         1 UNK         0.0600 
    213 H213       -6.3768  -28.3759  -51.8611 H         1 UNK         0.0600 
    214 H214       -4.7258  -28.8563  -51.5048 H         1 UNK         0.0600 
    215 H215       -4.8958  -24.3928  -50.2780 H         1 UNK         0.3000 
    216 H216       -5.4712  -22.3551  -50.7881 H         1 UNK         0.0600 
    217 H217       -8.2057  -23.4483  -51.6345 H         1 UNK         0.0600 
    218 H218       -7.8284  -21.7674  -51.3019 H         1 UNK         0.0600 
    219 H219       -7.7472  -22.9505  -50.0068 H         1 UNK         0.0600 
    220 H220       -6.4051  -24.5279  -53.4162 H         1 UNK         0.3000 
    221 H221       -6.6281  -22.7635  -55.5331 H         1 UNK         0.0600 
    222 H222       -5.7466  -25.6978  -55.5463 H         1 UNK         0.0600 
    223 H223       -7.4049  -25.1029  -55.5938 H         1 UNK         0.0600 
    224 H224       -6.3298  -24.8132  -56.9530 H         1 UNK         0.0600 
    225 H225       -3.5980  -24.4785  -54.5173 H         1 UNK         0.3000 
    226 H226       -2.0874  -23.4542  -56.7546 H         1 UNK         0.0600 
    227 H227       -1.5466  -25.6028  -55.5991 H         1 UNK         0.0600 
    228 H228       -0.1707  -24.5115  -55.6526 H         1 UNK         0.0600 
    229 H229       -1.0694  -24.7080  -54.1594 H         1 UNK         0.0600 
    230 H230       -2.9869  -22.0565  -53.7343 H         1 UNK         0.3000 
    231 H231       -0.8853  -19.9585  -53.7989 H         1 UNK         0.0600 
    232 H232       -3.1313  -20.5551  -51.7985 H         1 UNK         0.0600 
    233 H233       -1.9282  -19.2832  -51.6362 H         1 UNK         0.0600 
    234 H234       -1.4274  -20.9631  -51.5979 H         1 UNK         0.0600 
    235 H235       -3.8270  -20.5933  -55.2698 H         1 UNK         0.3000 
    236 H236       -5.4008  -19.5206  -56.3426 H         1 UNK         0.0600 
    237 H237       -3.5255  -18.2402  -57.4106 H         1 UNK         0.0600 
    238 H238       -5.0113  -17.3092  -57.3238 H         1 UNK         0.0600 
    239 H239       -3.7066  -16.9741  -56.1962 H         1 UNK         0.0600 
    240 H240       -5.5574  -19.7767  -53.4864 H         1 UNK         0.3000 
    241 H241       -7.0568  -17.4031  -52.5568 H         1 UNK         0.0600 
    242 H242       -7.9717  -20.1596  -54.3177 H         1 UNK         0.3800 
    243 H243       -9.6105  -20.2561  -53.7261 H         1 UNK         0.3800 
    244 H244       -6.9997  -18.5171  -50.3336 H         1 UNK         0.0800 
    245 H245       -6.1897  -19.9018  -51.0312 H         1 UNK         0.0800 
    246 H246       -4.3861  -19.6772  -49.1621 H         1 UNK         0.0800 
    247 H247       -5.0816  -18.2204  -48.4855 H         1 UNK         0.0800 
@<TRIPOS>BOND
     1    1    2 1    
     2    1  127 1    
     3    1  128 1    
     4    1  129 1    
     5    2    3 2    
     6    2    4 am   BACKBONE|DICT|INTERRES
     7    4    5 1    
     8    4  130 1    
     9    5    6 1    
    10    5   65 1    
    11    5  131 1    
    12    6    7 1    
    13    6  132 1    
    14    6  133 1    
    15    7    8 1    
    16    8    9 1    
    17    8  134 1    
    18    8  135 1    
    19    9   10 ar   
    20    9   14 ar   
    21   10   11 ar   
    22   10  136 1    
    23   11   12 ar   
    24   11  126 1    
    25   12   13 ar   
    26   12  137 1    
    27   13   14 ar   
    28   13   15 1    
    29   14  138 1    
    30   15   16 1    
    31   15  139 1    
    32   15  140 1    
    33   16   17 1    
    34   17   18 1    
    35   17  141 1    
    36   17  142 1    
    37   18   19 1    
    38   18   67 1    
    39   18  143 1    
    40   19   20 am   BACKBONE|DICT|INTERRES
    41   19  144 1    
    42   20   21 2    
    43   20   22 1    
    44   22   23 1    
    45   22   24 1    
    46   22  145 1    
    47   23  146 1    
    48   23  147 1    
    49   23  148 1    
    50   24   25 am   BACKBONE|DICT|INTERRES
    51   24  149 1    
    52   25   26 2    
    53   25   27 1    
    54   27   28 1    
    55   27   29 1    
    56   27  150 1    
    57   28  151 1    
    58   28  152 1    
    59   28  153 1    
    60   29   30 am   BACKBONE|DICT|INTERRES
    61   29  154 1    
    62   30   31 2    
    63   30   32 1    
    64   32   33 1    
    65   32   34 1    
    66   32  155 1    
    67   33  156 1    
    68   33  157 1    
    69   33  158 1    
    70   34   35 am   BACKBONE|DICT|INTERRES
    71   34  159 1    
    72   35   36 2    
    73   35   37 1    
    74   37   38 1    
    75   37   39 1    
    76   37  160 1    
    77   38  161 1    
    78   38  162 1    
    79   38  163 1    
    80   39   40 am   BACKBONE|DICT|INTERRES
    81   39  164 1    
    82   40   41 2    
    83   40   42 1    
    84   42   43 1    
    85   42   44 1    
    86   42  165 1    
    87   43  166 1    
    88   43  167 1    
    89   43  168 1    
    90   44   45 am   BACKBONE|DICT|INTERRES
    91   44  169 1    
    92   45   46 2    
    93   45   47 1    
    94   47   48 1    
    95   47   49 1    
    96   47  170 1    
    97   48  171 1    
    98   48  172 1    
    99   48  173 1    
   100   49   50 am   BACKBONE|DICT|INTERRES
   101   49  174 1    
   102   50   51 2    
   103   50   52 1    
   104   52   53 1    
   105   52   54 1    
   106   52  175 1    
   107   53  176 1    
   108   53  177 1    
   109   53  178 1    
   110   54   55 am   BACKBONE|DICT|INTERRES
   111   54  179 1    
   112   55   56 2    
   113   55   57 1    
   114   57   58 1    
   115   57   59 1    
   116   57  180 1    
   117   58  181 1    
   118   58  182 1    
   119   58  183 1    
   120   59   60 am   BACKBONE|DICT|INTERRES
   121   59  184 1    
   122   60   61 2    
   123   60   62 1    
   124   62   63 1    
   125   62   64 1    
   126   62  185 1    
   127   63  186 1    
   128   63  187 1    
   129   63  188 1    
   130   64   65 am   BACKBONE|DICT|INTERRES
   131   64  189 1    
   132   65   66 2    
   133   67   68 2    
   134   67   69 am   BACKBONE|DICT|INTERRES
   135   69   70 1    
   136   69  190 1    
   137   70   71 1    
   138   70   72 1    
   139   70  191 1    
   140   71  192 1    
   141   71  193 1    
   142   71  194 1    
   143   72   73 2    
   144   72   74 am   BACKBONE|DICT|INTERRES
   145   74   75 1    
   146   74  195 1    
   147   75   76 1    
   148   75   77 1    
   149   75  196 1    
   150   76  197 1    
   151   76  198 1    
   152   76  199 1    
   153   77   78 2    
   154   77   79 am   BACKBONE|DICT|INTERRES
   155   79   80 1    
   156   79  200 1    
   157   80   81 1    
   158   80   82 1    
   159   80  201 1    
   160   81  202 1    
   161   81  203 1    
   162   81  204 1    
   163   82   83 2    
   164   82   84 am   BACKBONE|DICT|INTERRES
   165   84   85 1    
   166   84  205 1    
   167   85   86 1    
   168   85   87 1    
   169   85  206 1    
   170   86  207 1    
   171   86  208 1    
   172   86  209 1    
   173   87   88 2    
   174   87   89 am   BACKBONE|DICT|INTERRES
   175   89   90 1    
   176   89  210 1    
   177   90   91 1    
   178   90   92 1    
   179   90  211 1    
   180   91  212 1    
   181   91  213 1    
   182   91  214 1    
   183   92   93 2    
   184   92   94 am   BACKBONE|DICT|INTERRES
   185   94   95 1    
   186   94  215 1    
   187   95   96 1    
   188   95   97 1    
   189   95  216 1    
   190   96  217 1    
   191   96  218 1    
   192   96  219 1    
   193   97   98 2    
   194   97   99 am   BACKBONE|DICT|INTERRES
   195   99  100 1    
   196   99  220 1    
   197  100  101 1    
   198  100  102 1    
   199  100  221 1    
   200  101  222 1    
   201  101  223 1    
   202  101  224 1    
   203  102  103 2    
   204  102  104 am   BACKBONE|DICT|INTERRES
   205  104  105 1    
   206  104  225 1    
   207  105  106 1    
   208  105  107 1    
   209  105  226 1    
   210  106  227 1    
   211  106  228 1    
   212  106  229 1    
   213  107  108 2    
   214  107  109 am   BACKBONE|DICT|INTERRES
   215  109  110 1    
   216  109  230 1    
   217  110  111 1    
   218  110  112 1    
   219  110  231 1    
   220  111  232 1    
   221  111  233 1    
   222  111  234 1    
   223  112  113 2    
   224  112  114 am   BACKBONE|DICT|INTERRES
   225  114  115 1    
   226  114  235 1    
   227  115  116 1    
   228  115  117 1    
   229  115  236 1    
   230  116  237 1    
   231  116  238 1    
   232  116  239 1    
   233  117  118 2    
   234  117  119 am   BACKBONE|DICT|INTERRES
   235  119  120 1    
   236  119  240 1    
   237  120  121 1    
   238  120  124 1    
   239  120  241 1    
   240  121  122 am   BACKBONE|DICT|INTERRES
   241  121  123 2    
   242  122  242 1    
   243  122  243 1    
   244  124  125 1    
   245  124  244 1    
   246  124  245 1    
   247  125  126 1    
   248  126  246 1    
   249  126  247 1    
@<TRIPOS>SUBSTRUCTURE
     1 UNK         1 GROUP             0       ****    0 ROOT    
