@<TRIPOS>MOLECULE
3R540
247   249    1
SMALL
USER_CHARGES


@<TRIPOS>ATOM
      1 CA         -6.0936  -19.9286  -45.4296 C.3       0 UNK        -0.1800 
      2 C          -5.5664  -18.5085  -45.5695 C.2       0 UNK         0.5000 
      3 O          -5.9079  -17.6449  -44.7622 O.2       0 UNK        -0.5000 
      4 N          -4.7207  -18.2654  -46.5765 N.am      1 UNK        -0.5000 
      5 CA         -4.1231  -16.9746  -46.9510 C.3       1 UNK         0.1400 
      6 C6         -3.6442  -16.9916  -48.4277 C.3       23 UNK        -0.0398 
      7 S7         -2.4422  -18.3156  -48.8116 S.3       23 UNK        -0.2404 
      8 C8         -0.9195  -17.3563  -49.0653 C.3       23 UNK        -0.0205 
      9 C9          0.2558  -18.2309  -49.4760 C.ar      23 UNK        -0.0193 
     10 C10         0.4090  -18.6057  -50.8143 C.ar      23 UNK        -0.1150 
     11 C11         1.5309  -19.3306  -51.2255 C.ar      23 UNK        -0.0193 
     12 C12         2.4977  -19.6922  -50.2824 C.ar      23 UNK        -0.1150 
     13 C13         2.3608  -19.3217  -48.9402 C.ar      23 UNK        -0.0193 
     14 C14         1.2293  -18.6020  -48.5405 C.ar      23 UNK        -0.1150 
     15 C15         3.4830  -19.6187  -47.9498 C.3       23 UNK        -0.0205 
     16 S16         3.0519  -20.8633  -46.6928 S.3       23 UNK        -0.2404 
     17 C17         2.8624  -22.3805  -47.6982 C.3       23 UNK        -0.0398 
     18 CA          1.6708  -23.2750  -47.2750 C.3       11 UNK         0.1400 
     19 N           1.8049  -23.7773  -45.9066 N.am      11 UNK        -0.5000 
     20 C           0.9815  -24.6605  -45.3241 C.2       10 UNK         0.5000 
     21 O           0.0586  -25.2223  -45.9154 O.2       10 UNK        -0.5000 
     22 CA          1.1898  -24.9321  -43.8195 C.3       10 UNK         0.1400 
     23 CB          1.9296  -26.2622  -43.6144 C.3       10 UNK        -0.1800 
     24 N           1.9035  -23.8712  -43.0965 N.am      10 UNK        -0.5000 
     25 C           1.5064  -22.5948  -43.0005 C.2       9 UNK         0.5000 
     26 O           0.4884  -22.1586  -43.5469 O.2       9 UNK        -0.5000 
     27 CA          2.4093  -21.6556  -42.1826 C.3       9 UNK         0.1400 
     28 CB          3.8441  -21.5978  -42.7399 C.3       9 UNK        -0.1800 
     29 N           1.8322  -20.3203  -42.2117 N.am      9 UNK        -0.5000 
     30 C           1.9074  -19.3853  -41.2653 C.2       8 UNK         0.5000 
     31 O           2.5447  -19.5204  -40.2190 O.2       8 UNK        -0.5000 
     32 CA          1.1253  -18.0860  -41.5536 C.3       8 UNK         0.1400 
     33 CB          1.0085  -17.1762  -40.3185 C.3       8 UNK        -0.1800 
     34 N           1.6938  -17.3078  -42.6548 N.am      8 UNK        -0.5000 
     35 C           1.6766  -17.6334  -43.9548 C.2       7 UNK         0.5000 
     36 O           1.1627  -18.6607  -44.3906 O.2       7 UNK        -0.5000 
     37 CA          2.3214  -16.6454  -44.9409 C.3       7 UNK         0.1400 
     38 CB          1.2476  -15.7512  -45.5798 C.3       7 UNK        -0.1800 
     39 N           3.3272  -15.8003  -44.2980 N.am      7 UNK        -0.5000 
     40 C           4.6310  -16.0989  -44.2157 C.2       6 UNK         0.5000 
     41 O           5.1343  -17.1069  -44.7122 O.2       6 UNK        -0.5000 
     42 CA          5.5311  -15.1034  -43.4559 C.3       6 UNK         0.1400 
     43 CB          6.1624  -14.0994  -44.4327 C.3       6 UNK        -0.1800 
     44 N           4.8196  -14.3647  -42.4113 N.am      6 UNK        -0.5000 
     45 C           4.4065  -14.8944  -41.2516 C.2       5 UNK         0.5000 
     46 O           4.6346  -16.0547  -40.9112 O.2       5 UNK        -0.5000 
     47 CA          3.5685  -13.9842  -40.3302 C.3       5 UNK         0.1400 
     48 CB          4.4728  -13.2799  -39.3075 C.3       5 UNK        -0.1800 
     49 N           2.7678  -12.9767  -41.0366 N.am      5 UNK        -0.5000 
     50 C           1.8267  -13.2409  -41.9519 C.2       4 UNK         0.5000 
     51 O           1.5685  -14.3761  -42.3609 O.2       4 UNK        -0.5000 
     52 CA          1.0865  -12.0356  -42.5428 C.3       4 UNK         0.1400 
     53 CB          1.9626  -11.3051  -43.5753 C.3       4 UNK        -0.1800 
     54 N          -0.1292  -12.5125  -43.1900 N.am      4 UNK        -0.5000 
     55 C          -1.2755  -11.8359  -43.3071 C.2       3 UNK         0.5000 
     56 O          -1.4322  -10.6863  -42.8930 O.2       3 UNK        -0.5000 
     57 CA         -2.4456  -12.5490  -44.0139 C.3       3 UNK         0.1400 
     58 CB         -2.6644  -11.9591  -45.4161 C.3       3 UNK        -0.1800 
     59 N          -2.2663  -13.9963  -44.1472 N.am      3 UNK        -0.5000 
     60 C          -2.4296  -14.8991  -43.1740 C.2       2 UNK         0.5000 
     61 O          -2.7205  -14.5974  -42.0155 O.2       2 UNK        -0.5000 
     62 CA         -2.2633  -16.3816  -43.5828 C.3       2 UNK         0.1400 
     63 CB         -2.4962  -17.3487  -42.4088 C.3       2 UNK        -0.1800 
     64 N          -3.1568  -16.7709  -44.6766 N.am      2 UNK        -0.5000 
     65 C          -3.0468  -16.4380  -45.9686 C.2       1 UNK         0.5000 
     66 O          -2.1464  -15.7073  -46.3843 O.2       1 UNK        -0.5000 
     67 C           0.3122  -22.5846  -47.5164 C.2       11 UNK         0.5000 
     68 O          -0.3109  -22.8440  -48.5425 O.2       11 UNK        -0.5000 
     69 N          -0.1537  -21.7775  -46.5509 N.am      12 UNK        -0.5000 
     70 CA         -1.4320  -21.0746  -46.6310 C.3       12 UNK         0.1400 
     71 CB         -1.4885  -19.9425  -45.5973 C.3       12 UNK        -0.1800 
     72 C          -2.6378  -22.0102  -46.4831 C.2       12 UNK         0.5000 
     73 O          -3.6608  -21.7798  -47.1262 O.2       12 UNK        -0.5000 
     74 N          -2.4897  -23.0649  -45.6703 N.am      13 UNK        -0.5000 
     75 CA         -3.4907  -24.1197  -45.5118 C.3       13 UNK         0.1400 
     76 CB         -3.1166  -25.0128  -44.3190 C.3       13 UNK        -0.1800 
     77 C          -3.6618  -24.9504  -46.7976 C.2       13 UNK         0.5000 
     78 O          -4.7890  -25.3010  -47.1477 O.2       13 UNK        -0.5000 
     79 N          -2.5459  -25.2202  -47.4893 N.am      14 UNK        -0.5000 
     80 CA         -2.5196  -25.8866  -48.7895 C.3       14 UNK         0.1400 
     81 CB         -1.0903  -26.3682  -49.0845 C.3       14 UNK        -0.1800 
     82 C          -3.0424  -24.9847  -49.9241 C.2       14 UNK         0.5000 
     83 O          -3.8232  -25.4491  -50.7556 O.2       14 UNK        -0.5000 
     84 N          -2.6001  -23.7195  -49.9425 N.am      15 UNK        -0.5000 
     85 CA         -2.9424  -22.7290  -50.9638 C.3       15 UNK         0.1400 
     86 CB         -1.9681  -21.5485  -50.8669 C.3       15 UNK        -0.1800 
     87 C          -4.3957  -22.2307  -50.8841 C.2       15 UNK         0.5000 
     88 O          -4.9626  -21.8763  -51.9191 O.2       15 UNK        -0.5000 
     89 N          -4.9676  -22.2095  -49.6711 N.am      16 UNK        -0.5000 
     90 CA         -6.3365  -21.8140  -49.3369 C.3       16 UNK         0.1400 
     91 CB         -7.3439  -22.8559  -49.8715 C.3       16 UNK        -0.1800 
     92 C          -6.6381  -20.3676  -49.7781 C.2       16 UNK         0.5000 
     93 O          -6.2188  -19.4299  -49.1008 O.2       16 UNK        -0.5000 
     94 N          -7.3374  -20.2135  -50.9101 N.am      17 UNK        -0.5000 
     95 CA         -7.6608  -18.9323  -51.5407 C.3       17 UNK         0.1400 
     96 CB         -8.8007  -19.1605  -52.5469 C.3       17 UNK        -0.1800 
     97 C          -6.4605  -18.2605  -52.2405 C.2       17 UNK         0.5000 
     98 O          -6.5743  -17.0991  -52.6347 O.2       17 UNK        -0.5000 
     99 N          -5.3571  -19.0011  -52.4238 N.am      18 UNK        -0.5000 
    100 CA        -4.0973  -18.6389  -53.0842 C.3       18 UNK         0.1400 
    101 CB        -3.4431  -17.3894  -52.4674 C.3       18 UNK        -0.1800 
    102 C         -4.2179  -18.5077  -54.6088 C.2       18 UNK         0.5000 
    103 O         -3.4304  -19.1241  -55.3249 O.2       18 UNK        -0.5000 
    104 N         -5.2161  -17.7555  -55.0878 N.am      19 UNK        -0.5000 
    105 CA        -5.5066  -17.5275  -56.5078 C.3       19 UNK         0.1400 
    106 CB        -6.6321  -16.4886  -56.6228 C.3       19 UNK        -0.1800 
    107 C         -5.8750  -18.8107  -57.2806 C.2       19 UNK         0.5000 
    108 O         -5.6576  -18.8800  -58.4904 O.2       19 UNK        -0.5000 
    109 N         -6.4024  -19.8072  -56.5591 N.am      20 UNK        -0.5000 
    110 CA        -6.7142  -21.1460  -57.0578 C.3       20 UNK         0.1400 
    111 CB        -7.8738  -21.7070  -56.2166 C.3       20 UNK        -0.1800 
    112 C         -5.5040  -22.1057  -57.0185 C.2       20 UNK         0.5000 
    113 O         -5.6408  -23.2516  -57.4502 O.2       20 UNK        -0.5000 
    114 N         -4.3636  -21.6535  -56.4810 N.am      21 UNK        -0.5000 
    115 CA        -3.1689  -22.4513  -56.2313 C.3       21 UNK         0.1400 
    116 CB        -3.1621  -22.8776  -54.7481 C.3       21 UNK        -0.1800 
    117 C         -1.9185  -21.6665  -56.6724 C.2       21 UNK         0.5000 
    118 O         -1.8328  -21.2706  -57.8362 O.2       21 UNK        -0.5000 
    119 N         -0.9620  -21.4852  -55.7548 N.am      22 UNK        -0.5000 
    120 CA         0.3517  -20.8604  -55.9726 C.3       22 UNK         0.1400 
    121 C          0.3665  -19.3101  -56.1273 C.2       22 UNK         0.5000 
    122 N         -0.7412  -18.5984  -55.9747 N.am      22 UNK        -0.7600 
    123 O          1.4151  -18.7358  -56.4082 O.2       22 UNK        -0.5000 
    124 C124        1.3844  -21.3540  -54.9226 C.3       23 UNK        -0.0398 
    125 S125        0.8448  -21.1702  -53.1838 S.3       23 UNK        -0.2404 
    126 C126        1.7328  -19.6615  -52.6973 C.3       23 UNK        -0.0205 
    127 H127       -7.1754  -19.9184  -45.2974 H         1 UNK         0.0600 
    128 H128       -5.8682  -20.5269  -46.3112 H         1 UNK         0.0600 
    129 H129       -5.6443  -20.4134  -44.5630 H         1 UNK         0.0600 
    130 H130       -4.4954  -19.0232  -47.2087 H         1 UNK         0.3000 
    131 H131       -4.9283  -16.2390  -46.9016 H         1 UNK         0.0600 
    132 H132       -3.2436  -16.0208  -48.7240 H         1 UNK         0.0800 
    133 H133       -4.5076  -17.1498  -49.0757 H         1 UNK         0.0800 
    134 H134       -1.0942  -16.6012  -49.8331 H         1 UNK         0.0800 
    135 H135       -0.6738  -16.8140  -48.1534 H         1 UNK         0.0800 
    136 H136       -0.3340  -18.3103  -51.5418 H         1 UNK         0.1150 
    137 H137        3.3772  -20.2328  -50.6029 H         1 UNK         0.1150 
    138 H138        1.1257  -18.3039  -47.5066 H         1 UNK         0.1150 
    139 H139        4.3830  -19.9454  -48.4728 H         1 UNK         0.0800 
    140 H140        3.7551  -18.6937  -47.4401 H         1 UNK         0.0800 
    141 H141        3.7902  -22.9491  -47.6242 H         1 UNK         0.0800 
    142 H142        2.7667  -22.1181  -48.7525 H         1 UNK         0.0800 
    143 H143        1.6883  -24.1534  -47.9240 H         1 UNK         0.0600 
    144 H144        2.5236  -23.3482  -45.3431 H         1 UNK         0.3000 
    145 H145        0.1978  -25.0212  -43.3721 H         1 UNK         0.0600 
    146 H146        1.9935  -26.5204  -42.5572 H         1 UNK         0.0600 
    147 H147        1.4101  -27.0804  -44.1154 H         1 UNK         0.0600 
    148 H148        2.9437  -26.2237  -44.0142 H         1 UNK         0.0600 
    149 H149        2.7510  -24.1516  -42.6245 H         1 UNK         0.3000 
    150 H150        2.4279  -22.0237  -41.1549 H         1 UNK         0.0600 
    151 H151        4.3292  -22.5735  -42.7050 H         1 UNK         0.0600 
    152 H152        4.4629  -20.9130  -42.1597 H         1 UNK         0.0600 
    153 H153        3.8574  -21.2572  -43.7756 H         1 UNK         0.0600 
    154 H154        1.2996  -20.1089  -43.0528 H         1 UNK         0.3000 
    155 H155        0.1170  -18.3858  -41.8410 H         1 UNK         0.0600 
    156 H156        1.9880  -16.8492  -39.9695 H         1 UNK         0.0600 
    157 H157        0.5229  -17.6984  -39.4934 H         1 UNK         0.0600 
    158 H158        0.4150  -16.2874  -40.5352 H         1 UNK         0.0600 
    159 H159        2.0894  -16.4113  -42.4025 H         1 UNK         0.3000 
    160 H160        2.7851  -17.2320  -45.7363 H         1 UNK         0.0600 
    161 H161        1.6775  -15.1001  -46.3409 H         1 UNK         0.0600 
    162 H162        0.7489  -15.1225  -44.8426 H         1 UNK         0.0600 
    163 H163        0.4806  -16.3550  -46.0649 H         1 UNK         0.0600 
    164 H164        2.9797  -14.9834  -43.8124 H         1 UNK         0.3000 
    165 H165        6.3351  -15.6752  -42.9874 H         1 UNK         0.0600 
    166 H166        6.8573  -13.4338  -43.9204 H         1 UNK         0.0600 
    167 H167        6.7237  -14.6146  -45.2135 H         1 UNK         0.0600 
    168 H168        5.4066  -13.4846  -44.9232 H         1 UNK         0.0600 
    169 H169        4.5985  -13.3990  -42.6038 H         1 UNK         0.3000 
    170 H170        2.8751  -14.6251  -39.7831 H         1 UNK         0.0600 
    171 H171        5.0644  -14.0034  -38.7448 H         1 UNK         0.0600 
    172 H172        5.1680  -12.5926  -39.7912 H         1 UNK         0.0600 
    173 H173        3.8855  -12.7123  -38.5855 H         1 UNK         0.0600 
    174 H174        2.9299  -12.0158  -40.7707 H         1 UNK         0.3000 
    175 H175        0.8307  -11.3578  -41.7258 H         1 UNK         0.0600 
    176 H176        2.2461  -11.9627  -44.3982 H         1 UNK         0.0600 
    177 H177        1.4392  -10.4479  -43.9992 H         1 UNK         0.0600 
    178 H178        2.8803  -10.9298  -43.1211 H         1 UNK         0.0600 
    179 H179       -0.0947  -13.4787  -43.4860 H         1 UNK         0.3000 
    180 H180       -3.3446  -12.3653  -43.4219 H         1 UNK         0.0600 
    181 H181       -1.7994  -12.1242  -46.0599 H         1 UNK         0.0600 
    182 H182       -2.8381  -10.8833  -45.3673 H         1 UNK         0.0600 
    183 H183       -3.5329  -12.4057  -45.9007 H         1 UNK         0.0600 
    184 H184       -2.0626  -14.3508  -45.0785 H         1 UNK         0.3000 
    185 H185       -1.2324  -16.5085  -43.9178 H         1 UNK         0.0600 
    186 H186       -1.8634  -17.0968  -41.5575 H         1 UNK         0.0600 
    187 H187       -3.5311  -17.3199  -42.0654 H         1 UNK         0.0600 
    188 H188       -2.2666  -18.3755  -42.6947 H         1 UNK         0.0600 
    189 H189       -3.9941  -17.2781  -44.4121 H         1 UNK         0.3000 
    190 H190        0.3885  -21.6467  -45.7054 H         1 UNK         0.3000 
    191 H191       -1.4966  -20.6308  -47.6230 H         1 UNK         0.0600 
    192 H192       -1.1809  -20.2756  -44.6061 H         1 UNK         0.0600 
    193 H193       -2.4956  -19.5383  -45.5063 H         1 UNK         0.0600 
    194 H194       -0.8444  -19.1177  -45.8992 H         1 UNK         0.0600 
    195 H195       -1.6095  -23.1832  -45.1893 H         1 UNK         0.3000 
    196 H196       -4.4489  -23.6441  -45.2916 H         1 UNK         0.0600 
    197 H197       -3.0235  -24.4297  -43.4027 H         1 UNK         0.0600 
    198 H198       -2.1741  -25.5354  -44.4818 H         1 UNK         0.0600 
    199 H199       -3.8829  -25.7695  -44.1466 H         1 UNK         0.0600 
    200 H200       -1.6522  -24.9395  -47.1009 H         1 UNK         0.3000 
    201 H201       -3.1658  -26.7654  -48.7365 H         1 UNK         0.0600 
    202 H202       -0.3845  -25.5383  -49.1294 H         1 UNK         0.0600 
    203 H203       -1.0440  -26.8916  -50.0402 H         1 UNK         0.0600 
    204 H204       -0.7420  -27.0593  -48.3166 H         1 UNK         0.0600 
    205 H205       -1.8982  -23.4332  -49.2632 H         1 UNK         0.3000 
    206 H206       -2.8067  -23.2008  -51.9377 H         1 UNK         0.0600 
    207 H207       -2.1323  -20.8273  -51.6651 H         1 UNK         0.0600 
    208 H208       -2.0715  -21.0229  -49.9187 H         1 UNK         0.0600 
    209 H209       -0.9347  -21.8833  -50.9471 H         1 UNK         0.0600 
    210 H210       -4.3794  -22.4084  -48.8678 H         1 UNK         0.3000 
    211 H211       -6.4029  -21.8259  -48.2486 H         1 UNK         0.0600 
    212 H212       -7.2887  -22.9754  -50.9538 H         1 UNK         0.0600 
    213 H213       -8.3678  -22.5782  -49.6180 H         1 UNK         0.0600 
    214 H214       -7.1571  -23.8337  -49.4266 H         1 UNK         0.0600 
    215 H215       -7.6068  -21.0449  -51.4158 H         1 UNK         0.3000 
    216 H216       -8.0139  -18.2457  -50.7686 H         1 UNK         0.0600 
    217 H217       -9.1046  -18.2237  -53.0160 H         1 UNK         0.0600 
    218 H218       -9.6818  -19.5757  -52.0572 H         1 UNK         0.0600 
    219 H219       -8.5047  -19.8450  -53.3430 H         1 UNK         0.0600 
    220 H220       -5.3960  -19.9675  -52.1111 H         1 UNK         0.3000 
    221 H221       -3.4275  -19.4780  -52.9020 H         1 UNK         0.0600 
    222 H222       -4.0077  -16.4808  -52.6770 H         1 UNK         0.0600 
    223 H223       -3.3569  -17.4849  -51.3880 H         1 UNK         0.0600 
    224 H224       -2.4371  -17.2448  -52.8630 H         1 UNK         0.0600 
    225 H225       -5.8189  -17.2974  -54.4100 H         1 UNK         0.3000 
    226 H226       -4.6071  -17.1151  -56.9694 H         1 UNK         0.0600 
    227 H227       -6.3485  -15.5466  -56.1532 H         1 UNK         0.0600 
    228 H228       -6.8623  -16.2740  -57.6673 H         1 UNK         0.0600 
    229 H229       -7.5501  -16.8373  -56.1479 H         1 UNK         0.0600 
    230 H230       -6.5383  -19.6529  -55.5713 H         1 UNK         0.3000 
    231 H231       -7.0457  -21.0774  -58.0960 H         1 UNK         0.0600 
    232 H232       -8.7456  -21.0538  -56.2603 H         1 UNK         0.0600 
    233 H233       -7.5918  -21.8218  -55.1690 H         1 UNK         0.0600 
    234 H234       -8.1866  -22.6862  -56.5814 H         1 UNK         0.0600 
    235 H235       -4.2913  -20.6788  -56.2086 H         1 UNK         0.3000 
    236 H236       -3.1851  -23.3550  -56.8436 H         1 UNK         0.0600 
    237 H237       -2.3089  -23.5171  -54.5183 H         1 UNK         0.0600 
    238 H238       -3.1308  -22.0131  -54.0836 H         1 UNK         0.0600 
    239 H239       -4.0594  -23.4455  -54.5007 H         1 UNK         0.0600 
    240 H240       -1.1268  -21.8103  -54.8136 H         1 UNK         0.3000 
    241 H241        0.7045  -21.2252  -56.9391 H         1 UNK         0.0600 
    242 H242       -0.6968  -17.5998  -56.0930 H         1 UNK         0.3800 
    243 H243       -1.6356  -19.0337  -55.7653 H         1 UNK         0.3800 
    244 H244        1.5675  -22.4169  -55.0854 H         1 UNK         0.0800 
    245 H245        2.3551  -20.8763  -55.0665 H         1 UNK         0.0800 
    246 H246        2.7961  -19.7826  -52.9098 H         1 UNK         0.0800 
    247 H247        1.3907  -18.8265  -53.3105 H         1 UNK         0.0800 
@<TRIPOS>BOND
     1    1    2 1    
     2    1  127 1    
     3    1  128 1    
     4    1  129 1    
     5    2    3 2    
     6    2    4 am   BACKBONE|DICT|INTERRES
     7    4    5 1    
     8    4  130 1    
     9    5    6 1    
    10    5   65 1    
    11    5  131 1    
    12    6    7 1    
    13    6  132 1    
    14    6  133 1    
    15    7    8 1    
    16    8    9 1    
    17    8  134 1    
    18    8  135 1    
    19    9   10 ar   
    20    9   14 ar   
    21   10   11 ar   
    22   10  136 1    
    23   11   12 ar   
    24   11  126 1    
    25   12   13 ar   
    26   12  137 1    
    27   13   14 ar   
    28   13   15 1    
    29   14  138 1    
    30   15   16 1    
    31   15  139 1    
    32   15  140 1    
    33   16   17 1    
    34   17   18 1    
    35   17  141 1    
    36   17  142 1    
    37   18   19 1    
    38   18   67 1    
    39   18  143 1    
    40   19   20 am   BACKBONE|DICT|INTERRES
    41   19  144 1    
    42   20   21 2    
    43   20   22 1    
    44   22   23 1    
    45   22   24 1    
    46   22  145 1    
    47   23  146 1    
    48   23  147 1    
    49   23  148 1    
    50   24   25 am   BACKBONE|DICT|INTERRES
    51   24  149 1    
    52   25   26 2    
    53   25   27 1    
    54   27   28 1    
    55   27   29 1    
    56   27  150 1    
    57   28  151 1    
    58   28  152 1    
    59   28  153 1    
    60   29   30 am   BACKBONE|DICT|INTERRES
    61   29  154 1    
    62   30   31 2    
    63   30   32 1    
    64   32   33 1    
    65   32   34 1    
    66   32  155 1    
    67   33  156 1    
    68   33  157 1    
    69   33  158 1    
    70   34   35 am   BACKBONE|DICT|INTERRES
    71   34  159 1    
    72   35   36 2    
    73   35   37 1    
    74   37   38 1    
    75   37   39 1    
    76   37  160 1    
    77   38  161 1    
    78   38  162 1    
    79   38  163 1    
    80   39   40 am   BACKBONE|DICT|INTERRES
    81   39  164 1    
    82   40   41 2    
    83   40   42 1    
    84   42   43 1    
    85   42   44 1    
    86   42  165 1    
    87   43  166 1    
    88   43  167 1    
    89   43  168 1    
    90   44   45 am   BACKBONE|DICT|INTERRES
    91   44  169 1    
    92   45   46 2    
    93   45   47 1    
    94   47   48 1    
    95   47   49 1    
    96   47  170 1    
    97   48  171 1    
    98   48  172 1    
    99   48  173 1    
   100   49   50 am   BACKBONE|DICT|INTERRES
   101   49  174 1    
   102   50   51 2    
   103   50   52 1    
   104   52   53 1    
   105   52   54 1    
   106   52  175 1    
   107   53  176 1    
   108   53  177 1    
   109   53  178 1    
   110   54   55 am   BACKBONE|DICT|INTERRES
   111   54  179 1    
   112   55   56 2    
   113   55   57 1    
   114   57   58 1    
   115   57   59 1    
   116   57  180 1    
   117   58  181 1    
   118   58  182 1    
   119   58  183 1    
   120   59   60 am   BACKBONE|DICT|INTERRES
   121   59  184 1    
   122   60   61 2    
   123   60   62 1    
   124   62   63 1    
   125   62   64 1    
   126   62  185 1    
   127   63  186 1    
   128   63  187 1    
   129   63  188 1    
   130   64   65 am   BACKBONE|DICT|INTERRES
   131   64  189 1    
   132   65   66 2    
   133   67   68 2    
   134   67   69 am   BACKBONE|DICT|INTERRES
   135   69   70 1    
   136   69  190 1    
   137   70   71 1    
   138   70   72 1    
   139   70  191 1    
   140   71  192 1    
   141   71  193 1    
   142   71  194 1    
   143   72   73 2    
   144   72   74 am   BACKBONE|DICT|INTERRES
   145   74   75 1    
   146   74  195 1    
   147   75   76 1    
   148   75   77 1    
   149   75  196 1    
   150   76  197 1    
   151   76  198 1    
   152   76  199 1    
   153   77   78 2    
   154   77   79 am   BACKBONE|DICT|INTERRES
   155   79   80 1    
   156   79  200 1    
   157   80   81 1    
   158   80   82 1    
   159   80  201 1    
   160   81  202 1    
   161   81  203 1    
   162   81  204 1    
   163   82   83 2    
   164   82   84 am   BACKBONE|DICT|INTERRES
   165   84   85 1    
   166   84  205 1    
   167   85   86 1    
   168   85   87 1    
   169   85  206 1    
   170   86  207 1    
   171   86  208 1    
   172   86  209 1    
   173   87   88 2    
   174   87   89 am   BACKBONE|DICT|INTERRES
   175   89   90 1    
   176   89  210 1    
   177   90   91 1    
   178   90   92 1    
   179   90  211 1    
   180   91  212 1    
   181   91  213 1    
   182   91  214 1    
   183   92   93 2    
   184   92   94 am   BACKBONE|DICT|INTERRES
   185   94   95 1    
   186   94  215 1    
   187   95   96 1    
   188   95   97 1    
   189   95  216 1    
   190   96  217 1    
   191   96  218 1    
   192   96  219 1    
   193   97   98 2    
   194   97   99 am   BACKBONE|DICT|INTERRES
   195   99  100 1    
   196   99  220 1    
   197  100  101 1    
   198  100  102 1    
   199  100  221 1    
   200  101  222 1    
   201  101  223 1    
   202  101  224 1    
   203  102  103 2    
   204  102  104 am   BACKBONE|DICT|INTERRES
   205  104  105 1    
   206  104  225 1    
   207  105  106 1    
   208  105  107 1    
   209  105  226 1    
   210  106  227 1    
   211  106  228 1    
   212  106  229 1    
   213  107  108 2    
   214  107  109 am   BACKBONE|DICT|INTERRES
   215  109  110 1    
   216  109  230 1    
   217  110  111 1    
   218  110  112 1    
   219  110  231 1    
   220  111  232 1    
   221  111  233 1    
   222  111  234 1    
   223  112  113 2    
   224  112  114 am   BACKBONE|DICT|INTERRES
   225  114  115 1    
   226  114  235 1    
   227  115  116 1    
   228  115  117 1    
   229  115  236 1    
   230  116  237 1    
   231  116  238 1    
   232  116  239 1    
   233  117  118 2    
   234  117  119 am   BACKBONE|DICT|INTERRES
   235  119  120 1    
   236  119  240 1    
   237  120  121 1    
   238  120  124 1    
   239  120  241 1    
   240  121  122 am   BACKBONE|DICT|INTERRES
   241  121  123 2    
   242  122  242 1    
   243  122  243 1    
   244  124  125 1    
   245  124  244 1    
   246  124  245 1    
   247  125  126 1    
   248  126  246 1    
   249  126  247 1    
@<TRIPOS>SUBSTRUCTURE
     1 UNK         1 GROUP             0       ****    0 ROOT    
