@<TRIPOS>MOLECULE
3R540
247   249    1
SMALL
USER_CHARGES


@<TRIPOS>ATOM
      1 CA         -2.5267  -16.2059  -43.9033 C.3       0 UNK        -0.1800 
      2 C          -3.1984  -15.2047  -44.8322 C.2       0 UNK         0.5000 
      3 O          -4.2921  -14.7262  -44.5337 O.2       0 UNK        -0.5000 
      4 N          -2.5397  -14.8776  -45.9524 N.am      1 UNK        -0.5000 
      5 CA         -3.0148  -13.9206  -46.9648 C.3       1 UNK         0.1400 
      6 C6         -2.2057  -14.0074  -48.2831 C.3       23 UNK        -0.0398 
      7 S7         -2.1763  -15.6791  -49.0116 S.3       23 UNK        -0.2404 
      8 C8         -0.7158  -15.5250  -50.0848 C.3       23 UNK        -0.0205 
      9 C9         -0.3054  -16.8692  -50.6609 C.ar      23 UNK        -0.0193 
     10 C10        -0.8470  -17.3186  -51.8678 C.ar      23 UNK        -0.1150 
     11 C11        -0.4638  -18.5528  -52.4013 C.ar      23 UNK        -0.0193 
     12 C12         0.4681  -19.3377  -51.7161 C.ar      23 UNK        -0.1150 
     13 C13         1.0124  -18.9014  -50.5042 C.ar      23 UNK        -0.0193 
     14 C14         0.6245  -17.6633  -49.9860 C.ar      23 UNK        -0.1150 
     15 C15         2.0069  -19.7681  -49.7397 C.3       23 UNK        -0.0205 
     16 S16         1.3651  -21.4325  -49.3579 S.3       23 UNK        -0.2404 
     17 C17        -0.3140  -21.0661  -48.7502 C.3       23 UNK        -0.0398 
     18 CA         -0.8225  -22.1448  -47.7716 C.3       11 UNK         0.1400 
     19 N          -0.0813  -22.1551  -46.5087 N.am      11 UNK        -0.5000 
     20 C          -0.1457  -23.1367  -45.5993 C.2       10 UNK         0.5000 
     21 O          -0.8187  -24.1569  -45.7402 O.2       10 UNK        -0.5000 
     22 CA          0.6250  -22.9062  -44.2882 C.3       10 UNK         0.1400 
     23 CB          2.1186  -23.2140  -44.4692 C.3       10 UNK        -0.1800 
     24 N           0.4574  -21.5375  -43.7973 N.am      10 UNK        -0.5000 
     25 C          -0.7030  -21.0486  -43.3335 C.2       9 UNK         0.5000 
     26 O          -1.7273  -21.7210  -43.2200 O.2       9 UNK        -0.5000 
     27 CA         -0.7492  -19.5474  -42.9909 C.3       9 UNK         0.1400 
     28 CB         -0.3813  -19.3117  -41.5197 C.3       9 UNK        -0.1800 
     29 N           0.1124  -18.7315  -43.8486 N.am      9 UNK        -0.5000 
     30 C          -0.0256  -18.6118  -45.1769 C.2       8 UNK         0.5000 
     31 O          -0.9421  -19.1290  -45.8124 O.2       8 UNK        -0.5000 
     32 CA          1.0544  -17.8175  -45.9319 C.3       8 UNK         0.1400 
     33 CB          0.5508  -16.4147  -46.2947 C.3       8 UNK        -0.1800 
     34 N           2.3127  -17.6885  -45.2010 N.am      8 UNK        -0.5000 
     35 C           3.1541  -18.6887  -44.9049 C.2       7 UNK         0.5000 
     36 O           2.9192  -19.8673  -45.1743 O.2       7 UNK        -0.5000 
     37 CA          4.4374  -18.3168  -44.1331 C.3       7 UNK         0.1400 
     38 CB          5.6936  -18.9910  -44.7207 C.3       7 UNK        -0.1800 
     39 N           4.6150  -16.8670  -43.9591 N.am      7 UNK        -0.5000 
     40 C           4.9421  -15.9448  -44.8810 C.2       6 UNK         0.5000 
     41 O           5.2316  -16.2170  -46.0457 O.2       6 UNK        -0.5000 
     42 CA          4.8807  -14.4597  -44.4566 C.3       6 UNK         0.1400 
     43 CB          3.8334  -13.7038  -45.2927 C.3       6 UNK        -0.1800 
     44 N           4.5536  -14.2746  -43.0419 N.am      6 UNK        -0.5000 
     45 C           5.4150  -14.4171  -42.0250 C.2       5 UNK         0.5000 
     46 O           6.6163  -14.6398  -42.1759 O.2       5 UNK        -0.5000 
     47 CA          4.8321  -14.3313  -40.5990 C.3       5 UNK         0.1400 
     48 CB          5.0962  -12.9430  -39.9962 C.3       5 UNK        -0.1800 
     49 N           3.3947  -14.6131  -40.5197 N.am      5 UNK        -0.5000 
     50 C           2.7975  -15.7691  -40.8475 C.2       4 UNK         0.5000 
     51 O           3.4023  -16.7554  -41.2672 O.2       4 UNK        -0.5000 
     52 CA          1.2619  -15.8158  -40.7343 C.3       4 UNK         0.1400 
     53 CB          0.8405  -16.4620  -39.4065 C.3       4 UNK        -0.1800 
     54 N           0.6374  -14.4951  -40.8478 N.am      4 UNK        -0.5000 
     55 C           0.5819  -13.7801  -41.9779 C.2       3 UNK         0.5000 
     56 O           1.0224  -14.1714  -43.0628 O.2       3 UNK        -0.5000 
     57 CA         -0.0235  -12.3769  -41.8616 C.3       3 UNK         0.1400 
     58 CB          1.0405  -11.3656  -41.3971 C.3       3 UNK        -0.1800 
     59 N          -0.5498  -11.9840  -43.1631 N.am      3 UNK        -0.5000 
     60 C          -1.5214  -11.0840  -43.3623 C.2       2 UNK         0.5000 
     61 O          -2.0629  -10.4490  -42.4567 O.2       2 UNK        -0.5000 
     62 CA         -1.9933  -10.8867  -44.8091 C.3       2 UNK         0.1400 
     63 CB         -1.0266   -9.9860  -45.5975 C.3       2 UNK        -0.1800 
     64 N          -2.1372  -12.1811  -45.4700 N.am      2 UNK        -0.5000 
     65 C          -3.0020  -12.4628  -46.4516 C.2       1 UNK         0.5000 
     66 O          -3.7610  -11.6337  -46.9555 O.2       1 UNK        -0.5000 
     67 C          -2.3393  -22.0005  -47.5488 C.2       11 UNK         0.5000 
     68 O          -3.1103  -22.6009  -48.2959 O.2       11 UNK        -0.5000 
     69 N          -2.7487  -21.2311  -46.5320 N.am      12 UNK        -0.5000 
     70 CA         -4.1422  -21.1007  -46.1090 C.3       12 UNK         0.1400 
     71 CB         -4.2790  -19.9389  -45.1149 C.3       12 UNK        -0.1800 
     72 C          -4.6944  -22.4121  -45.5229 C.2       12 UNK         0.5000 
     73 O          -5.7963  -22.8181  -45.8915 O.2       12 UNK        -0.5000 
     74 N          -3.9039  -23.0752  -44.6658 N.am      13 UNK        -0.5000 
     75 CA         -4.2250  -24.3749  -44.0700 C.3       13 UNK         0.1400 
     76 CB         -3.1952  -24.7090  -42.9803 C.3       13 UNK        -0.1800 
     77 C          -4.3079  -25.5102  -45.1084 C.2       13 UNK         0.5000 
     78 O          -5.2038  -26.3504  -45.0211 O.2       13 UNK        -0.5000 
     79 N          -3.3935  -25.4970  -46.0880 N.am      14 UNK        -0.5000 
     80 CA         -3.3592  -26.4342  -47.2140 C.3       14 UNK         0.1400 
     81 CB         -1.9606  -26.3847  -47.8501 C.3       14 UNK        -0.1800 
     82 C          -4.4344  -26.1574  -48.2856 C.2       14 UNK         0.5000 
     83 O          -4.6471  -27.0064  -49.1513 O.2       14 UNK        -0.5000 
     84 N          -5.0532  -24.9681  -48.2343 N.am      15 UNK        -0.5000 
     85 CA         -5.9999  -24.3904  -49.1970 C.3       15 UNK         0.1400 
     86 CB         -7.2609  -25.2631  -49.3552 C.3       15 UNK        -0.1800 
     87 C          -5.3625  -24.0215  -50.5543 C.2       15 UNK         0.5000 
     88 O          -6.0818  -23.6808  -51.4935 O.2       15 UNK        -0.5000 
     89 N          -4.0247  -24.0242  -50.6241 N.am      16 UNK        -0.5000 
     90 CA         -3.2298  -23.5872  -51.7705 C.3       16 UNK         0.1400 
     91 CB         -1.7559  -23.9467  -51.5341 C.3       16 UNK        -0.1800 
     92 C          -3.3780  -22.0815  -52.0433 C.2       16 UNK         0.5000 
     93 O          -3.3603  -21.6747  -53.2048 O.2       16 UNK        -0.5000 
     94 N          -3.5663  -21.2922  -50.9745 N.am      17 UNK        -0.5000 
     95 CA         -3.8546  -19.8591  -51.0472 C.3       17 UNK         0.1400 
     96 CB         -3.7558  -19.2334  -49.6486 C.3       17 UNK        -0.1800 
     97 C          -5.2275  -19.5673  -51.6803 C.2       17 UNK         0.5000 
     98 O          -5.3478  -18.6267  -52.4645 O.2       17 UNK        -0.5000 
     99 N          -6.2264  -20.3980  -51.3490 N.am      18 UNK        -0.5000 
    100 CA        -7.5859  -20.3183  -51.8846 C.3       18 UNK         0.1400 
    101 CB        -8.5393  -21.1094  -50.9751 C.3       18 UNK        -0.1800 
    102 C         -7.6670  -20.8222  -53.3364 C.2       18 UNK         0.5000 
    103 O         -8.3593  -20.2157  -54.1542 O.2       18 UNK        -0.5000 
    104 N         -6.9409  -21.9088  -53.6334 N.am      19 UNK        -0.5000 
    105 CA        -6.8395  -22.5121  -54.9640 C.3       19 UNK         0.1400 
    106 CB        -6.2511  -23.9244  -54.8183 C.3       19 UNK        -0.1800 
    107 C         -5.9942  -21.6903  -55.9581 C.2       19 UNK         0.5000 
    108 O         -6.0889  -21.9313  -57.1621 O.2       19 UNK        -0.5000 
    109 N         -5.1697  -20.7677  -55.4385 N.am      20 UNK        -0.5000 
    110 CA        -4.1518  -19.9814  -56.1445 C.3       20 UNK         0.1400 
    111 CB        -4.7879  -19.0328  -57.1812 C.3       20 UNK        -0.1800 
    112 C         -3.0345  -20.8720  -56.7302 C.2       20 UNK         0.5000 
    113 O         -2.5097  -20.5945  -57.8098 O.2       20 UNK        -0.5000 
    114 N         -2.6836  -21.9298  -55.9892 N.am      21 UNK        -0.5000 
    115 CA        -1.6579  -22.9154  -56.3227 C.3       21 UNK         0.1400 
    116 CB        -2.1607  -24.3044  -55.8888 C.3       21 UNK        -0.1800 
    117 C         -0.3302  -22.5231  -55.6495 C.2       21 UNK         0.5000 
    118 O          0.2322  -23.2984  -54.8742 O.2       21 UNK        -0.5000 
    119 N          0.1069  -21.2866  -55.9081 N.am      22 UNK        -0.5000 
    120 CA         1.2548  -20.6465  -55.2547 C.3       22 UNK         0.1400 
    121 C          2.6219  -21.2263  -55.7136 C.2       22 UNK         0.5000 
    122 N          3.6327  -21.2000  -54.8554 N.am      22 UNK        -0.7600 
    123 O          2.7888  -21.6602  -56.8517 O.2       22 UNK        -0.5000 
    124 C124        1.2279  -19.1019  -55.4171 C.3       23 UNK        -0.0398 
    125 S125       -0.3909  -18.2769  -55.1744 S.3       23 UNK        -0.2404 
    126 C126       -1.1017  -19.0532  -53.6873 C.3       23 UNK        -0.0205 
    127 H127       -2.9098  -16.1049  -42.8878 H         1 UNK         0.0600 
    128 H128       -1.4485  -16.0524  -43.8679 H         1 UNK         0.0600 
    129 H129       -2.7247  -17.2217  -44.2432 H         1 UNK         0.0600 
    130 H130       -1.6680  -15.3371  -46.1684 H         1 UNK         0.3000 
    131 H131       -4.0534  -14.1705  -47.1925 H         1 UNK         0.0600 
    132 H132       -2.6216  -13.3292  -49.0308 H         1 UNK         0.0800 
    133 H133       -1.1781  -13.6809  -48.1120 H         1 UNK         0.0800 
    134 H134        0.1156  -15.1023  -49.5184 H         1 UNK         0.0800 
    135 H135       -0.9305  -14.8205  -50.8898 H         1 UNK         0.0800 
    136 H136       -1.5737  -16.7113  -52.3891 H         1 UNK         0.1150 
    137 H137        0.7520  -20.3050  -52.1019 H         1 UNK         0.1150 
    138 H138        1.0423  -17.3152  -49.0531 H         1 UNK         0.1150 
    139 H139        2.3035  -19.2887  -48.8062 H         1 UNK         0.0800 
    140 H140        2.9169  -19.8690  -50.3322 H         1 UNK         0.0800 
    141 H141       -0.9600  -21.0016  -49.6277 H         1 UNK         0.0800 
    142 H142       -0.3331  -20.0816  -48.2800 H         1 UNK         0.0800 
    143 H143       -0.6733  -23.1185  -48.2431 H         1 UNK         0.0600 
    144 H144        0.4845  -21.3438  -46.3087 H         1 UNK         0.3000 
    145 H145        0.2246  -23.5911  -43.5377 H         1 UNK         0.0600 
    146 H146        2.2662  -24.2458  -44.7906 H         1 UNK         0.0600 
    147 H147        2.6647  -23.0830  -43.5350 H         1 UNK         0.0600 
    148 H148        2.5779  -22.5692  -45.2193 H         1 UNK         0.0600 
    149 H149        1.2484  -20.9160  -43.9034 H         1 UNK         0.3000 
    150 H150       -1.7779  -19.2142  -43.1364 H         1 UNK         0.0600 
    151 H151        0.6747  -19.5057  -41.3282 H         1 UNK         0.0600 
    152 H152       -0.9603  -19.9610  -40.8614 H         1 UNK         0.0600 
    153 H153       -0.5992  -18.2860  -41.2258 H         1 UNK         0.0600 
    154 H154        0.9004  -18.2808  -43.4095 H         1 UNK         0.3000 
    155 H155        1.2574  -18.3600  -46.8561 H         1 UNK         0.0600 
    156 H156        1.2652  -15.8918  -46.9310 H         1 UNK         0.0600 
    157 H157        0.3852  -15.8022  -45.4078 H         1 UNK         0.0600 
    158 H158       -0.3860  -16.4779  -46.8460 H         1 UNK         0.0600 
    159 H159        2.5817  -16.7557  -44.9273 H         1 UNK         0.3000 
    160 H160        4.3002  -18.7151  -43.1269 H         1 UNK         0.0600 
    161 H161        5.8427  -18.7361  -45.7700 H         1 UNK         0.0600 
    162 H162        5.6131  -20.0771  -44.6628 H         1 UNK         0.0600 
    163 H163        6.5901  -18.7030  -44.1719 H         1 UNK         0.0600 
    164 H164        4.3771  -16.5374  -43.0293 H         1 UNK         0.3000 
    165 H165        5.8606  -14.0209  -44.6552 H         1 UNK         0.0600 
    166 H166        3.7980  -12.6486  -45.0211 H         1 UNK         0.0600 
    167 H167        4.0674  -13.7549  -46.3568 H         1 UNK         0.0600 
    168 H168        2.8334  -14.1177  -45.1574 H         1 UNK         0.0600 
    169 H169        3.5820  -14.0963  -42.8276 H         1 UNK         0.3000 
    170 H170        5.3504  -15.0756  -39.9911 H         1 UNK         0.0600 
    171 H171        4.7700  -12.8947  -38.9571 H         1 UNK         0.0600 
    172 H172        4.5765  -12.1593  -40.5491 H         1 UNK         0.0600 
    173 H173        6.1607  -12.7052  -40.0117 H         1 UNK         0.0600 
    174 H174        2.8116  -13.8613  -40.1841 H         1 UNK         0.3000 
    175 H175        0.8942  -16.4366  -41.5534 H         1 UNK         0.0600 
    176 H176        1.2603  -17.4642  -39.3092 H         1 UNK         0.0600 
    177 H177        1.1793  -15.8795  -38.5489 H         1 UNK         0.0600 
    178 H178       -0.2435  -16.5577  -39.3401 H         1 UNK         0.0600 
    179 H179        0.2524  -14.1056  -39.9988 H         1 UNK         0.3000 
    180 H180       -0.8394  -12.4127  -41.1363 H         1 UNK         0.0600 
    181 H181        1.8725  -11.3074  -42.1003 H         1 UNK         0.0600 
    182 H182        1.4495  -11.6415  -40.4245 H         1 UNK         0.0600 
    183 H183        0.6190  -10.3654  -41.2963 H         1 UNK         0.0600 
    184 H184       -0.1213  -12.4690  -43.9401 H         1 UNK         0.3000 
    185 H185       -2.9690  -10.3975  -44.7657 H         1 UNK         0.0600 
    186 H186       -1.4061   -9.7813  -46.5986 H         1 UNK         0.0600 
    187 H187       -0.8936   -9.0254  -45.0983 H         1 UNK         0.0600 
    188 H188       -0.0420  -10.4436  -45.7002 H         1 UNK         0.0600 
    189 H189       -1.6077  -12.9455  -45.0788 H         1 UNK         0.3000 
    190 H190       -2.0605  -20.6789  -46.0291 H         1 UNK         0.3000 
    191 H191       -4.7415  -20.8595  -46.9881 H         1 UNK         0.0600 
    192 H192       -3.9141  -19.0073  -45.5479 H         1 UNK         0.0600 
    193 H193       -5.3227  -19.7838  -44.8393 H         1 UNK         0.0600 
    194 H194       -3.7230  -20.1244  -44.1968 H         1 UNK         0.0600 
    195 H195       -3.0289  -22.6492  -44.3748 H         1 UNK         0.3000 
    196 H196       -5.2045  -24.2901  -43.5949 H         1 UNK         0.0600 
    197 H197       -3.4196  -25.6670  -42.5097 H         1 UNK         0.0600 
    198 H198       -3.1944  -23.9531  -42.1948 H         1 UNK         0.0600 
    199 H199       -2.1847  -24.7698  -43.3856 H         1 UNK         0.0600 
    200 H200       -2.6376  -24.8196  -46.0397 H         1 UNK         0.3000 
    201 H201       -3.5270  -27.4434  -46.8323 H         1 UNK         0.0600 
    202 H202       -1.8760  -27.0959  -48.6728 H         1 UNK         0.0600 
    203 H203       -1.1879  -26.6370  -47.1236 H         1 UNK         0.0600 
    204 H204       -1.7355  -25.3944  -48.2475 H         1 UNK         0.0600 
    205 H205       -4.7839  -24.3450  -47.4841 H         1 UNK         0.3000 
    206 H206       -6.3160  -23.4437  -48.7568 H         1 UNK         0.0600 
    207 H207       -7.6939  -25.5095  -48.3857 H         1 UNK         0.0600 
    208 H208       -8.0272  -24.7397  -49.9282 H         1 UNK         0.0600 
    209 H209       -7.0487  -26.1961  -49.8775 H         1 UNK         0.0600 
    210 H210       -3.5206  -24.2125  -49.7686 H         1 UNK         0.3000 
    211 H211       -3.5813  -24.1263  -52.6516 H         1 UNK         0.0600 
    212 H212       -1.3539  -23.4465  -50.6528 H         1 UNK         0.0600 
    213 H213       -1.1413  -23.6528  -52.3863 H         1 UNK         0.0600 
    214 H214       -1.6291  -25.0207  -51.3974 H         1 UNK         0.0600 
    215 H215       -3.5606  -21.7211  -50.0553 H         1 UNK         0.3000 
    216 H216       -3.0955  -19.3926  -51.6720 H         1 UNK         0.0600 
    217 H217       -3.9692  -18.1645  -49.6866 H         1 UNK         0.0600 
    218 H218       -2.7553  -19.3427  -49.2314 H         1 UNK         0.0600 
    219 H219       -4.4657  -19.6829  -48.9559 H         1 UNK         0.0600 
    220 H220       -6.0285  -21.1684  -50.7294 H         1 UNK         0.3000 
    221 H221       -7.9002  -19.2724  -51.8751 H         1 UNK         0.0600 
    222 H222       -8.2794  -22.1676  -50.9351 H         1 UNK         0.0600 
    223 H223       -8.5248  -20.7219  -49.9564 H         1 UNK         0.0600 
    224 H224       -9.5667  -21.0389  -51.3344 H         1 UNK         0.0600 
    225 H225       -6.4642  -22.3971  -52.8803 H         1 UNK         0.3000 
    226 H226       -7.8453  -22.6000  -55.3796 H         1 UNK         0.0600 
    227 H227       -6.2042  -24.4322  -55.7825 H         1 UNK         0.0600 
    228 H228       -5.2391  -23.8958  -54.4137 H         1 UNK         0.0600 
    229 H229       -6.8597  -24.5403  -54.1559 H         1 UNK         0.0600 
    230 H230       -5.1472  -20.6918  -54.4304 H         1 UNK         0.3000 
    231 H231       -3.6767  -19.3590  -55.3866 H         1 UNK         0.0600 
    232 H232       -5.2175  -19.5761  -58.0230 H         1 UNK         0.0600 
    233 H233       -4.0443  -18.3443  -57.5843 H         1 UNK         0.0600 
    234 H234       -5.5770  -18.4304  -56.7313 H         1 UNK         0.0600 
    235 H235       -3.0893  -22.0059  -55.0601 H         1 UNK         0.3000 
    236 H236       -1.4904  -22.9373  -57.4014 H         1 UNK         0.0600 
    237 H237       -2.3265  -24.3548  -54.8122 H         1 UNK         0.0600 
    238 H238       -3.0999  -24.5542  -56.3828 H         1 UNK         0.0600 
    239 H239       -1.4399  -25.0804  -56.1488 H         1 UNK         0.0600 
    240 H240       -0.4089  -20.7171  -56.5645 H         1 UNK         0.3000 
    241 H241        1.1688  -20.8705  -54.1924 H         1 UNK         0.0600 
    242 H242        4.5287  -21.5595  -55.1468 H         1 UNK         0.3800 
    243 H243        3.5281  -20.8419  -53.9188 H         1 UNK         0.3800 
    244 H244        1.5678  -18.8270  -56.4173 H         1 UNK         0.0800 
    245 H245        1.9391  -18.6461  -54.7263 H         1 UNK         0.0800 
    246 H246       -2.1629  -18.8066  -53.6678 H         1 UNK         0.0800 
    247 H247       -1.0592  -20.1401  -53.7461 H         1 UNK         0.0800 
@<TRIPOS>BOND
     1    1    2 1    
     2    1  127 1    
     3    1  128 1    
     4    1  129 1    
     5    2    3 2    
     6    2    4 am   BACKBONE|DICT|INTERRES
     7    4    5 1    
     8    4  130 1    
     9    5    6 1    
    10    5   65 1    
    11    5  131 1    
    12    6    7 1    
    13    6  132 1    
    14    6  133 1    
    15    7    8 1    
    16    8    9 1    
    17    8  134 1    
    18    8  135 1    
    19    9   10 ar   
    20    9   14 ar   
    21   10   11 ar   
    22   10  136 1    
    23   11   12 ar   
    24   11  126 1    
    25   12   13 ar   
    26   12  137 1    
    27   13   14 ar   
    28   13   15 1    
    29   14  138 1    
    30   15   16 1    
    31   15  139 1    
    32   15  140 1    
    33   16   17 1    
    34   17   18 1    
    35   17  141 1    
    36   17  142 1    
    37   18   19 1    
    38   18   67 1    
    39   18  143 1    
    40   19   20 am   BACKBONE|DICT|INTERRES
    41   19  144 1    
    42   20   21 2    
    43   20   22 1    
    44   22   23 1    
    45   22   24 1    
    46   22  145 1    
    47   23  146 1    
    48   23  147 1    
    49   23  148 1    
    50   24   25 am   BACKBONE|DICT|INTERRES
    51   24  149 1    
    52   25   26 2    
    53   25   27 1    
    54   27   28 1    
    55   27   29 1    
    56   27  150 1    
    57   28  151 1    
    58   28  152 1    
    59   28  153 1    
    60   29   30 am   BACKBONE|DICT|INTERRES
    61   29  154 1    
    62   30   31 2    
    63   30   32 1    
    64   32   33 1    
    65   32   34 1    
    66   32  155 1    
    67   33  156 1    
    68   33  157 1    
    69   33  158 1    
    70   34   35 am   BACKBONE|DICT|INTERRES
    71   34  159 1    
    72   35   36 2    
    73   35   37 1    
    74   37   38 1    
    75   37   39 1    
    76   37  160 1    
    77   38  161 1    
    78   38  162 1    
    79   38  163 1    
    80   39   40 am   BACKBONE|DICT|INTERRES
    81   39  164 1    
    82   40   41 2    
    83   40   42 1    
    84   42   43 1    
    85   42   44 1    
    86   42  165 1    
    87   43  166 1    
    88   43  167 1    
    89   43  168 1    
    90   44   45 am   BACKBONE|DICT|INTERRES
    91   44  169 1    
    92   45   46 2    
    93   45   47 1    
    94   47   48 1    
    95   47   49 1    
    96   47  170 1    
    97   48  171 1    
    98   48  172 1    
    99   48  173 1    
   100   49   50 am   BACKBONE|DICT|INTERRES
   101   49  174 1    
   102   50   51 2    
   103   50   52 1    
   104   52   53 1    
   105   52   54 1    
   106   52  175 1    
   107   53  176 1    
   108   53  177 1    
   109   53  178 1    
   110   54   55 am   BACKBONE|DICT|INTERRES
   111   54  179 1    
   112   55   56 2    
   113   55   57 1    
   114   57   58 1    
   115   57   59 1    
   116   57  180 1    
   117   58  181 1    
   118   58  182 1    
   119   58  183 1    
   120   59   60 am   BACKBONE|DICT|INTERRES
   121   59  184 1    
   122   60   61 2    
   123   60   62 1    
   124   62   63 1    
   125   62   64 1    
   126   62  185 1    
   127   63  186 1    
   128   63  187 1    
   129   63  188 1    
   130   64   65 am   BACKBONE|DICT|INTERRES
   131   64  189 1    
   132   65   66 2    
   133   67   68 2    
   134   67   69 am   BACKBONE|DICT|INTERRES
   135   69   70 1    
   136   69  190 1    
   137   70   71 1    
   138   70   72 1    
   139   70  191 1    
   140   71  192 1    
   141   71  193 1    
   142   71  194 1    
   143   72   73 2    
   144   72   74 am   BACKBONE|DICT|INTERRES
   145   74   75 1    
   146   74  195 1    
   147   75   76 1    
   148   75   77 1    
   149   75  196 1    
   150   76  197 1    
   151   76  198 1    
   152   76  199 1    
   153   77   78 2    
   154   77   79 am   BACKBONE|DICT|INTERRES
   155   79   80 1    
   156   79  200 1    
   157   80   81 1    
   158   80   82 1    
   159   80  201 1    
   160   81  202 1    
   161   81  203 1    
   162   81  204 1    
   163   82   83 2    
   164   82   84 am   BACKBONE|DICT|INTERRES
   165   84   85 1    
   166   84  205 1    
   167   85   86 1    
   168   85   87 1    
   169   85  206 1    
   170   86  207 1    
   171   86  208 1    
   172   86  209 1    
   173   87   88 2    
   174   87   89 am   BACKBONE|DICT|INTERRES
   175   89   90 1    
   176   89  210 1    
   177   90   91 1    
   178   90   92 1    
   179   90  211 1    
   180   91  212 1    
   181   91  213 1    
   182   91  214 1    
   183   92   93 2    
   184   92   94 am   BACKBONE|DICT|INTERRES
   185   94   95 1    
   186   94  215 1    
   187   95   96 1    
   188   95   97 1    
   189   95  216 1    
   190   96  217 1    
   191   96  218 1    
   192   96  219 1    
   193   97   98 2    
   194   97   99 am   BACKBONE|DICT|INTERRES
   195   99  100 1    
   196   99  220 1    
   197  100  101 1    
   198  100  102 1    
   199  100  221 1    
   200  101  222 1    
   201  101  223 1    
   202  101  224 1    
   203  102  103 2    
   204  102  104 am   BACKBONE|DICT|INTERRES
   205  104  105 1    
   206  104  225 1    
   207  105  106 1    
   208  105  107 1    
   209  105  226 1    
   210  106  227 1    
   211  106  228 1    
   212  106  229 1    
   213  107  108 2    
   214  107  109 am   BACKBONE|DICT|INTERRES
   215  109  110 1    
   216  109  230 1    
   217  110  111 1    
   218  110  112 1    
   219  110  231 1    
   220  111  232 1    
   221  111  233 1    
   222  111  234 1    
   223  112  113 2    
   224  112  114 am   BACKBONE|DICT|INTERRES
   225  114  115 1    
   226  114  235 1    
   227  115  116 1    
   228  115  117 1    
   229  115  236 1    
   230  116  237 1    
   231  116  238 1    
   232  116  239 1    
   233  117  118 2    
   234  117  119 am   BACKBONE|DICT|INTERRES
   235  119  120 1    
   236  119  240 1    
   237  120  121 1    
   238  120  124 1    
   239  120  241 1    
   240  121  122 am   BACKBONE|DICT|INTERRES
   241  121  123 2    
   242  122  242 1    
   243  122  243 1    
   244  124  125 1    
   245  124  244 1    
   246  124  245 1    
   247  125  126 1    
   248  126  246 1    
   249  126  247 1    
@<TRIPOS>SUBSTRUCTURE
     1 UNK         1 GROUP             0       ****    0 ROOT    
