@<TRIPOS>MOLECULE
3R540
247   249    1
SMALL
USER_CHARGES


@<TRIPOS>ATOM
      1 CA          7.7650  -12.3442  -43.9277 C.3       0 UNK        -0.1800 
      2 C           7.0017  -12.7348  -45.1853 C.2       0 UNK         0.5000 
      3 O           7.4173  -12.3775  -46.2873 O.2       0 UNK        -0.5000 
      4 N           5.8898  -13.4654  -45.0200 N.am      1 UNK        -0.5000 
      5 CA          4.9974  -13.9346  -46.0891 C.3       1 UNK         0.1400 
      6 C6          5.6805  -14.9482  -47.0496 C.3       23 UNK        -0.0398 
      7 S7          4.5148  -16.2245  -47.6288 S.3       23 UNK        -0.2404 
      8 C8          4.4325  -15.8671  -49.4056 C.3       23 UNK        -0.0205 
      9 C9          3.3314  -16.6711  -50.0754 C.ar      23 UNK        -0.0193 
     10 C10         2.1176  -16.0647  -50.4095 C.ar      23 UNK        -0.1150 
     11 C11         1.1204  -16.7824  -51.0766 C.ar      23 UNK        -0.0193 
     12 C12         1.3555  -18.1239  -51.4072 C.ar      23 UNK        -0.1150 
     13 C13         2.5516  -18.7538  -51.0463 C.ar      23 UNK        -0.0193 
     14 C14         3.5372  -18.0171  -50.3850 C.ar      23 UNK        -0.1150 
     15 C15         2.8061  -20.2196  -51.3875 C.3       23 UNK        -0.0205 
     16 S16         1.4369  -21.3326  -50.9234 S.3       23 UNK        -0.2404 
     17 C17         1.1709  -20.8826  -49.1750 C.3       23 UNK        -0.0398 
     18 CA          0.5509  -22.0204  -48.3282 C.3       11 UNK         0.1400 
     19 N           0.6196  -21.7307  -46.8915 N.am      11 UNK        -0.5000 
     20 C           0.3769  -22.6244  -45.9216 C.2       10 UNK         0.5000 
     21 O           0.1494  -23.8127  -46.1381 O.2       10 UNK        -0.5000 
     22 CA          0.3236  -22.1063  -44.4711 C.3       10 UNK         0.1400 
     23 CB          1.7159  -22.1415  -43.8252 C.3       10 UNK        -0.1800 
     24 N          -0.2427  -20.7609  -44.3678 N.am      10 UNK        -0.5000 
     25 C          -1.5076  -20.4465  -44.6838 C.2       9 UNK         0.5000 
     26 O          -2.3490  -21.2810  -45.0142 O.2       9 UNK        -0.5000 
     27 CA         -1.8775  -18.9508  -44.6973 C.3       9 UNK         0.1400 
     28 CB         -2.3005  -18.4745  -43.3008 C.3       9 UNK        -0.1800 
     29 N          -0.7871  -18.1105  -45.1907 N.am      9 UNK        -0.5000 
     30 C          -0.2745  -18.1730  -46.4273 C.2       8 UNK         0.5000 
     31 O          -0.7096  -18.9218  -47.3012 O.2       8 UNK        -0.5000 
     32 CA          0.9883  -17.3330  -46.6949 C.3       8 UNK         0.1400 
     33 CB          0.6561  -15.8635  -46.9976 C.3       8 UNK        -0.1800 
     34 N           1.8886  -17.3894  -45.5453 N.am      8 UNK        -0.5000 
     35 C           2.6891  -18.4248  -45.2627 C.2       7 UNK         0.5000 
     36 O           2.7748  -19.4304  -45.9678 O.2       7 UNK        -0.5000 
     37 CA          3.5099  -18.3323  -43.9600 C.3       7 UNK         0.1400 
     38 CB          4.8874  -17.7079  -44.2275 C.3       7 UNK        -0.1800 
     39 N           2.8345  -17.5686  -42.9067 N.am      7 UNK        -0.5000 
     40 C           1.7449  -17.9923  -42.2518 C.2       6 UNK         0.5000 
     41 O           1.2169  -19.0857  -42.4493 O.2       6 UNK        -0.5000 
     42 CA          1.1063  -17.0105  -41.2475 C.3       6 UNK         0.1400 
     43 CB          1.7876  -17.1266  -39.8759 C.3       6 UNK        -0.1800 
     44 N           1.1158  -15.6056  -41.6778 N.am      6 UNK        -0.5000 
     45 C           0.5948  -15.1508  -42.8255 C.2       5 UNK         0.5000 
     46 O           0.1102  -15.8913  -43.6820 O.2       5 UNK        -0.5000 
     47 CA          0.6753  -13.6313  -43.0771 C.3       5 UNK         0.1400 
     48 CB          2.1361  -13.1836  -43.2401 C.3       5 UNK        -0.1800 
     49 N          -0.0587  -13.2440  -44.2835 N.am      5 UNK        -0.5000 
     50 C          -1.3935  -13.1864  -44.3914 C.2       4 UNK         0.5000 
     51 O          -2.1570  -13.3392  -43.4361 O.2       4 UNK        -0.5000 
     52 CA         -1.9672  -12.9055  -45.7950 C.3       4 UNK         0.1400 
     53 CB         -3.1808  -11.9596  -45.7537 C.3       4 UNK        -0.1800 
     54 N          -0.9541  -12.3464  -46.6917 N.am      4 UNK        -0.5000 
     55 C          -0.7585  -12.6861  -47.9690 C.2       3 UNK         0.5000 
     56 O          -1.4160  -13.5440  -48.5573 O.2       3 UNK        -0.5000 
     57 CA          0.3599  -11.9524  -48.7383 C.3       3 UNK         0.1400 
     58 CB         -0.2014  -10.7096  -49.4538 C.3       3 UNK        -0.1800 
     59 N           1.5669  -11.6100  -47.9685 N.am      3 UNK        -0.5000 
     60 C           1.7267  -10.7654  -46.9407 C.2       2 UNK         0.5000 
     61 O           0.7924  -10.1970  -46.3735 O.2       2 UNK        -0.5000 
     62 CA          3.1783  -10.5436  -46.4580 C.3       2 UNK         0.1400 
     63 CB          3.2723   -9.5082  -45.3226 C.3       2 UNK        -0.1800 
     64 N           3.8337  -11.7765  -46.0149 N.am      2 UNK        -0.5000 
     65 C           4.2868  -12.7601  -46.8051 C.2       1 UNK         0.5000 
     66 O           4.1629  -12.7456  -48.0306 O.2       1 UNK        -0.5000 
     67 C          -0.8945  -22.3555  -48.7613 C.2       11 UNK         0.5000 
     68 O          -1.1028  -23.3371  -49.4754 O.2       11 UNK        -0.5000 
     69 N          -1.8733  -21.5785  -48.2735 N.am      12 UNK        -0.5000 
     70 CA         -3.3011  -21.8282  -48.4914 C.3       12 UNK         0.1400 
     71 CB         -4.1234  -20.6431  -47.9674 C.3       12 UNK        -0.1800 
     72 C          -3.7791  -23.1534  -47.8673 C.2       12 UNK         0.5000 
     73 O          -4.5536  -23.8761  -48.4952 O.2       12 UNK        -0.5000 
     74 N          -3.2761  -23.4708  -46.6661 N.am      13 UNK        -0.5000 
     75 CA         -3.5091  -24.7410  -45.9793 C.3       13 UNK         0.1400 
     76 CB         -2.9893  -24.6560  -44.5368 C.3       13 UNK        -0.1800 
     77 C          -2.8836  -25.9360  -46.7226 C.2       13 UNK         0.5000 
     78 O          -3.5452  -26.9623  -46.8758 O.2       13 UNK        -0.5000 
     79 N          -1.6444  -25.7739  -47.2100 N.am      14 UNK        -0.5000 
     80 CA         -0.9179  -26.7683  -48.0063 C.3       14 UNK         0.1400 
     81 CB          0.5367  -26.3147  -48.2000 C.3       14 UNK        -0.1800 
     82 C          -1.5783  -27.0645  -49.3664 C.2       14 UNK         0.5000 
     83 O          -1.4978  -28.1973  -49.8427 O.2       14 UNK        -0.5000 
     84 N          -2.2523  -26.0609  -49.9466 N.am      15 UNK        -0.5000 
     85 CA         -3.0713  -26.1908  -51.1542 C.3       15 UNK         0.1400 
     86 CB         -3.3791  -24.7914  -51.7133 C.3       15 UNK        -0.1800 
     87 C          -4.3729  -26.9933  -50.9350 C.2       15 UNK         0.5000 
     88 O          -4.9985  -27.3879  -51.9197 O.2       15 UNK        -0.5000 
     89 N          -4.7600  -27.2143  -49.6677 N.am      16 UNK        -0.5000 
     90 CA         -5.8848  -28.0059  -49.1488 C.3       16 UNK         0.1400 
     91 CB         -5.7714  -29.4835  -49.5690 C.3       16 UNK        -0.1800 
     92 C          -7.2750  -27.4333  -49.4778 C.2       16 UNK         0.5000 
     93 O          -8.0802  -27.2239  -48.5704 O.2       16 UNK        -0.5000 
     94 N          -7.5223  -27.1684  -50.7634 N.am      17 UNK        -0.5000 
     95 CA         -8.7391  -26.5535  -51.2931 C.3       17 UNK         0.1400 
     96 CB         -8.9368  -27.0487  -52.7355 C.3       17 UNK        -0.1800 
     97 C          -8.6928  -25.0122  -51.2513 C.2       17 UNK         0.5000 
     98 O          -9.6661  -24.3745  -51.6544 O.2       17 UNK        -0.5000 
     99 N          -7.5606  -24.4455  -50.8019 N.am      18 UNK        -0.5000 
    100 CA        -7.2225  -23.0183  -50.7943 C.3       18 UNK         0.1400 
    101 CB        -8.1279  -22.2288  -49.8270 C.3       18 UNK        -0.1800 
    102 C         -7.1739  -22.4248  -52.2171 C.2       18 UNK         0.5000 
    103 O         -7.6265  -21.3012  -52.4415 O.2       18 UNK        -0.5000 
    104 N         -6.6083  -23.2025  -53.1557 N.am      19 UNK        -0.5000 
    105 CA        -6.3454  -22.7956  -54.5403 C.3       19 UNK         0.1400 
    106 CB        -5.8601  -24.0113  -55.3443 C.3       19 UNK        -0.1800 
    107 C         -5.3296  -21.6397  -54.6206 C.2       19 UNK         0.5000 
    108 O         -5.4782  -20.7452  -55.4538 O.2       19 UNK        -0.5000 
    109 N         -4.3587  -21.6504  -53.6975 N.am      20 UNK        -0.5000 
    110 CA        -3.5872  -20.4810  -53.2990 C.3       20 UNK         0.1400 
    111 CB        -2.2680  -20.9444  -52.6538 C.3       20 UNK        -0.1800 
    112 C         -4.4585  -19.6827  -52.3154 C.2       20 UNK         0.5000 
    113 O         -4.5478  -20.0563  -51.1442 O.2       20 UNK        -0.5000 
    114 N         -5.1377  -18.6412  -52.8120 N.am      21 UNK        -0.5000 
    115 CA        -6.0649  -17.7905  -52.0565 C.3       21 UNK         0.1400 
    116 CB        -7.0067  -17.0859  -53.0490 C.3       21 UNK        -0.1800 
    117 C         -5.3138  -16.8020  -51.1375 C.2       21 UNK         0.5000 
    118 O         -5.4389  -15.5847  -51.2851 O.2       21 UNK        -0.5000 
    119 N         -4.5049  -17.3660  -50.2394 N.am      22 UNK        -0.5000 
    120 CA        -3.4759  -16.6857  -49.4405 C.3       22 UNK         0.1400 
    121 C         -3.7770  -16.6994  -47.9132 C.2       22 UNK         0.5000 
    122 N         -4.9319  -17.1810  -47.4682 N.am      22 UNK        -0.7600 
    123 O         -2.9648  -16.2484  -47.1139 O.2       22 UNK        -0.5000 
    124 C124       -2.0785  -17.2775  -49.7645 C.3       23 UNK        -0.0398 
    125 S125       -1.6472  -17.1245  -51.5338 S.3       23 UNK        -0.2404 
    126 C126       -0.1654  -16.0627  -51.4820 C.3       23 UNK        -0.0205 
    127 H127        7.8206  -11.2587  -43.8451 H         1 UNK         0.0600 
    128 H128        7.2881  -12.7297  -43.0263 H         1 UNK         0.0600 
    129 H129        8.7811  -12.7366  -43.9688 H         1 UNK         0.0600 
    130 H130        5.6208  -13.7282  -44.0823 H         1 UNK         0.3000 
    131 H131        4.2063  -14.4686  -45.5627 H         1 UNK         0.0600 
    132 H132        6.4742  -15.4805  -46.5239 H         1 UNK         0.0800 
    133 H133        6.1712  -14.4504  -47.8879 H         1 UNK         0.0800 
    134 H134        4.2662  -14.8019  -49.5649 H         1 UNK         0.0800 
    135 H135        5.3935  -16.1008  -49.8661 H         1 UNK         0.0800 
    136 H136        1.9583  -15.0231  -50.1679 H         1 UNK         0.1150 
    137 H137        0.6075  -18.6886  -51.9446 H         1 UNK         0.1150 
    138 H138        4.4737  -18.4857  -50.1164 H         1 UNK         0.1150 
    139 H139        2.9795  -20.3045  -52.4608 H         1 UNK         0.0800 
    140 H140        3.7152  -20.5748  -50.8998 H         1 UNK         0.0800 
    141 H141        0.5501  -19.9880  -49.1550 H         1 UNK         0.0800 
    142 H142        2.1318  -20.5938  -48.7457 H         1 UNK         0.0800 
    143 H143        1.1530  -22.9161  -48.4951 H         1 UNK         0.0600 
    144 H144        0.7963  -20.7697  -46.6311 H         1 UNK         0.3000 
    145 H145       -0.3228  -22.7787  -43.9042 H         1 UNK         0.0600 
    146 H146        1.6742  -21.8351  -42.7799 H         1 UNK         0.0600 
    147 H147        2.1310  -23.1497  -43.8516 H         1 UNK         0.0600 
    148 H148        2.4179  -21.4863  -44.3393 H         1 UNK         0.0600 
    149 H149        0.3679  -20.0316  -44.0149 H         1 UNK         0.3000 
    150 H150       -2.7247  -18.8221  -45.3744 H         1 UNK         0.0600 
    151 H151       -3.1546  -19.0467  -42.9367 H         1 UNK         0.0600 
    152 H152       -2.5921  -17.4239  -43.3150 H         1 UNK         0.0600 
    153 H153       -1.4952  -18.5886  -42.5756 H         1 UNK         0.0600 
    154 H154       -0.4067  -17.4219  -44.5455 H         1 UNK         0.3000 
    155 H155        1.5034  -17.7484  -47.5644 H         1 UNK         0.0600 
    156 H156       -0.0499  -15.4473  -46.2795 H         1 UNK         0.0600 
    157 H157        0.2105  -15.7614  -47.9842 H         1 UNK         0.0600 
    158 H158        1.5512  -15.2413  -46.9924 H         1 UNK         0.0600 
    159 H159        1.7940  -16.6473  -44.8668 H         1 UNK         0.3000 
    160 H160        3.6652  -19.3510  -43.5984 H         1 UNK         0.0600 
    161 H161        5.4103  -18.2390  -45.0241 H         1 UNK         0.0600 
    162 H162        5.5186  -17.7510  -43.3399 H         1 UNK         0.0600 
    163 H163        4.8045  -16.6641  -44.5294 H         1 UNK         0.0600 
    164 H164        3.2104  -16.6596  -42.6822 H         1 UNK         0.3000 
    165 H165        0.0614  -17.3039  -41.1302 H         1 UNK         0.0600 
    166 H166        1.2738  -16.5233  -39.1274 H         1 UNK         0.0600 
    167 H167        1.7783  -18.1582  -39.5210 H         1 UNK         0.0600 
    168 H168        2.8281  -16.8017  -39.9138 H         1 UNK         0.0600 
    169 H169        1.5098  -14.9432  -41.0253 H         1 UNK         0.3000 
    170 H170        0.2396  -13.1178  -42.2177 H         1 UNK         0.0600 
    171 H171        2.6182  -13.7029  -44.0666 H         1 UNK         0.0600 
    172 H172        2.1978  -12.1121  -43.4301 H         1 UNK         0.0600 
    173 H173        2.7186  -13.3828  -42.3399 H         1 UNK         0.0600 
    174 H174        0.4805  -13.1518  -45.1296 H         1 UNK         0.3000 
    175 H175       -2.2997  -13.8716  -46.1770 H         1 UNK         0.0600 
    176 H176       -2.9127  -10.9838  -45.3472 H         1 UNK         0.0600 
    177 H177       -3.5929  -11.8060  -46.7512 H         1 UNK         0.0600 
    178 H178       -3.9803  -12.3687  -45.1351 H         1 UNK         0.0600 
    179 H179       -0.3973  -11.5755  -46.3270 H         1 UNK         0.3000 
    180 H180        0.6999  -12.6451  -49.5100 H         1 UNK         0.0600 
    181 H181       -0.5658   -9.9635  -48.7469 H         1 UNK         0.0600 
    182 H182       -1.0362  -10.9776  -50.1028 H         1 UNK         0.0600 
    183 H183        0.5569  -10.2382  -50.0789 H         1 UNK         0.0600 
    184 H184        2.4183  -12.0661  -48.2890 H         1 UNK         0.3000 
    185 H185        3.7365  -10.1470  -47.3088 H         1 UNK         0.0600 
    186 H186        2.8404   -8.5537  -45.6264 H         1 UNK         0.0600 
    187 H187        2.7422   -9.8387  -44.4287 H         1 UNK         0.0600 
    188 H188        4.3098   -9.3183  -45.0467 H         1 UNK         0.0600 
    189 H189        3.9934  -11.8563  -45.0220 H         1 UNK         0.3000 
    190 H190       -1.6223  -20.7742  -47.7090 H         1 UNK         0.3000 
    191 H191       -3.4606  -21.9008  -49.5683 H         1 UNK         0.0600 
    192 H192       -4.0397  -20.5296  -46.8872 H         1 UNK         0.0600 
    193 H193       -5.1804  -20.7701  -48.2047 H         1 UNK         0.0600 
    194 H194       -3.7979  -19.7118  -48.4272 H         1 UNK         0.0600 
    195 H195       -2.7081  -22.7820  -46.1809 H         1 UNK         0.3000 
    196 H196       -4.5884  -24.9026  -45.9389 H         1 UNK         0.0600 
    197 H197       -1.9095  -24.5147  -44.5039 H         1 UNK         0.0600 
    198 H198       -3.2160  -25.5706  -43.9876 H         1 UNK         0.0600 
    199 H199       -3.4519  -23.8287  -43.9982 H         1 UNK         0.0600 
    200 H200       -1.1389  -24.9198  -46.9896 H         1 UNK         0.3000 
    201 H201       -0.9080  -27.7010  -47.4388 H         1 UNK         0.0600 
    202 H202        1.0425  -26.1922  -47.2422 H         1 UNK         0.0600 
    203 H203        0.5944  -25.3661  -48.7339 H         1 UNK         0.0600 
    204 H204        1.1027  -27.0494  -48.7738 H         1 UNK         0.0600 
    205 H205       -2.1947  -25.1379  -49.5298 H         1 UNK         0.3000 
    206 H206       -2.4847  -26.7289  -51.9015 H         1 UNK         0.0600 
    207 H207       -2.4615  -24.2357  -51.9083 H         1 UNK         0.0600 
    208 H208       -3.9218  -24.8605  -52.6562 H         1 UNK         0.0600 
    209 H209       -3.9852  -24.2032  -51.0256 H         1 UNK         0.0600 
    210 H210       -4.1766  -26.8181  -48.9401 H         1 UNK         0.3000 
    211 H211       -5.7876  -27.9732  -48.0627 H         1 UNK         0.0600 
    212 H212       -5.8604  -29.6126  -50.6479 H         1 UNK         0.0600 
    213 H213       -6.5568  -30.0808  -49.1043 H         1 UNK         0.0600 
    214 H214       -4.8154  -29.9062  -49.2593 H         1 UNK         0.0600 
    215 H215       -6.7698  -27.3482  -51.4252 H         1 UNK         0.3000 
    216 H216       -9.5966  -26.8741  -50.6981 H         1 UNK         0.0600 
    217 H217       -9.8590  -26.6550  -53.1649 H         1 UNK         0.0600 
    218 H218       -9.0026  -28.1363  -52.7728 H         1 UNK         0.0600 
    219 H219       -8.1145  -26.7402  -53.3825 H         1 UNK         0.0600 
    220 H220       -6.8385  -25.0668  -50.4672 H         1 UNK         0.3000 
    221 H221       -6.2044  -22.9460  -50.4106 H         1 UNK         0.0600 
    222 H222       -9.1618  -22.1947  -50.1712 H         1 UNK         0.0600 
    223 H223       -8.1181  -22.6714  -48.8310 H         1 UNK         0.0600 
    224 H224       -7.7826  -21.1991  -49.7267 H         1 UNK         0.0600 
    225 H225       -6.3113  -24.1302  -52.8941 H         1 UNK         0.3000 
    226 H226       -7.2848  -22.4468  -54.9741 H         1 UNK         0.0600 
    227 H227       -6.6003  -24.8117  -55.3346 H         1 UNK         0.0600 
    228 H228       -5.6863  -23.7432  -56.3872 H         1 UNK         0.0600 
    229 H229       -4.9261  -24.4125  -54.9493 H         1 UNK         0.0600 
    230 H230       -4.3464  -22.4199  -53.0464 H         1 UNK         0.3000 
    231 H231       -3.3517  -19.8635  -54.1683 H         1 UNK         0.0600 
    232 H232       -1.6803  -20.0927  -52.3103 H         1 UNK         0.0600 
    233 H233       -1.6541  -21.4953  -53.3664 H         1 UNK         0.0600 
    234 H234       -2.4355  -21.5916  -51.7922 H         1 UNK         0.0600 
    235 H235       -5.0244  -18.4129  -53.7891 H         1 UNK         0.3000 
    236 H236       -6.6782  -18.4283  -51.4160 H         1 UNK         0.0600 
    237 H237       -7.7369  -16.4682  -52.5246 H         1 UNK         0.0600 
    238 H238       -6.4590  -16.4390  -53.7355 H         1 UNK         0.0600 
    239 H239       -7.5640  -17.8108  -53.6429 H         1 UNK         0.0600 
    240 H240       -4.4627  -18.3813  -50.2392 H         1 UNK         0.3000 
    241 H241       -3.4496  -15.6281  -49.7091 H         1 UNK         0.0600 
    242 H242       -5.6238  -17.5269  -48.1127 H         1 UNK         0.3800 
    243 H243       -5.1233  -17.1693  -46.4798 H         1 UNK         0.3800 
    244 H244       -1.3098  -16.7926  -49.1676 H         1 UNK         0.0800 
    245 H245       -2.0434  -18.3359  -49.5034 H         1 UNK         0.0800 
    246 H246       -0.0146  -15.6396  -52.4756 H         1 UNK         0.0800 
    247 H247       -0.3610  -15.2204  -50.8157 H         1 UNK         0.0800 
@<TRIPOS>BOND
     1    1    2 1    
     2    1  127 1    
     3    1  128 1    
     4    1  129 1    
     5    2    3 2    
     6    2    4 am   BACKBONE|DICT|INTERRES
     7    4    5 1    
     8    4  130 1    
     9    5    6 1    
    10    5   65 1    
    11    5  131 1    
    12    6    7 1    
    13    6  132 1    
    14    6  133 1    
    15    7    8 1    
    16    8    9 1    
    17    8  134 1    
    18    8  135 1    
    19    9   10 ar   
    20    9   14 ar   
    21   10   11 ar   
    22   10  136 1    
    23   11   12 ar   
    24   11  126 1    
    25   12   13 ar   
    26   12  137 1    
    27   13   14 ar   
    28   13   15 1    
    29   14  138 1    
    30   15   16 1    
    31   15  139 1    
    32   15  140 1    
    33   16   17 1    
    34   17   18 1    
    35   17  141 1    
    36   17  142 1    
    37   18   19 1    
    38   18   67 1    
    39   18  143 1    
    40   19   20 am   BACKBONE|DICT|INTERRES
    41   19  144 1    
    42   20   21 2    
    43   20   22 1    
    44   22   23 1    
    45   22   24 1    
    46   22  145 1    
    47   23  146 1    
    48   23  147 1    
    49   23  148 1    
    50   24   25 am   BACKBONE|DICT|INTERRES
    51   24  149 1    
    52   25   26 2    
    53   25   27 1    
    54   27   28 1    
    55   27   29 1    
    56   27  150 1    
    57   28  151 1    
    58   28  152 1    
    59   28  153 1    
    60   29   30 am   BACKBONE|DICT|INTERRES
    61   29  154 1    
    62   30   31 2    
    63   30   32 1    
    64   32   33 1    
    65   32   34 1    
    66   32  155 1    
    67   33  156 1    
    68   33  157 1    
    69   33  158 1    
    70   34   35 am   BACKBONE|DICT|INTERRES
    71   34  159 1    
    72   35   36 2    
    73   35   37 1    
    74   37   38 1    
    75   37   39 1    
    76   37  160 1    
    77   38  161 1    
    78   38  162 1    
    79   38  163 1    
    80   39   40 am   BACKBONE|DICT|INTERRES
    81   39  164 1    
    82   40   41 2    
    83   40   42 1    
    84   42   43 1    
    85   42   44 1    
    86   42  165 1    
    87   43  166 1    
    88   43  167 1    
    89   43  168 1    
    90   44   45 am   BACKBONE|DICT|INTERRES
    91   44  169 1    
    92   45   46 2    
    93   45   47 1    
    94   47   48 1    
    95   47   49 1    
    96   47  170 1    
    97   48  171 1    
    98   48  172 1    
    99   48  173 1    
   100   49   50 am   BACKBONE|DICT|INTERRES
   101   49  174 1    
   102   50   51 2    
   103   50   52 1    
   104   52   53 1    
   105   52   54 1    
   106   52  175 1    
   107   53  176 1    
   108   53  177 1    
   109   53  178 1    
   110   54   55 am   BACKBONE|DICT|INTERRES
   111   54  179 1    
   112   55   56 2    
   113   55   57 1    
   114   57   58 1    
   115   57   59 1    
   116   57  180 1    
   117   58  181 1    
   118   58  182 1    
   119   58  183 1    
   120   59   60 am   BACKBONE|DICT|INTERRES
   121   59  184 1    
   122   60   61 2    
   123   60   62 1    
   124   62   63 1    
   125   62   64 1    
   126   62  185 1    
   127   63  186 1    
   128   63  187 1    
   129   63  188 1    
   130   64   65 am   BACKBONE|DICT|INTERRES
   131   64  189 1    
   132   65   66 2    
   133   67   68 2    
   134   67   69 am   BACKBONE|DICT|INTERRES
   135   69   70 1    
   136   69  190 1    
   137   70   71 1    
   138   70   72 1    
   139   70  191 1    
   140   71  192 1    
   141   71  193 1    
   142   71  194 1    
   143   72   73 2    
   144   72   74 am   BACKBONE|DICT|INTERRES
   145   74   75 1    
   146   74  195 1    
   147   75   76 1    
   148   75   77 1    
   149   75  196 1    
   150   76  197 1    
   151   76  198 1    
   152   76  199 1    
   153   77   78 2    
   154   77   79 am   BACKBONE|DICT|INTERRES
   155   79   80 1    
   156   79  200 1    
   157   80   81 1    
   158   80   82 1    
   159   80  201 1    
   160   81  202 1    
   161   81  203 1    
   162   81  204 1    
   163   82   83 2    
   164   82   84 am   BACKBONE|DICT|INTERRES
   165   84   85 1    
   166   84  205 1    
   167   85   86 1    
   168   85   87 1    
   169   85  206 1    
   170   86  207 1    
   171   86  208 1    
   172   86  209 1    
   173   87   88 2    
   174   87   89 am   BACKBONE|DICT|INTERRES
   175   89   90 1    
   176   89  210 1    
   177   90   91 1    
   178   90   92 1    
   179   90  211 1    
   180   91  212 1    
   181   91  213 1    
   182   91  214 1    
   183   92   93 2    
   184   92   94 am   BACKBONE|DICT|INTERRES
   185   94   95 1    
   186   94  215 1    
   187   95   96 1    
   188   95   97 1    
   189   95  216 1    
   190   96  217 1    
   191   96  218 1    
   192   96  219 1    
   193   97   98 2    
   194   97   99 am   BACKBONE|DICT|INTERRES
   195   99  100 1    
   196   99  220 1    
   197  100  101 1    
   198  100  102 1    
   199  100  221 1    
   200  101  222 1    
   201  101  223 1    
   202  101  224 1    
   203  102  103 2    
   204  102  104 am   BACKBONE|DICT|INTERRES
   205  104  105 1    
   206  104  225 1    
   207  105  106 1    
   208  105  107 1    
   209  105  226 1    
   210  106  227 1    
   211  106  228 1    
   212  106  229 1    
   213  107  108 2    
   214  107  109 am   BACKBONE|DICT|INTERRES
   215  109  110 1    
   216  109  230 1    
   217  110  111 1    
   218  110  112 1    
   219  110  231 1    
   220  111  232 1    
   221  111  233 1    
   222  111  234 1    
   223  112  113 2    
   224  112  114 am   BACKBONE|DICT|INTERRES
   225  114  115 1    
   226  114  235 1    
   227  115  116 1    
   228  115  117 1    
   229  115  236 1    
   230  116  237 1    
   231  116  238 1    
   232  116  239 1    
   233  117  118 2    
   234  117  119 am   BACKBONE|DICT|INTERRES
   235  119  120 1    
   236  119  240 1    
   237  120  121 1    
   238  120  124 1    
   239  120  241 1    
   240  121  122 am   BACKBONE|DICT|INTERRES
   241  121  123 2    
   242  122  242 1    
   243  122  243 1    
   244  124  125 1    
   245  124  244 1    
   246  124  245 1    
   247  125  126 1    
   248  126  246 1    
   249  126  247 1    
@<TRIPOS>SUBSTRUCTURE
     1 UNK         1 GROUP             0       ****    0 ROOT    
