@<TRIPOS>MOLECULE
3R540
247   249    1
SMALL
USER_CHARGES


@<TRIPOS>ATOM
      1 CA          6.2057   -9.3868  -49.4127 C.3       0 UNK        -0.1800 
      2 C           5.2594  -10.3459  -48.7044 C.2       0 UNK         0.5000 
      3 O           5.6284  -10.9289  -47.6847 O.2       0 UNK        -0.5000 
      4 N           4.0453  -10.5158  -49.2424 N.am      1 UNK        -0.5000 
      5 CA          2.9803  -11.3381  -48.6666 C.3       1 UNK         0.1400 
      6 C6          1.9573  -11.7701  -49.7492 C.3       23 UNK        -0.0398 
      7 S7          0.9922  -13.2278  -49.2321 S.3       23 UNK        -0.2404 
      8 C8          1.5877  -14.5041  -50.3886 C.3       23 UNK        -0.0205 
      9 C9          1.1293  -15.8818  -49.9387 C.ar      23 UNK        -0.0193 
     10 C10        -0.1819  -16.3020  -50.1759 C.ar      23 UNK        -0.1150 
     11 C11        -0.6352  -17.5268  -49.6771 C.ar      23 UNK        -0.0193 
     12 C12         0.2355  -18.3369  -48.9408 C.ar      23 UNK        -0.1150 
     13 C13         1.5545  -17.9319  -48.7094 C.ar      23 UNK        -0.0193 
     14 C14         2.0001  -16.7155  -49.2331 C.ar      23 UNK        -0.1150 
     15 C15         2.4812  -18.7517  -47.8250 C.3       23 UNK        -0.0205 
     16 S16         3.1802  -20.1981  -48.6792 S.3       23 UNK        -0.2404 
     17 C17         2.0711  -21.5273  -48.1047 C.3       23 UNK        -0.0398 
     18 CA          2.6132  -22.2634  -46.8511 C.3       11 UNK         0.1400 
     19 N           2.6857  -21.3777  -45.6902 N.am      11 UNK        -0.5000 
     20 C           3.7950  -21.0461  -45.0218 C.2       10 UNK         0.5000 
     21 O           4.9172  -21.4631  -45.3113 O.2       10 UNK        -0.5000 
     22 CA          3.6390  -20.0672  -43.8388 C.3       10 UNK         0.1400 
     23 CB          4.2735  -18.7094  -44.1806 C.3       10 UNK        -0.1800 
     24 N           2.2487  -19.8457  -43.4289 N.am      10 UNK        -0.5000 
     25 C           1.5116  -20.7121  -42.7189 C.2       9 UNK         0.5000 
     26 O           1.9269  -21.8054  -42.3347 O.2       9 UNK        -0.5000 
     27 CA          0.0706  -20.2894  -42.3864 C.3       9 UNK         0.1400 
     28 CB          0.0263  -19.5635  -41.0324 C.3       9 UNK        -0.1800 
     29 N          -0.4821  -19.4033  -43.4089 N.am      9 UNK        -0.5000 
     30 C          -1.2219  -19.7920  -44.4545 C.2       8 UNK         0.5000 
     31 O          -1.5233  -20.9648  -44.6764 O.2       8 UNK        -0.5000 
     32 CA         -1.7011  -18.6769  -45.4095 C.3       8 UNK         0.1400 
     33 CB         -2.9596  -19.0740  -46.2090 C.3       8 UNK        -0.1800 
     34 N          -1.8921  -17.3856  -44.7385 N.am      8 UNK        -0.5000 
     35 C          -2.7705  -17.0899  -43.7660 C.2       7 UNK         0.5000 
     36 O          -3.5928  -17.8912  -43.3208 O.2       7 UNK        -0.5000 
     37 CA         -2.7160  -15.6712  -43.1582 C.3       7 UNK         0.1400 
     38 CB         -2.2091  -15.7372  -41.7089 C.3       7 UNK        -0.1800 
     39 N          -1.8694  -14.7404  -43.9058 N.am      7 UNK        -0.5000 
     40 C          -2.1844  -14.1845  -45.0831 C.2       6 UNK         0.5000 
     41 O          -3.2750  -14.3257  -45.6367 O.2       6 UNK        -0.5000 
     42 CA         -1.0753  -13.3701  -45.7779 C.3       6 UNK         0.1400 
     43 CB         -1.1339  -11.8936  -45.3623 C.3       6 UNK        -0.1800 
     44 N           0.2703  -13.8954  -45.5267 N.am      6 UNK        -0.5000 
     45 C           0.6997  -15.0966  -45.9380 C.2       5 UNK         0.5000 
     46 O          -0.0054  -15.9032  -46.5389 O.2       5 UNK        -0.5000 
     47 CA          2.1267  -15.4944  -45.5310 C.3       5 UNK         0.1400 
     48 CB          3.1843  -14.7242  -46.3351 C.3       5 UNK        -0.1800 
     49 N           2.3390  -15.2909  -44.0990 N.am      5 UNK        -0.5000 
     50 C           1.7866  -16.0646  -43.1535 C.2       4 UNK         0.5000 
     51 O           1.1326  -17.0780  -43.4045 O.2       4 UNK        -0.5000 
     52 CA          1.9756  -15.6453  -41.6832 C.3       4 UNK         0.1400 
     53 CB          3.1448  -16.4172  -41.0551 C.3       4 UNK        -0.1800 
     54 N           2.1839  -14.2088  -41.4882 N.am      4 UNK        -0.5000 
     55 C           1.3069  -13.2468  -41.8075 C.2       3 UNK         0.5000 
     56 O           0.2135  -13.4711  -42.3284 O.2       3 UNK        -0.5000 
     57 CA          1.7216  -11.7834  -41.5399 C.3       3 UNK         0.1400 
     58 CB          3.0588  -11.6331  -40.7794 C.3       3 UNK        -0.1800 
     59 N           1.7512  -10.9873  -42.7726 N.am      3 UNK        -0.5000 
     60 C           2.4492  -11.2606  -43.8832 C.2       2 UNK         0.5000 
     61 O           3.1564  -12.2623  -44.0235 O.2       2 UNK        -0.5000 
     62 CA          2.3383  -10.2407  -45.0254 C.3       2 UNK         0.1400 
     63 CB          3.2052   -9.0009  -44.7462 C.3       2 UNK        -0.1800 
     64 N           2.7771  -10.8666  -46.2682 N.am      2 UNK        -0.5000 
     65 C           2.3304  -10.5723  -47.4927 C.2       1 UNK         0.5000 
     66 O           1.4831   -9.7060  -47.7195 O.2       1 UNK        -0.5000 
     67 C           1.6745  -23.4257  -46.4968 C.2       11 UNK         0.5000 
     68 O           0.7113  -23.2299  -45.7514 O.2       11 UNK        -0.5000 
     69 N           1.9101  -24.5973  -47.0994 N.am      12 UNK        -0.5000 
     70 CA          1.0200  -25.7608  -47.0451 C.3       12 UNK         0.1400 
     71 CB          1.8450  -27.0315  -47.3176 C.3       12 UNK        -0.1800 
     72 C          -0.1584  -25.5892  -48.0292 C.2       12 UNK         0.5000 
     73 O          -0.3264  -26.3905  -48.9492 O.2       12 UNK        -0.5000 
     74 N          -0.9211  -24.5032  -47.8460 N.am      13 UNK        -0.5000 
     75 CA         -1.9895  -24.0647  -48.7428 C.3       13 UNK         0.1400 
     76 CB         -2.3225  -22.5935  -48.4444 C.3       13 UNK        -0.1800 
     77 C          -3.2582  -24.9280  -48.6675 C.2       13 UNK         0.5000 
     78 O          -4.0033  -24.9810  -49.6496 O.2       13 UNK        -0.5000 
     79 N          -3.4807  -25.5651  -47.5073 N.am      14 UNK        -0.5000 
     80 CA         -4.6198  -26.4260  -47.1679 C.3       14 UNK         0.1400 
     81 CB         -4.5653  -27.7352  -47.9828 C.3       14 UNK        -0.1800 
     82 C          -5.9673  -25.6884  -47.3051 C.2       14 UNK         0.5000 
     83 O          -6.8909  -26.2000  -47.9357 O.2       14 UNK        -0.5000 
     84 N          -6.0283  -24.4594  -46.7680 N.am      15 UNK        -0.5000 
     85 CA         -7.1496  -23.5129  -46.8811 C.3       15 UNK         0.1400 
     86 CB         -8.3806  -24.0235  -46.1027 C.3       15 UNK        -0.1800 
     87 C          -7.4715  -23.1440  -48.3483 C.2       15 UNK         0.5000 
     88 O          -8.6371  -22.9769  -48.7095 O.2       15 UNK        -0.5000 
     89 N          -6.4088  -23.0518  -49.1610 N.am      16 UNK        -0.5000 
     90 CA         -6.3823  -22.8097  -50.6062 C.3       16 UNK         0.1400 
     91 CB         -7.0618  -21.4751  -50.9731 C.3       16 UNK        -0.1800 
     92 C          -6.8954  -23.9901  -51.4590 C.2       16 UNK         0.5000 
     93 O          -7.1259  -23.8091  -52.6551 O.2       16 UNK        -0.5000 
     94 N          -7.0431  -25.1853  -50.8664 N.am      17 UNK        -0.5000 
     95 CA         -7.3870  -26.4068  -51.5974 C.3       17 UNK         0.1400 
     96 CB         -7.9495  -27.4613  -50.6333 C.3       17 UNK        -0.1800 
     97 C          -6.1834  -26.9743  -52.3706 C.2       17 UNK         0.5000 
     98 O          -6.3751  -27.5373  -53.4492 O.2       17 UNK        -0.5000 
     99 N          -4.9727  -26.8148  -51.8163 N.am      18 UNK        -0.5000 
    100 CA        -3.7222  -27.2232  -52.4537 C.3       18 UNK         0.1400 
    101 CB        -2.7363  -27.7396  -51.3939 C.3       18 UNK        -0.1800 
    102 C         -3.1231  -26.0550  -53.2495 C.2       18 UNK         0.5000 
    103 O         -2.7714  -26.2311  -54.4167 O.2       18 UNK        -0.5000 
    104 N         -3.0474  -24.8748  -52.6198 N.am      19 UNK        -0.5000 
    105 CA        -2.5864  -23.6389  -53.2475 C.3       19 UNK         0.1400 
    106 CB        -1.8089  -22.7962  -52.2228 C.3       19 UNK        -0.1800 
    107 C         -3.7935  -22.8816  -53.8169 C.2       19 UNK         0.5000 
    108 O         -4.2832  -21.9454  -53.1862 O.2       19 UNK        -0.5000 
    109 N         -4.2607  -23.3011  -55.0001 N.am      20 UNK        -0.5000 
    110 CA        -5.4194  -22.7263  -55.6968 C.3       20 UNK         0.1400 
    111 CB        -5.6672  -23.5126  -56.9925 C.3       20 UNK        -0.1800 
    112 C         -5.2931  -21.2167  -55.9933 C.2       20 UNK         0.5000 
    113 O         -6.3030  -20.5116  -56.0151 O.2       20 UNK        -0.5000 
    114 N         -4.0505  -20.7397  -56.1579 N.am      21 UNK        -0.5000 
    115 CA        -3.6892  -19.3286  -56.3125 C.3       21 UNK         0.1400 
    116 CB        -2.1862  -19.2346  -56.6171 C.3       21 UNK        -0.1800 
    117 C         -4.0465  -18.4490  -55.0949 C.2       21 UNK         0.5000 
    118 O         -4.2140  -17.2399  -55.2602 O.2       21 UNK        -0.5000 
    119 N         -4.1757  -19.0600  -53.9094 N.am      22 UNK        -0.5000 
    120 CA        -4.6533  -18.4101  -52.6794 C.3       22 UNK         0.1400 
    121 C         -6.2025  -18.2490  -52.6154 C.2       22 UNK         0.5000 
    122 N         -6.9791  -18.7701  -53.5599 N.am      22 UNK        -0.7600 
    123 O         -6.7134  -17.6209  -51.6925 O.2       22 UNK        -0.5000 
    124 C124       -4.1062  -19.1136  -51.4092 C.3       23 UNK        -0.0398 
    125 S125       -2.2837  -19.0486  -51.3058 S.3       23 UNK        -0.2404 
    126 C126       -2.0831  -17.9396  -49.8809 C.3       23 UNK        -0.0205 
    127 H127        5.7512   -8.9514  -50.3030 H         1 UNK         0.0600 
    128 H128        6.4868   -8.5745  -48.7425 H         1 UNK         0.0600 
    129 H129        7.1128   -9.9100  -49.7154 H         1 UNK         0.0600 
    130 H130        3.7925   -9.9843  -50.0635 H         1 UNK         0.3000 
    131 H131        3.4432  -12.2463  -48.2736 H         1 UNK         0.0600 
    132 H132        1.2731  -10.9602  -50.0080 H         1 UNK         0.0800 
    133 H133        2.4790  -12.0163  -50.6751 H         1 UNK         0.0800 
    134 H134        2.6769  -14.4694  -50.4451 H         1 UNK         0.0800 
    135 H135        1.2138  -14.2938  -51.3917 H         1 UNK         0.0800 
    136 H136       -0.8598  -15.6565  -50.7165 H         1 UNK         0.1150 
    137 H137       -0.1259  -19.2672  -48.5291 H         1 UNK         0.1150 
    138 H138        3.0157  -16.3961  -49.0508 H         1 UNK         0.1150 
    139 H139        3.3120  -18.1335  -47.4823 H         1 UNK         0.0800 
    140 H140        1.9470  -19.0520  -46.9235 H         1 UNK         0.0800 
    141 H141        1.9572  -22.2261  -48.9357 H         1 UNK         0.0800 
    142 H142        1.0758  -21.1222  -47.9183 H         1 UNK         0.0800 
    143 H143        3.5971  -22.6784  -47.0797 H         1 UNK         0.0600 
    144 H144        1.7951  -21.0806  -45.3184 H         1 UNK         0.3000 
    145 H145        4.1850  -20.4923  -42.9941 H         1 UNK         0.0600 
    146 H146        4.2511  -18.0355  -43.3253 H         1 UNK         0.0600 
    147 H147        5.3187  -18.8252  -44.4701 H         1 UNK         0.0600 
    148 H148        3.7580  -18.2218  -45.0069 H         1 UNK         0.0600 
    149 H149        1.8402  -18.9473  -43.6617 H         1 UNK         0.3000 
    150 H150       -0.5374  -21.1933  -42.3099 H         1 UNK         0.0600 
    151 H151        0.6232  -18.6509  -41.0430 H         1 UNK         0.0600 
    152 H152        0.4117  -20.1999  -40.2348 H         1 UNK         0.0600 
    153 H153       -0.9952  -19.2907  -40.7666 H         1 UNK         0.0600 
    154 H154       -0.2220  -18.4236  -43.3414 H         1 UNK         0.3000 
    155 H155       -0.8920  -18.5230  -46.1244 H         1 UNK         0.0600 
    156 H156       -3.7725  -19.3894  -45.5545 H         1 UNK         0.0600 
    157 H157       -2.7462  -19.9018  -46.8857 H         1 UNK         0.0600 
    158 H158       -3.3230  -18.2418  -46.8114 H         1 UNK         0.0600 
    159 H159       -1.2661  -16.6533  -45.0543 H         1 UNK         0.3000 
    160 H160       -3.7346  -15.2783  -43.1477 H         1 UNK         0.0600 
    161 H161       -1.2100  -16.1689  -41.6565 H         1 UNK         0.0600 
    162 H162       -2.8640  -16.3537  -41.0919 H         1 UNK         0.0600 
    163 H163       -2.1729  -14.7467  -41.2550 H         1 UNK         0.0600 
    164 H164       -0.9812  -14.4921  -43.4797 H         1 UNK         0.3000 
    165 H165       -1.2576  -13.4262  -46.8534 H         1 UNK         0.0600 
    166 H166       -0.4559  -11.2931  -45.9676 H         1 UNK         0.0600 
    167 H167       -2.1359  -11.4868  -45.5044 H         1 UNK         0.0600 
    168 H168       -0.8696  -11.7577  -44.3130 H         1 UNK         0.0600 
    169 H169        0.8879  -13.3282  -44.9662 H         1 UNK         0.3000 
    170 H170        2.2466  -16.5556  -45.7544 H         1 UNK         0.0600 
    171 H171        3.1444  -13.6558  -46.1410 H         1 UNK         0.0600 
    172 H172        3.0367  -14.8527  -47.4053 H         1 UNK         0.0600 
    173 H173        4.1899  -15.0718  -46.0985 H         1 UNK         0.0600 
    174 H174        2.8394  -14.4541  -43.8230 H         1 UNK         0.3000 
    175 H175        1.0658  -15.9207  -41.1479 H         1 UNK         0.0600 
    176 H176        4.0947  -16.1618  -41.5262 H         1 UNK         0.0600 
    177 H177        3.2303  -16.2051  -39.9892 H         1 UNK         0.0600 
    178 H178        3.0044  -17.4942  -41.1589 H         1 UNK         0.0600 
    179 H179        3.0707  -13.9327  -41.0924 H         1 UNK         0.3000 
    180 H180        0.9360  -11.3587  -40.9134 H         1 UNK         0.0600 
    181 H181        3.2647  -10.5845  -40.5642 H         1 UNK         0.0600 
    182 H182        3.9045  -12.0210  -41.3485 H         1 UNK         0.0600 
    183 H183        3.0305  -12.1532  -39.8210 H         1 UNK         0.0600 
    184 H184        1.1753  -10.1572  -42.7599 H         1 UNK         0.3000 
    185 H185        1.2932   -9.9381  -45.1111 H         1 UNK         0.0600 
    186 H186        3.1123   -8.2665  -45.5465 H         1 UNK         0.0600 
    187 H187        2.9059   -8.5094  -43.8198 H         1 UNK         0.0600 
    188 H188        4.2601   -9.2630  -44.6548 H         1 UNK         0.0600 
    189 H189        3.4880  -11.5772  -46.1464 H         1 UNK         0.3000 
    190 H190        2.7002  -24.6774  -47.7239 H         1 UNK         0.3000 
    191 H191        0.5983  -25.8478  -46.0414 H         1 UNK         0.0600 
    192 H192        1.2199  -27.9234  -47.2590 H         1 UNK         0.0600 
    193 H193        2.6429  -27.1475  -46.5839 H         1 UNK         0.0600 
    194 H194        2.3007  -27.0133  -48.3085 H         1 UNK         0.0600 
    195 H195       -0.6921  -23.8949  -47.0663 H         1 UNK         0.3000 
    196 H196       -1.6160  -24.1377  -49.7639 H         1 UNK         0.0600 
    197 H197       -2.6282  -22.4527  -47.4067 H         1 UNK         0.0600 
    198 H198       -1.4616  -21.9504  -48.6284 H         1 UNK         0.0600 
    199 H199       -3.1345  -22.2320  -49.0769 H         1 UNK         0.0600 
    200 H200       -2.7962  -25.4386  -46.7754 H         1 UNK         0.3000 
    201 H201       -4.5156  -26.6866  -46.1138 H         1 UNK         0.0600 
    202 H202       -4.7224  -27.5587  -49.0463 H         1 UNK         0.0600 
    203 H203       -5.3350  -28.4333  -47.6520 H         1 UNK         0.0600 
    204 H204       -3.6027  -28.2328  -47.8661 H         1 UNK         0.0600 
    205 H205       -5.2146  -24.1185  -46.2756 H         1 UNK         0.3000 
    206 H206       -6.8209  -22.5886  -46.4037 H         1 UNK         0.0600 
    207 H207       -8.1217  -24.2688  -45.0728 H         1 UNK         0.0600 
    208 H208       -9.1628  -23.2644  -46.0674 H         1 UNK         0.0600 
    209 H209       -8.8115  -24.9138  -46.5616 H         1 UNK         0.0600 
    210 H210       -5.5089  -23.2700  -48.7589 H         1 UNK         0.3000 
    211 H211       -5.3255  -22.7108  -50.8559 H         1 UNK         0.0600 
    212 H212       -6.8594  -21.2154  -52.0126 H         1 UNK         0.0600 
    213 H213       -6.6920  -20.6565  -50.3562 H         1 UNK         0.0600 
    214 H214       -8.1445  -21.5224  -50.8577 H         1 UNK         0.0600 
    215 H215       -6.8608  -25.2813  -49.8742 H         1 UNK         0.3000 
    216 H216       -8.1705  -26.1696  -52.3205 H         1 UNK         0.0600 
    217 H217       -7.1855  -27.8340  -49.9507 H         1 UNK         0.0600 
    218 H218       -8.3376  -28.3195  -51.1830 H         1 UNK         0.0600 
    219 H219       -8.7682  -27.0583  -50.0367 H         1 UNK         0.0600 
    220 H220       -4.8931  -26.2984  -50.9472 H         1 UNK         0.3000 
    221 H221       -3.9099  -28.0432  -53.1504 H         1 UNK         0.0600 
    222 H222       -3.1528  -28.5863  -50.8484 H         1 UNK         0.0600 
    223 H223       -2.4734  -26.9719  -50.6674 H         1 UNK         0.0600 
    224 H224       -1.8089  -28.0769  -51.8581 H         1 UNK         0.0600 
    225 H225       -3.3988  -24.8040  -51.6727 H         1 UNK         0.3000 
    226 H226       -1.9035  -23.8599  -54.0706 H         1 UNK         0.0600 
    227 H227       -1.4583  -21.8664  -52.6726 H         1 UNK         0.0600 
    228 H228       -2.4275  -22.5266  -51.3674 H         1 UNK         0.0600 
    229 H229       -0.9302  -23.3284  -51.8595 H         1 UNK         0.0600 
    230 H230       -3.8204  -24.0999  -55.4360 H         1 UNK         0.3000 
    231 H231       -6.2881  -22.8544  -55.0484 H         1 UNK         0.0600 
    232 H232       -4.8146  -23.4510  -57.6698 H         1 UNK         0.0600 
    233 H233       -6.5381  -23.1261  -57.5237 H         1 UNK         0.0600 
    234 H234       -5.8568  -24.5658  -56.7840 H         1 UNK         0.0600 
    235 H235       -3.2857  -21.3966  -56.1180 H         1 UNK         0.3000 
    236 H236       -4.2397  -18.9371  -57.1703 H         1 UNK         0.0600 
    237 H237       -1.9308  -19.7845  -57.5231 H         1 UNK         0.0600 
    238 H238       -1.8826  -18.1983  -56.7715 H         1 UNK         0.0600 
    239 H239       -1.5853  -19.6339  -55.7989 H         1 UNK         0.0600 
    240 H240       -4.0533  -20.0652  -53.8478 H         1 UNK         0.3000 
    241 H241       -4.2618  -17.3911  -52.6690 H         1 UNK         0.0600 
    242 H242       -7.9766  -18.6435  -53.4995 H         1 UNK         0.3800 
    243 H243       -6.5899  -19.2910  -54.3364 H         1 UNK         0.3800 
    244 H244       -4.4139  -20.1581  -51.3840 H         1 UNK         0.0800 
    245 H245       -4.5282  -18.6642  -50.5087 H         1 UNK         0.0800 
    246 H246       -2.7062  -17.0540  -50.0170 H         1 UNK         0.0800 
    247 H247       -2.4521  -18.4425  -48.9880 H         1 UNK         0.0800 
@<TRIPOS>BOND
     1    1    2 1    
     2    1  127 1    
     3    1  128 1    
     4    1  129 1    
     5    2    3 2    
     6    2    4 am   BACKBONE|DICT|INTERRES
     7    4    5 1    
     8    4  130 1    
     9    5    6 1    
    10    5   65 1    
    11    5  131 1    
    12    6    7 1    
    13    6  132 1    
    14    6  133 1    
    15    7    8 1    
    16    8    9 1    
    17    8  134 1    
    18    8  135 1    
    19    9   10 ar   
    20    9   14 ar   
    21   10   11 ar   
    22   10  136 1    
    23   11   12 ar   
    24   11  126 1    
    25   12   13 ar   
    26   12  137 1    
    27   13   14 ar   
    28   13   15 1    
    29   14  138 1    
    30   15   16 1    
    31   15  139 1    
    32   15  140 1    
    33   16   17 1    
    34   17   18 1    
    35   17  141 1    
    36   17  142 1    
    37   18   19 1    
    38   18   67 1    
    39   18  143 1    
    40   19   20 am   BACKBONE|DICT|INTERRES
    41   19  144 1    
    42   20   21 2    
    43   20   22 1    
    44   22   23 1    
    45   22   24 1    
    46   22  145 1    
    47   23  146 1    
    48   23  147 1    
    49   23  148 1    
    50   24   25 am   BACKBONE|DICT|INTERRES
    51   24  149 1    
    52   25   26 2    
    53   25   27 1    
    54   27   28 1    
    55   27   29 1    
    56   27  150 1    
    57   28  151 1    
    58   28  152 1    
    59   28  153 1    
    60   29   30 am   BACKBONE|DICT|INTERRES
    61   29  154 1    
    62   30   31 2    
    63   30   32 1    
    64   32   33 1    
    65   32   34 1    
    66   32  155 1    
    67   33  156 1    
    68   33  157 1    
    69   33  158 1    
    70   34   35 am   BACKBONE|DICT|INTERRES
    71   34  159 1    
    72   35   36 2    
    73   35   37 1    
    74   37   38 1    
    75   37   39 1    
    76   37  160 1    
    77   38  161 1    
    78   38  162 1    
    79   38  163 1    
    80   39   40 am   BACKBONE|DICT|INTERRES
    81   39  164 1    
    82   40   41 2    
    83   40   42 1    
    84   42   43 1    
    85   42   44 1    
    86   42  165 1    
    87   43  166 1    
    88   43  167 1    
    89   43  168 1    
    90   44   45 am   BACKBONE|DICT|INTERRES
    91   44  169 1    
    92   45   46 2    
    93   45   47 1    
    94   47   48 1    
    95   47   49 1    
    96   47  170 1    
    97   48  171 1    
    98   48  172 1    
    99   48  173 1    
   100   49   50 am   BACKBONE|DICT|INTERRES
   101   49  174 1    
   102   50   51 2    
   103   50   52 1    
   104   52   53 1    
   105   52   54 1    
   106   52  175 1    
   107   53  176 1    
   108   53  177 1    
   109   53  178 1    
   110   54   55 am   BACKBONE|DICT|INTERRES
   111   54  179 1    
   112   55   56 2    
   113   55   57 1    
   114   57   58 1    
   115   57   59 1    
   116   57  180 1    
   117   58  181 1    
   118   58  182 1    
   119   58  183 1    
   120   59   60 am   BACKBONE|DICT|INTERRES
   121   59  184 1    
   122   60   61 2    
   123   60   62 1    
   124   62   63 1    
   125   62   64 1    
   126   62  185 1    
   127   63  186 1    
   128   63  187 1    
   129   63  188 1    
   130   64   65 am   BACKBONE|DICT|INTERRES
   131   64  189 1    
   132   65   66 2    
   133   67   68 2    
   134   67   69 am   BACKBONE|DICT|INTERRES
   135   69   70 1    
   136   69  190 1    
   137   70   71 1    
   138   70   72 1    
   139   70  191 1    
   140   71  192 1    
   141   71  193 1    
   142   71  194 1    
   143   72   73 2    
   144   72   74 am   BACKBONE|DICT|INTERRES
   145   74   75 1    
   146   74  195 1    
   147   75   76 1    
   148   75   77 1    
   149   75  196 1    
   150   76  197 1    
   151   76  198 1    
   152   76  199 1    
   153   77   78 2    
   154   77   79 am   BACKBONE|DICT|INTERRES
   155   79   80 1    
   156   79  200 1    
   157   80   81 1    
   158   80   82 1    
   159   80  201 1    
   160   81  202 1    
   161   81  203 1    
   162   81  204 1    
   163   82   83 2    
   164   82   84 am   BACKBONE|DICT|INTERRES
   165   84   85 1    
   166   84  205 1    
   167   85   86 1    
   168   85   87 1    
   169   85  206 1    
   170   86  207 1    
   171   86  208 1    
   172   86  209 1    
   173   87   88 2    
   174   87   89 am   BACKBONE|DICT|INTERRES
   175   89   90 1    
   176   89  210 1    
   177   90   91 1    
   178   90   92 1    
   179   90  211 1    
   180   91  212 1    
   181   91  213 1    
   182   91  214 1    
   183   92   93 2    
   184   92   94 am   BACKBONE|DICT|INTERRES
   185   94   95 1    
   186   94  215 1    
   187   95   96 1    
   188   95   97 1    
   189   95  216 1    
   190   96  217 1    
   191   96  218 1    
   192   96  219 1    
   193   97   98 2    
   194   97   99 am   BACKBONE|DICT|INTERRES
   195   99  100 1    
   196   99  220 1    
   197  100  101 1    
   198  100  102 1    
   199  100  221 1    
   200  101  222 1    
   201  101  223 1    
   202  101  224 1    
   203  102  103 2    
   204  102  104 am   BACKBONE|DICT|INTERRES
   205  104  105 1    
   206  104  225 1    
   207  105  106 1    
   208  105  107 1    
   209  105  226 1    
   210  106  227 1    
   211  106  228 1    
   212  106  229 1    
   213  107  108 2    
   214  107  109 am   BACKBONE|DICT|INTERRES
   215  109  110 1    
   216  109  230 1    
   217  110  111 1    
   218  110  112 1    
   219  110  231 1    
   220  111  232 1    
   221  111  233 1    
   222  111  234 1    
   223  112  113 2    
   224  112  114 am   BACKBONE|DICT|INTERRES
   225  114  115 1    
   226  114  235 1    
   227  115  116 1    
   228  115  117 1    
   229  115  236 1    
   230  116  237 1    
   231  116  238 1    
   232  116  239 1    
   233  117  118 2    
   234  117  119 am   BACKBONE|DICT|INTERRES
   235  119  120 1    
   236  119  240 1    
   237  120  121 1    
   238  120  124 1    
   239  120  241 1    
   240  121  122 am   BACKBONE|DICT|INTERRES
   241  121  123 2    
   242  122  242 1    
   243  122  243 1    
   244  124  125 1    
   245  124  244 1    
   246  124  245 1    
   247  125  126 1    
   248  126  246 1    
   249  126  247 1    
@<TRIPOS>SUBSTRUCTURE
     1 UNK         1 GROUP             0       ****    0 ROOT    
