@<TRIPOS>MOLECULE
3R540
247   249    1
SMALL
USER_CHARGES


@<TRIPOS>ATOM
      1 CA         -1.4843  -12.2195  -45.1176 C.3       0 UNK        -0.1800 
      2 C          -0.5082  -11.7716  -46.1959 C.2       0 UNK         0.5000 
      3 O           0.3482  -10.9269  -45.9357 O.2       0 UNK        -0.5000 
      4 N          -0.6363  -12.3263  -47.4087 N.am      1 UNK        -0.5000 
      5 CA          0.2138  -12.0037  -48.5621 C.3       1 UNK         0.1400 
      6 C6         -0.4561  -12.3814  -49.9084 C.3       23 UNK        -0.0398 
      7 S7         -0.8825  -14.1517  -50.0785 S.3       23 UNK        -0.2404 
      8 C8          0.3629  -14.6864  -51.2930 C.3       23 UNK        -0.0205 
      9 C9          0.3301  -16.1904  -51.5217 C.ar      23 UNK        -0.0193 
     10 C10        -0.1150  -16.7217  -52.7363 C.ar      23 UNK        -0.1150 
     11 C11        -0.0778  -18.1019  -52.9629 C.ar      23 UNK        -0.0193 
     12 C12         0.3782  -18.9552  -51.9530 C.ar      23 UNK        -0.1150 
     13 C13         0.8310  -18.4353  -50.7372 C.ar      23 UNK        -0.0193 
     14 C14         0.8054  -17.0530  -50.5317 C.ar      23 UNK        -0.1150 
     15 C15         1.4194  -19.3499  -49.6724 C.3       23 UNK        -0.0205 
     16 S16         0.4675  -19.3121  -48.1235 S.3       23 UNK        -0.2404 
     17 C17        -0.7539  -20.6401  -48.3842 C.3       23 UNK        -0.0398 
     18 CA         -0.4059  -21.9323  -47.6047 C.3       11 UNK         0.1400 
     19 N          -0.2449  -21.7002  -46.1649 N.am      11 UNK        -0.5000 
     20 C           0.1962  -22.6105  -45.2855 C.2       10 UNK         0.5000 
     21 O           0.5785  -23.7356  -45.6030 O.2       10 UNK        -0.5000 
     22 CA          0.1397  -22.2222  -43.7981 C.3       10 UNK         0.1400 
     23 CB          1.3925  -21.4394  -43.3762 C.3       10 UNK        -0.1800 
     24 N          -1.0614  -21.4438  -43.4952 N.am      10 UNK        -0.5000 
     25 C          -2.2951  -21.9632  -43.4279 C.2       9 UNK         0.5000 
     26 O          -2.5356  -23.1628  -43.5634 O.2       9 UNK        -0.5000 
     27 CA         -3.4582  -20.9754  -43.2186 C.3       9 UNK         0.1400 
     28 CB         -3.6587  -20.6806  -41.7253 C.3       9 UNK        -0.1800 
     29 N          -3.2682  -19.7181  -43.9431 N.am      9 UNK        -0.5000 
     30 C          -3.3018  -19.6114  -45.2795 C.2       8 UNK         0.5000 
     31 O          -3.5307  -20.5552  -46.0348 O.2       8 UNK        -0.5000 
     32 CA         -2.9751  -18.2356  -45.8885 C.3       8 UNK         0.1400 
     33 CB         -4.2554  -17.4012  -46.0371 C.3       8 UNK        -0.1800 
     34 N          -1.9839  -17.4595  -45.1444 N.am      8 UNK        -0.5000 
     35 C          -0.7668  -17.8774  -44.7697 C.2       7 UNK         0.5000 
     36 O          -0.3386  -19.0125  -44.9692 O.2       7 UNK        -0.5000 
     37 CA          0.1100  -16.8753  -44.0003 C.3       7 UNK         0.1400 
     38 CB         -0.2926  -15.4054  -44.2304 C.3       7 UNK        -0.1800 
     39 N           0.1770  -17.1472  -42.5625 N.am      7 UNK        -0.5000 
     40 C          -0.8295  -17.4072  -41.7118 C.2       6 UNK         0.5000 
     41 O          -2.0019  -17.5912  -42.0437 O.2       6 UNK        -0.5000 
     42 CA         -0.4535  -17.4398  -40.2171 C.3       6 UNK         0.1400 
     43 CB         -0.0463  -18.8614  -39.7990 C.3       6 UNK        -0.1800 
     44 N           0.6270  -16.5073  -39.8704 N.am      6 UNK        -0.5000 
     45 C           0.5578  -15.1713  -39.9765 C.2       5 UNK         0.5000 
     46 O          -0.4575  -14.5712  -40.3373 O.2       5 UNK        -0.5000 
     47 CA          1.8269  -14.3700  -39.6280 C.3       5 UNK         0.1400 
     48 CB          3.1384  -15.1538  -39.8505 C.3       5 UNK        -0.1800 
     49 N           1.8524  -13.1476  -40.4256 N.am      5 UNK        -0.5000 
     50 C           2.3982  -11.9817  -40.0695 C.2       4 UNK         0.5000 
     51 O           2.9506  -11.7901  -38.9842 O.2       4 UNK        -0.5000 
     52 CA          2.3579  -10.8647  -41.1358 C.3       4 UNK         0.1400 
     53 CB          2.8031   -9.4983  -40.5838 C.3       4 UNK        -0.1800 
     54 N           3.2073  -11.2110  -42.2780 N.am      4 UNK        -0.5000 
     55 C           2.8723  -12.0704  -43.2473 C.2       3 UNK         0.5000 
     56 O           1.7604  -12.5988  -43.3330 O.2       3 UNK        -0.5000 
     57 CA          3.9776  -12.4506  -44.2433 C.3       3 UNK         0.1400 
     58 CB          5.0161  -13.3576  -43.5474 C.3       3 UNK        -0.1800 
     59 N           3.3548  -13.1463  -45.3654 N.am      3 UNK        -0.5000 
     60 C           3.9516  -13.5858  -46.4791 C.2       2 UNK         0.5000 
     61 O           5.1390  -13.4008  -46.7480 O.2       2 UNK        -0.5000 
     62 CA          3.0607  -14.3698  -47.4593 C.3       2 UNK         0.1400 
     63 CB          2.7992  -15.7876  -46.9254 C.3       2 UNK        -0.1800 
     64 N           1.7838  -13.6993  -47.7042 N.am      2 UNK        -0.5000 
     65 C           1.6394  -12.5869  -48.4397 C.2       1 UNK         0.5000 
     66 O           2.5719  -12.0224  -49.0135 O.2       1 UNK        -0.5000 
     67 C          -1.4461  -23.0403  -47.8784 C.2       11 UNK         0.5000 
     68 O          -1.2015  -23.9189  -48.7052 O.2       11 UNK        -0.5000 
     69 N          -2.5715  -23.0090  -47.1491 N.am      12 UNK        -0.5000 
     70 CA         -3.6174  -24.0305  -47.1919 C.3       12 UNK         0.1400 
     71 CB         -4.8587  -23.5387  -46.4349 C.3       12 UNK        -0.1800 
     72 C          -3.1447  -25.3933  -46.6582 C.2       12 UNK         0.5000 
     73 O          -3.4589  -26.4141  -47.2690 O.2       12 UNK        -0.5000 
     74 N          -2.3537  -25.3937  -45.5747 N.am      13 UNK        -0.5000 
     75 CA         -1.7100  -26.5919  -45.0232 C.3       13 UNK         0.1400 
     76 CB         -1.0548  -26.2558  -43.6755 C.3       13 UNK        -0.1800 
     77 C          -0.6869  -27.2243  -45.9898 C.2       13 UNK         0.5000 
     78 O          -0.5651  -28.4487  -46.0322 O.2       13 UNK        -0.5000 
     79 N          -0.0118  -26.3821  -46.7837 N.am      14 UNK        -0.5000 
     80 CA          0.8777  -26.7709  -47.8806 C.3       14 UNK         0.1400 
     81 CB          1.8504  -25.6130  -48.1607 C.3       14 UNK        -0.1800 
     82 C           0.1301  -27.1888  -49.1683 C.2       14 UNK         0.5000 
     83 O           0.7861  -27.5676  -50.1395 O.2       14 UNK        -0.5000 
     84 N          -1.2105  -27.1186  -49.1599 N.am      15 UNK        -0.5000 
     85 CA         -2.1382  -27.4618  -50.2423 C.3       15 UNK         0.1400 
     86 CB         -2.0498  -28.9617  -50.5957 C.3       15 UNK        -0.1800 
     87 C          -2.0212  -26.5364  -51.4716 C.2       15 UNK         0.5000 
     88 O          -2.2279  -26.9843  -52.6009 O.2       15 UNK        -0.5000 
     89 N          -1.7174  -25.2558  -51.2313 N.am      16 UNK        -0.5000 
     90 CA         -1.6092  -24.2107  -52.2455 C.3       16 UNK         0.1400 
     91 CB         -0.1472  -24.0985  -52.7180 C.3       16 UNK        -0.1800 
     92 C          -2.1636  -22.9006  -51.6656 C.2       16 UNK         0.5000 
     93 O          -1.4556  -21.8951  -51.6353 O.2       16 UNK        -0.5000 
     94 N          -3.4027  -22.9715  -51.1528 N.am      17 UNK        -0.5000 
     95 CA         -4.1267  -21.9184  -50.4349 C.3       17 UNK         0.1400 
     96 CB         -5.5714  -22.3818  -50.1949 C.3       17 UNK        -0.1800 
     97 C          -4.1088  -20.5510  -51.1422 C.2       17 UNK         0.5000 
     98 O          -4.4697  -20.4687  -52.3194 O.2       17 UNK        -0.5000 
     99 N          -3.6955  -19.5190  -50.3953 N.am      18 UNK        -0.5000 
    100 CA        -3.4649  -18.1522  -50.8586 C.3       18 UNK         0.1400 
    101 CB        -2.9942  -17.2977  -49.6740 C.3       18 UNK        -0.1800 
    102 C         -4.7012  -17.5317  -51.5328 C.2       18 UNK         0.5000 
    103 O         -5.7031  -17.2788  -50.8612 O.2       18 UNK        -0.5000 
    104 N         -4.5992  -17.3375  -52.8539 N.am      19 UNK        -0.5000 
    105 CA        -5.6178  -16.8212  -53.7732 C.3       19 UNK         0.1400 
    106 CB        -5.9711  -15.3584  -53.4320 C.3       19 UNK        -0.1800 
    107 C         -6.8674  -17.7210  -53.9059 C.2       19 UNK         0.5000 
    108 O         -7.9050  -17.2437  -54.3693 O.2       19 UNK        -0.5000 
    109 N         -6.7533  -18.9991  -53.5187 N.am      20 UNK        -0.5000 
    110 CA        -7.8410  -19.9783  -53.5441 C.3       20 UNK         0.1400 
    111 CB        -8.2855  -20.2748  -52.1036 C.3       20 UNK        -0.1800 
    112 C         -7.4454  -21.2700  -54.2776 C.2       20 UNK         0.5000 
    113 O         -8.3015  -21.8704  -54.9286 O.2       20 UNK        -0.5000 
    114 N         -6.1719  -21.6733  -54.1839 N.am      21 UNK        -0.5000 
    115 CA        -5.6291  -22.8760  -54.8166 C.3       21 UNK         0.1400 
    116 CB        -5.7739  -24.0820  -53.8689 C.3       21 UNK        -0.1800 
    117 C         -4.1835  -22.6485  -55.2943 C.2       21 UNK         0.5000 
    118 O         -3.3827  -23.5838  -55.2991 O.2       21 UNK        -0.5000 
    119 N         -3.8737  -21.4114  -55.7031 N.am      22 UNK        -0.5000 
    120 CA        -2.5727  -21.0212  -56.2761 C.3       22 UNK         0.1400 
    121 C         -2.3193  -21.5413  -57.7235 C.2       22 UNK         0.5000 
    122 N         -3.3161  -22.0490  -58.4388 N.am      22 UNK        -0.7600 
    123 O         -1.1913  -21.4872  -58.2056 O.2       22 UNK        -0.5000 
    124 C124       -2.3533  -19.4889  -56.2078 C.3       23 UNK        -0.0398 
    125 S125       -2.2592  -18.8717  -54.4951 S.3       23 UNK        -0.2404 
    126 C126       -0.4638  -18.6635  -54.3221 C.3       23 UNK        -0.0205 
    127 H127       -2.0845  -13.0701  -45.4412 H         1 UNK         0.0600 
    128 H128       -2.1588  -11.4028  -44.8614 H         1 UNK         0.0600 
    129 H129       -0.9423  -12.5072  -44.2166 H         1 UNK         0.0600 
    130 H130       -1.3634  -13.0068  -47.5799 H         1 UNK         0.3000 
    131 H131        0.3362  -10.9182  -48.5743 H         1 UNK         0.0600 
    132 H132       -1.3804  -11.8127  -50.0174 H         1 UNK         0.0800 
    133 H133        0.1708  -12.0685  -50.7453 H         1 UNK         0.0800 
    134 H134        0.2006  -14.1527  -52.2307 H         1 UNK         0.0800 
    135 H135        1.3570  -14.4034  -50.9437 H         1 UNK         0.0800 
    136 H136       -0.4619  -16.0611  -53.5185 H         1 UNK         0.1150 
    137 H137        0.4119  -20.0216  -52.1278 H         1 UNK         0.1150 
    138 H138        1.1664  -16.6431  -49.6006 H         1 UNK         0.1150 
    139 H139        1.5032  -20.3765  -50.0325 H         1 UNK         0.0800 
    140 H140        2.4369  -19.0199  -49.4587 H         1 UNK         0.0800 
    141 H141       -0.8281  -20.8404  -49.4517 H         1 UNK         0.0800 
    142 H142       -1.7290  -20.2624  -48.0802 H         1 UNK         0.0800 
    143 H143        0.5529  -22.2962  -47.9799 H         1 UNK         0.0600 
    144 H144       -0.4638  -20.7683  -45.8243 H         1 UNK         0.3000 
    145 H145        0.1090  -23.1427  -43.2116 H         1 UNK         0.0600 
    146 H146        1.3530  -21.1713  -42.3203 H         1 UNK         0.0600 
    147 H147        2.2908  -22.0393  -43.5264 H         1 UNK         0.0600 
    148 H148        1.5158  -20.5216  -43.9506 H         1 UNK         0.0600 
    149 H149       -0.9539  -20.4376  -43.4886 H         1 UNK         0.3000 
    150 H150       -4.3673  -21.4494  -43.5947 H         1 UNK         0.0600 
    151 H151       -3.8303  -21.6006  -41.1650 H         1 UNK         0.0600 
    152 H152       -4.5219  -20.0349  -41.5635 H         1 UNK         0.0600 
    153 H153       -2.7879  -20.1892  -41.2919 H         1 UNK         0.0600 
    154 H154       -3.0251  -18.9013  -43.3923 H         1 UNK         0.3000 
    155 H155       -2.5607  -18.4079  -46.8821 H         1 UNK         0.0600 
    156 H156       -4.7022  -17.1760  -45.0679 H         1 UNK         0.0600 
    157 H157       -4.0563  -16.4555  -46.5417 H         1 UNK         0.0600 
    158 H158       -5.0027  -17.9330  -46.6279 H         1 UNK         0.0600 
    159 H159       -2.2598  -16.5257  -44.8797 H         1 UNK         0.3000 
    160 H160        1.1219  -17.0090  -44.3830 H         1 UNK         0.0600 
    161 H161        0.4407  -14.7381  -43.7825 H         1 UNK         0.0600 
    162 H162       -1.2595  -15.1681  -43.7850 H         1 UNK         0.0600 
    163 H163       -0.3388  -15.1660  -45.2934 H         1 UNK         0.0600 
    164 H164        1.0973  -17.0620  -42.1573 H         1 UNK         0.3000 
    165 H165       -1.3402  -17.1537  -39.6475 H         1 UNK         0.0600 
    166 H166        0.1545  -18.9155  -38.7289 H         1 UNK         0.0600 
    167 H167       -0.8408  -19.5764  -40.0139 H         1 UNK         0.0600 
    168 H168        0.8474  -19.1974  -40.3264 H         1 UNK         0.0600 
    169 H169        1.4918  -16.9208  -39.5530 H         1 UNK         0.3000 
    170 H170        1.7482  -14.1070  -38.5713 H         1 UNK         0.0600 
    171 H171        4.0083  -14.5319  -39.6380 H         1 UNK         0.0600 
    172 H172        3.2277  -15.5030  -40.8800 H         1 UNK         0.0600 
    173 H173        3.2058  -16.0206  -39.1925 H         1 UNK         0.0600 
    174 H174        1.4065  -13.2093  -41.3355 H         1 UNK         0.3000 
    175 H175        1.3236  -10.7654  -41.4726 H         1 UNK         0.0600 
    176 H176        2.7105   -8.7195  -41.3409 H         1 UNK         0.0600 
    177 H177        3.8401   -9.5157  -40.2463 H         1 UNK         0.0600 
    178 H178        2.1854   -9.2001  -39.7357 H         1 UNK         0.0600 
    179 H179        4.1491  -10.8475  -42.2542 H         1 UNK         0.3000 
    180 H180        4.4543  -11.5393  -44.6088 H         1 UNK         0.0600 
    181 H181        4.5670  -14.2934  -43.2118 H         1 UNK         0.0600 
    182 H182        5.4461  -12.8700  -42.6718 H         1 UNK         0.0600 
    183 H183        5.8471  -13.6041  -44.2073 H         1 UNK         0.0600 
    184 H184        2.3623  -13.2983  -45.2335 H         1 UNK         0.3000 
    185 H185        3.5932  -14.4570  -48.4089 H         1 UNK         0.0600 
    186 H186        3.7361  -16.3249  -46.7732 H         1 UNK         0.0600 
    187 H187        2.2776  -15.7645  -45.9697 H         1 UNK         0.0600 
    188 H188        2.1993  -16.3755  -47.6180 H         1 UNK         0.0600 
    189 H189        0.9616  -14.0990  -47.2786 H         1 UNK         0.3000 
    190 H190       -2.7384  -22.2211  -46.5292 H         1 UNK         0.3000 
    191 H191       -3.8946  -24.1753  -48.2373 H         1 UNK         0.0600 
    192 H192       -5.2499  -22.6213  -46.8752 H         1 UNK         0.0600 
    193 H193       -5.6570  -24.2811  -46.4683 H         1 UNK         0.0600 
    194 H194       -4.6383  -23.3388  -45.3861 H         1 UNK         0.0600 
    195 H195       -2.1859  -24.5202  -45.0873 H         1 UNK         0.3000 
    196 H196       -2.4915  -27.3327  -44.8419 H         1 UNK         0.0600 
    197 H197       -0.6224  -27.1475  -43.2202 H         1 UNK         0.0600 
    198 H198       -1.7828  -25.8518  -42.9719 H         1 UNK         0.0600 
    199 H199       -0.2541  -25.5253  -43.7865 H         1 UNK         0.0600 
    200 H200       -0.1197  -25.3856  -46.6276 H         1 UNK         0.3000 
    201 H201        1.4660  -27.6324  -47.5586 H         1 UNK         0.0600 
    202 H202        2.4032  -25.3362  -47.2628 H         1 UNK         0.0600 
    203 H203        1.3291  -24.7254  -48.5184 H         1 UNK         0.0600 
    204 H204        2.5832  -25.8897  -48.9195 H         1 UNK         0.0600 
    205 H205       -1.6567  -26.7822  -48.3153 H         1 UNK         0.3000 
    206 H206       -3.1373  -27.2874  -49.8416 H         1 UNK         0.0600 
    207 H207       -2.1466  -29.5824  -49.7050 H         1 UNK         0.0600 
    208 H208       -2.8498  -29.2500  -51.2784 H         1 UNK         0.0600 
    209 H209       -1.1047  -29.2112  -51.0786 H         1 UNK         0.0600 
    210 H210       -1.5555  -24.9493  -50.2735 H         1 UNK         0.3000 
    211 H211       -2.2323  -24.4609  -53.1053 H         1 UNK         0.0600 
    212 H212        0.5207  -23.8453  -51.8937 H         1 UNK         0.0600 
    213 H213       -0.0417  -23.3265  -53.4813 H         1 UNK         0.0600 
    214 H214        0.1987  -25.0360  -53.1534 H         1 UNK         0.0600 
    215 H215       -3.8804  -23.8564  -51.2271 H         1 UNK         0.3000 
    216 H216       -3.6444  -21.8080  -49.4637 H         1 UNK         0.0600 
    217 H217       -6.1301  -21.6384  -49.6249 H         1 UNK         0.0600 
    218 H218       -5.6067  -23.3123  -49.6295 H         1 UNK         0.0600 
    219 H219       -6.1014  -22.5456  -51.1336 H         1 UNK         0.0600 
    220 H220       -3.4850  -19.6852  -49.4245 H         1 UNK         0.3000 
    221 H221       -2.6491  -18.1885  -51.5818 H         1 UNK         0.0600 
    222 H222       -3.7238  -17.2990  -48.8652 H         1 UNK         0.0600 
    223 H223       -2.0415  -17.6524  -49.2801 H         1 UNK         0.0600 
    224 H224       -2.8530  -16.2622  -49.9807 H         1 UNK         0.0600 
    225 H225       -3.7452  -17.6466  -53.3037 H         1 UNK         0.3000 
    226 H226       -5.1506  -16.8212  -54.7590 H         1 UNK         0.0600 
    227 H227       -5.0740  -14.7442  -53.3525 H         1 UNK         0.0600 
    228 H228       -6.5974  -14.9146  -54.2066 H         1 UNK         0.0600 
    229 H229       -6.5150  -15.2820  -52.4901 H         1 UNK         0.0600 
    230 H230       -5.8665  -19.3139  -53.1386 H         1 UNK         0.3000 
    231 H231       -8.7026  -19.5763  -54.0810 H         1 UNK         0.0600 
    232 H232       -7.4506  -20.6028  -51.4865 H         1 UNK         0.0600 
    233 H233       -9.0475  -21.0548  -52.0764 H         1 UNK         0.0600 
    234 H234       -8.7111  -19.3864  -51.6369 H         1 UNK         0.0600 
    235 H235       -5.5195  -21.1611  -53.5916 H         1 UNK         0.3000 
    236 H236       -6.1987  -23.0937  -55.7223 H         1 UNK         0.0600 
    237 H237       -6.8130  -24.2323  -53.5760 H         1 UNK         0.0600 
    238 H238       -5.4378  -25.0024  -54.3478 H         1 UNK         0.0600 
    239 H239       -5.1867  -23.9507  -52.9626 H         1 UNK         0.0600 
    240 H240       -4.5830  -20.6951  -55.6660 H         1 UNK         0.3000 
    241 H241       -1.7974  -21.4859  -55.6631 H         1 UNK         0.0600 
    242 H242       -4.2485  -22.0989  -58.0617 H         1 UNK         0.3800 
    243 H243       -3.1351  -22.3851  -59.3719 H         1 UNK         0.3800 
    244 H244       -1.4405  -19.2005  -56.7324 H         1 UNK         0.0800 
    245 H245       -3.1647  -18.9675  -56.7179 H         1 UNK         0.0800 
    246 H246       -0.0980  -17.9968  -55.1045 H         1 UNK         0.0800 
    247 H247        0.0241  -19.6260  -54.4845 H         1 UNK         0.0800 
@<TRIPOS>BOND
     1    1    2 1    
     2    1  127 1    
     3    1  128 1    
     4    1  129 1    
     5    2    3 2    
     6    2    4 am   BACKBONE|DICT|INTERRES
     7    4    5 1    
     8    4  130 1    
     9    5    6 1    
    10    5   65 1    
    11    5  131 1    
    12    6    7 1    
    13    6  132 1    
    14    6  133 1    
    15    7    8 1    
    16    8    9 1    
    17    8  134 1    
    18    8  135 1    
    19    9   10 ar   
    20    9   14 ar   
    21   10   11 ar   
    22   10  136 1    
    23   11   12 ar   
    24   11  126 1    
    25   12   13 ar   
    26   12  137 1    
    27   13   14 ar   
    28   13   15 1    
    29   14  138 1    
    30   15   16 1    
    31   15  139 1    
    32   15  140 1    
    33   16   17 1    
    34   17   18 1    
    35   17  141 1    
    36   17  142 1    
    37   18   19 1    
    38   18   67 1    
    39   18  143 1    
    40   19   20 am   BACKBONE|DICT|INTERRES
    41   19  144 1    
    42   20   21 2    
    43   20   22 1    
    44   22   23 1    
    45   22   24 1    
    46   22  145 1    
    47   23  146 1    
    48   23  147 1    
    49   23  148 1    
    50   24   25 am   BACKBONE|DICT|INTERRES
    51   24  149 1    
    52   25   26 2    
    53   25   27 1    
    54   27   28 1    
    55   27   29 1    
    56   27  150 1    
    57   28  151 1    
    58   28  152 1    
    59   28  153 1    
    60   29   30 am   BACKBONE|DICT|INTERRES
    61   29  154 1    
    62   30   31 2    
    63   30   32 1    
    64   32   33 1    
    65   32   34 1    
    66   32  155 1    
    67   33  156 1    
    68   33  157 1    
    69   33  158 1    
    70   34   35 am   BACKBONE|DICT|INTERRES
    71   34  159 1    
    72   35   36 2    
    73   35   37 1    
    74   37   38 1    
    75   37   39 1    
    76   37  160 1    
    77   38  161 1    
    78   38  162 1    
    79   38  163 1    
    80   39   40 am   BACKBONE|DICT|INTERRES
    81   39  164 1    
    82   40   41 2    
    83   40   42 1    
    84   42   43 1    
    85   42   44 1    
    86   42  165 1    
    87   43  166 1    
    88   43  167 1    
    89   43  168 1    
    90   44   45 am   BACKBONE|DICT|INTERRES
    91   44  169 1    
    92   45   46 2    
    93   45   47 1    
    94   47   48 1    
    95   47   49 1    
    96   47  170 1    
    97   48  171 1    
    98   48  172 1    
    99   48  173 1    
   100   49   50 am   BACKBONE|DICT|INTERRES
   101   49  174 1    
   102   50   51 2    
   103   50   52 1    
   104   52   53 1    
   105   52   54 1    
   106   52  175 1    
   107   53  176 1    
   108   53  177 1    
   109   53  178 1    
   110   54   55 am   BACKBONE|DICT|INTERRES
   111   54  179 1    
   112   55   56 2    
   113   55   57 1    
   114   57   58 1    
   115   57   59 1    
   116   57  180 1    
   117   58  181 1    
   118   58  182 1    
   119   58  183 1    
   120   59   60 am   BACKBONE|DICT|INTERRES
   121   59  184 1    
   122   60   61 2    
   123   60   62 1    
   124   62   63 1    
   125   62   64 1    
   126   62  185 1    
   127   63  186 1    
   128   63  187 1    
   129   63  188 1    
   130   64   65 am   BACKBONE|DICT|INTERRES
   131   64  189 1    
   132   65   66 2    
   133   67   68 2    
   134   67   69 am   BACKBONE|DICT|INTERRES
   135   69   70 1    
   136   69  190 1    
   137   70   71 1    
   138   70   72 1    
   139   70  191 1    
   140   71  192 1    
   141   71  193 1    
   142   71  194 1    
   143   72   73 2    
   144   72   74 am   BACKBONE|DICT|INTERRES
   145   74   75 1    
   146   74  195 1    
   147   75   76 1    
   148   75   77 1    
   149   75  196 1    
   150   76  197 1    
   151   76  198 1    
   152   76  199 1    
   153   77   78 2    
   154   77   79 am   BACKBONE|DICT|INTERRES
   155   79   80 1    
   156   79  200 1    
   157   80   81 1    
   158   80   82 1    
   159   80  201 1    
   160   81  202 1    
   161   81  203 1    
   162   81  204 1    
   163   82   83 2    
   164   82   84 am   BACKBONE|DICT|INTERRES
   165   84   85 1    
   166   84  205 1    
   167   85   86 1    
   168   85   87 1    
   169   85  206 1    
   170   86  207 1    
   171   86  208 1    
   172   86  209 1    
   173   87   88 2    
   174   87   89 am   BACKBONE|DICT|INTERRES
   175   89   90 1    
   176   89  210 1    
   177   90   91 1    
   178   90   92 1    
   179   90  211 1    
   180   91  212 1    
   181   91  213 1    
   182   91  214 1    
   183   92   93 2    
   184   92   94 am   BACKBONE|DICT|INTERRES
   185   94   95 1    
   186   94  215 1    
   187   95   96 1    
   188   95   97 1    
   189   95  216 1    
   190   96  217 1    
   191   96  218 1    
   192   96  219 1    
   193   97   98 2    
   194   97   99 am   BACKBONE|DICT|INTERRES
   195   99  100 1    
   196   99  220 1    
   197  100  101 1    
   198  100  102 1    
   199  100  221 1    
   200  101  222 1    
   201  101  223 1    
   202  101  224 1    
   203  102  103 2    
   204  102  104 am   BACKBONE|DICT|INTERRES
   205  104  105 1    
   206  104  225 1    
   207  105  106 1    
   208  105  107 1    
   209  105  226 1    
   210  106  227 1    
   211  106  228 1    
   212  106  229 1    
   213  107  108 2    
   214  107  109 am   BACKBONE|DICT|INTERRES
   215  109  110 1    
   216  109  230 1    
   217  110  111 1    
   218  110  112 1    
   219  110  231 1    
   220  111  232 1    
   221  111  233 1    
   222  111  234 1    
   223  112  113 2    
   224  112  114 am   BACKBONE|DICT|INTERRES
   225  114  115 1    
   226  114  235 1    
   227  115  116 1    
   228  115  117 1    
   229  115  236 1    
   230  116  237 1    
   231  116  238 1    
   232  116  239 1    
   233  117  118 2    
   234  117  119 am   BACKBONE|DICT|INTERRES
   235  119  120 1    
   236  119  240 1    
   237  120  121 1    
   238  120  124 1    
   239  120  241 1    
   240  121  122 am   BACKBONE|DICT|INTERRES
   241  121  123 2    
   242  122  242 1    
   243  122  243 1    
   244  124  125 1    
   245  124  244 1    
   246  124  245 1    
   247  125  126 1    
   248  126  246 1    
   249  126  247 1    
@<TRIPOS>SUBSTRUCTURE
     1 UNK         1 GROUP             0       ****    0 ROOT    
