@<TRIPOS>MOLECULE
3R540
247   249    1
SMALL
USER_CHARGES


@<TRIPOS>ATOM
      1 CA          2.1612  -16.2832  -47.7074 C.3       0 UNK        -0.1800 
      2 C           0.7079  -16.2863  -48.1599 C.2       0 UNK         0.5000 
      3 O           0.0315  -17.3007  -48.0160 O.2       0 UNK        -0.5000 
      4 N           0.2380  -15.1612  -48.7124 N.am      1 UNK        -0.5000 
      5 CA         -1.1314  -14.9784  -49.2190 C.3       1 UNK         0.1400 
      6 C6         -1.1515  -14.8423  -50.7662 C.3       23 UNK        -0.0398 
      7 S7         -1.2709  -16.4765  -51.5624 S.3       23 UNK        -0.2404 
      8 C8          0.4680  -16.9370  -51.8432 C.3       23 UNK        -0.0205 
      9 C9          0.6461  -18.4488  -51.7787 C.ar      23 UNK        -0.0193 
     10 C10        -0.0185  -19.2721  -52.6904 C.ar      23 UNK        -0.1150 
     11 C11         0.1011  -20.6603  -52.6228 C.ar      23 UNK        -0.0193 
     12 C12         0.9081  -21.2309  -51.6342 C.ar      23 UNK        -0.1150 
     13 C13         1.5967  -20.4236  -50.7214 C.ar      23 UNK        -0.0193 
     14 C14         1.4636  -19.0319  -50.8050 C.ar      23 UNK        -0.1150 
     15 C15         2.4946  -21.0727  -49.6682 C.3       23 UNK        -0.0205 
     16 S16         2.3179  -20.3797  -47.9867 S.3       23 UNK        -0.2404 
     17 C17         0.5522  -20.6728  -47.6478 C.3       23 UNK        -0.0398 
     18 CA          0.2826  -21.9664  -46.8474 C.3       11 UNK         0.1400 
     19 N           0.9367  -21.9796  -45.5342 N.am      11 UNK        -0.5000 
     20 C           0.9128  -22.9961  -44.6595 C.2       10 UNK         0.5000 
     21 O           0.3545  -24.0693  -44.8939 O.2       10 UNK        -0.5000 
     22 CA          1.5406  -22.7563  -43.2713 C.3       10 UNK         0.1400 
     23 CB          2.2435  -24.0115  -42.7158 C.3       10 UNK        -0.1800 
     24 N           2.4083  -21.5760  -43.2046 N.am      10 UNK        -0.5000 
     25 C           3.5938  -21.3835  -43.8016 C.2       9 UNK         0.5000 
     26 O           4.1596  -22.2274  -44.4966 O.2       9 UNK        -0.5000 
     27 CA          4.2508  -20.0017  -43.6136 C.3       9 UNK         0.1400 
     28 CB          4.2493  -19.2257  -44.9407 C.3       9 UNK        -0.1800 
     29 N           3.5896  -19.1867  -42.5908 N.am      9 UNK        -0.5000 
     30 C           3.7847  -19.3076  -41.2715 C.2       8 UNK         0.5000 
     31 O           4.5694  -20.1121  -40.7678 O.2       8 UNK        -0.5000 
     32 CA          2.9492  -18.3880  -40.3610 C.3       8 UNK         0.1400 
     33 CB          3.5471  -16.9733  -40.3250 C.3       8 UNK        -0.1800 
     34 N           1.5363  -18.3096  -40.7418 N.am      8 UNK        -0.5000 
     35 C           0.6698  -19.3325  -40.6907 C.2       7 UNK         0.5000 
     36 O           0.9797  -20.4771  -40.3613 O.2       7 UNK        -0.5000 
     37 CA         -0.7838  -19.0327  -41.0986 C.3       7 UNK         0.1400 
     38 CB         -1.5275  -18.2708  -39.9911 C.3       7 UNK        -0.1800 
     39 N          -0.8437  -18.2702  -42.3412 N.am      7 UNK        -0.5000 
     40 C          -0.6005  -18.7890  -43.5514 C.2       6 UNK         0.5000 
     41 O          -0.4092  -19.9872  -43.7594 O.2       6 UNK        -0.5000 
     42 CA         -0.5375  -17.8030  -44.7277 C.3       6 UNK         0.1400 
     43 CB         -1.9300  -17.6246  -45.3505 C.3       6 UNK        -0.1800 
     44 N          -0.0012  -16.4973  -44.3509 N.am      6 UNK        -0.5000 
     45 C           1.2427  -16.2721  -43.9102 C.2       5 UNK         0.5000 
     46 O           2.0891  -17.1512  -43.7700 O.2       5 UNK        -0.5000 
     47 CA          1.5852  -14.8274  -43.5171 C.3       5 UNK         0.1400 
     48 CB          1.9427  -13.9961  -44.7580 C.3       5 UNK        -0.1800 
     49 N           0.4983  -14.1819  -42.7813 N.am      5 UNK        -0.5000 
     50 C           0.0900  -14.5461  -41.5576 C.2       4 UNK         0.5000 
     51 O           0.5843  -15.4768  -40.9202 O.2       4 UNK        -0.5000 
     52 CA         -1.0873  -13.7531  -40.9631 C.3       4 UNK         0.1400 
     53 CB         -0.5962  -12.4365  -40.3430 C.3       4 UNK        -0.1800 
     54 N          -2.1221  -13.4667  -41.9582 N.am      4 UNK        -0.5000 
     55 C          -2.9538  -14.3909  -42.4577 C.2       3 UNK         0.5000 
     56 O          -2.9532  -15.5724  -42.1092 O.2       3 UNK        -0.5000 
     57 CA         -3.9243  -13.9212  -43.5607 C.3       3 UNK         0.1400 
     58 CB         -5.1476  -13.2253  -42.9444 C.3       3 UNK        -0.1800 
     59 N          -3.3245  -13.0441  -44.5768 N.am      3 UNK        -0.5000 
     60 C          -2.2582  -13.3658  -45.3200 C.2       2 UNK         0.5000 
     61 O          -1.5786  -14.3740  -45.1277 O.2       2 UNK        -0.5000 
     62 CA         -1.8578  -12.4128  -46.4583 C.3       2 UNK         0.1400 
     63 CB         -0.8818  -11.3415  -45.9487 C.3       2 UNK        -0.1800 
     64 N          -1.2017  -13.2078  -47.4979 N.am      2 UNK        -0.5000 
     65 C          -1.8529  -13.8155  -48.4994 C.2       1 UNK         0.5000 
     66 O          -3.0028  -13.5192  -48.8271 O.2       1 UNK        -0.5000 
     67 C          -1.2378  -22.1922  -46.7443 C.2       11 UNK         0.5000 
     68 O          -1.8069  -22.8092  -47.6395 O.2       11 UNK        -0.5000 
     69 N          -1.8576  -21.7294  -45.6481 N.am      12 UNK        -0.5000 
     70 CA         -3.2753  -21.9341  -45.3423 C.3       12 UNK         0.1400 
     71 CB         -3.6477  -21.0810  -44.1187 C.3       12 UNK        -0.1800 
     72 C          -3.6568  -23.4100  -45.0983 C.2       12 UNK         0.5000 
     73 O          -4.8315  -23.7540  -45.2339 O.2       12 UNK        -0.5000 
     74 N          -2.6752  -24.2452  -44.7307 N.am      13 UNK        -0.5000 
     75 CA         -2.8351  -25.6856  -44.5452 C.3       13 UNK         0.1400 
     76 CB         -2.0885  -26.1158  -43.2720 C.3       13 UNK        -0.1800 
     77 C          -2.3128  -26.4603  -45.7663 C.2       13 UNK         0.5000 
     78 O          -2.9555  -27.4189  -46.1960 O.2       13 UNK        -0.5000 
     79 N          -1.1527  -26.0451  -46.2941 N.am      14 UNK        -0.5000 
     80 CA         -0.4586  -26.7037  -47.4012 C.3       14 UNK         0.1400 
     81 CB          0.9964  -26.2106  -47.4372 C.3       14 UNK        -0.1800 
     82 C          -1.1261  -26.4999  -48.7744 C.2       14 UNK         0.5000 
     83 O          -0.9659  -27.3523  -49.6495 O.2       14 UNK        -0.5000 
     84 N          -1.8402  -25.3839  -48.9520 N.am      15 UNK        -0.5000 
     85 CA         -2.4967  -24.9857  -50.1924 C.3       15 UNK         0.1400 
     86 CB         -1.4967  -24.1984  -51.0629 C.3       15 UNK        -0.1800 
     87 C          -3.7790  -24.1938  -49.8711 C.2       15 UNK         0.5000 
     88 O          -4.3148  -24.3137  -48.7667 O.2       15 UNK        -0.5000 
     89 N          -4.2735  -23.4230  -50.8488 N.am      16 UNK        -0.5000 
     90 CA         -5.4496  -22.5652  -50.6976 C.3       16 UNK         0.1400 
     91 CB         -6.0899  -22.3231  -52.0751 C.3       16 UNK        -0.1800 
     92 C          -5.1021  -21.2288  -50.0180 C.2       16 UNK         0.5000 
     93 O          -5.8282  -20.7984  -49.1223 O.2       16 UNK        -0.5000 
     94 N          -4.0129  -20.5935  -50.4812 N.am      17 UNK        -0.5000 
     95 CA         -3.4833  -19.2895  -50.0530 C.3       17 UNK         0.1400 
     96 CB         -2.9814  -19.3559  -48.5987 C.3       17 UNK        -0.1800 
     97 C          -4.4410  -18.0970  -50.2847 C.2       17 UNK         0.5000 
     98 O          -4.2683  -17.0440  -49.6696 O.2       17 UNK        -0.5000 
     99 N          -5.4321  -18.2708  -51.1699 N.am      18 UNK        -0.5000 
    100 CA        -6.3947  -17.2355  -51.5540 C.3       18 UNK         0.1400 
    101 CB        -7.6667  -17.9164  -52.0827 C.3       18 UNK        -0.1800 
    102 C         -5.8226  -16.2698  -52.6091 C.2       18 UNK         0.5000 
    103 O         -6.2473  -15.1160  -52.6797 O.2       18 UNK        -0.5000 
    104 N         -4.8732  -16.7665  -53.4055 N.am      19 UNK        -0.5000 
    105 CA        -4.1443  -16.0847  -54.4645 C.3       19 UNK         0.1400 
    106 CB        -5.0482  -15.8900  -55.6968 C.3       19 UNK        -0.1800 
    107 C         -2.9324  -16.9626  -54.8048 C.2       19 UNK         0.5000 
    108 O         -2.9029  -18.1305  -54.4083 O.2       19 UNK        -0.5000 
    109 N         -1.9673  -16.3993  -55.5446 N.am      20 UNK        -0.5000 
    110 CA        -0.7275  -17.0684  -55.9590 C.3       20 UNK         0.1400 
    111 CB         0.1520  -16.0694  -56.7254 C.3       20 UNK        -0.1800 
    112 C         -0.9532  -18.3440  -56.7965 C.2       20 UNK         0.5000 
    113 O         -0.1820  -19.2970  -56.6813 O.2       20 UNK        -0.5000 
    114 N         -2.0212  -18.3432  -57.6023 N.am      21 UNK        -0.5000 
    115 CA        -2.4985  -19.4893  -58.3661 C.3       21 UNK         0.1400 
    116 CB        -3.0785  -18.9848  -59.7001 C.3       21 UNK        -0.1800 
    117 C         -3.5314  -20.2652  -57.5285 C.2       21 UNK         0.5000 
    118 O         -4.7362  -20.1085  -57.7389 O.2       21 UNK        -0.5000 
    119 N         -3.0418  -21.0633  -56.5715 N.am      22 UNK        -0.5000 
    120 CA        -3.8518  -21.9775  -55.7488 C.3       22 UNK         0.1400 
    121 C         -4.5695  -23.0661  -56.5978 C.2       22 UNK         0.5000 
    122 N         -5.8127  -23.3962  -56.2752 N.am      22 UNK        -0.7600 
    123 O         -3.9917  -23.6452  -57.5154 O.2       22 UNK        -0.5000 
    124 C124       -3.0111  -22.6552  -54.6369 C.3       23 UNK        -0.0398 
    125 S125       -2.4341  -21.4842  -53.3634 S.3       23 UNK        -0.2404 
    126 C126       -0.6347  -21.5303  -53.6301 C.3       23 UNK        -0.0205 
    127 H127        2.2422  -16.6901  -46.6999 H         1 UNK         0.0600 
    128 H128        2.5842  -15.2787  -47.7053 H         1 UNK         0.0600 
    129 H129        2.7614  -16.9064  -48.3696 H         1 UNK         0.0600 
    130 H130        0.8581  -14.3733  -48.8381 H         1 UNK         0.3000 
    131 H131       -1.7395  -15.8448  -48.9482 H         1 UNK         0.0600 
    132 H132       -2.0214  -14.2799  -51.1097 H         1 UNK         0.0800 
    133 H133       -0.2806  -14.2996  -51.1363 H         1 UNK         0.0800 
    134 H134        1.1060  -16.4481  -51.1072 H         1 UNK         0.0800 
    135 H135        0.7848  -16.5709  -52.8203 H         1 UNK         0.0800 
    136 H136       -0.6576  -18.8358  -53.4417 H         1 UNK         0.1150 
    137 H137        1.0066  -22.3060  -51.5811 H         1 UNK         0.1150 
    138 H138        1.9876  -18.4038  -50.0999 H         1 UNK         0.1150 
    139 H139        2.3065  -22.1462  -49.6147 H         1 UNK         0.0800 
    140 H140        3.5324  -20.9586  -49.9828 H         1 UNK         0.0800 
    141 H141        0.0118  -20.6899  -48.5951 H         1 UNK         0.0800 
    142 H142        0.1664  -19.8080  -47.1095 H         1 UNK         0.0800 
    143 H143        0.6908  -22.8030  -47.4169 H         1 UNK         0.0600 
    144 H144        1.3799  -21.1205  -45.2451 H         1 UNK         0.3000 
    145 H145        0.7028  -22.5354  -42.6083 H         1 UNK         0.0600 
    146 H146        2.6744  -23.8196  -41.7332 H         1 UNK         0.0600 
    147 H147        1.5384  -24.8361  -42.6040 H         1 UNK         0.0600 
    148 H148        3.0418  -24.3560  -43.3733 H         1 UNK         0.0600 
    149 H149        2.0407  -20.8096  -42.6574 H         1 UNK         0.3000 
    150 H150        5.2887  -20.1679  -43.3179 H         1 UNK         0.0600 
    151 H151        4.7871  -19.7719  -45.7167 H         1 UNK         0.0600 
    152 H152        4.7324  -18.2546  -44.8320 H         1 UNK         0.0600 
    153 H153        3.2356  -19.0551  -45.3052 H         1 UNK         0.0600 
    154 H154        2.9525  -18.4676  -42.9335 H         1 UNK         0.3000 
    155 H155        2.9951  -18.7975  -39.3497 H         1 UNK         0.0600 
    156 H156        4.5938  -16.9980  -40.0195 H         1 UNK         0.0600 
    157 H157        3.0159  -16.3389  -39.6152 H         1 UNK         0.0600 
    158 H158        3.5007  -16.4924  -41.3024 H         1 UNK         0.0600 
    159 H159        1.1917  -17.3902  -40.9999 H         1 UNK         0.3000 
    160 H160       -1.2947  -19.9861  -41.2516 H         1 UNK         0.0600 
    161 H161       -1.0766  -17.2984  -39.7921 H         1 UNK         0.0600 
    162 H162       -1.5192  -18.8343  -39.0574 H         1 UNK         0.0600 
    163 H163       -2.5702  -18.1038  -40.2622 H         1 UNK         0.0600 
    164 H164       -1.0115  -17.2762  -42.2643 H         1 UNK         0.3000 
    165 H165        0.1326  -18.2244  -45.4772 H         1 UNK         0.0600 
    166 H166       -1.9045  -16.9268  -46.1874 H         1 UNK         0.0600 
    167 H167       -2.3071  -18.5720  -45.7354 H         1 UNK         0.0600 
    168 H168       -2.6508  -17.2454  -44.6250 H         1 UNK         0.0600 
    169 H169       -0.6228  -15.7003  -44.4856 H         1 UNK         0.3000 
    170 H170        2.4605  -14.8553  -42.8651 H         1 UNK         0.0600 
    171 H171        2.8125  -14.4153  -45.2650 H         1 UNK         0.0600 
    172 H172        1.1253  -13.9717  -45.4781 H         1 UNK         0.0600 
    173 H173        2.1889  -12.9687  -44.4896 H         1 UNK         0.0600 
    174 H174       -0.0041  -13.4501  -43.2598 H         1 UNK         0.3000 
    175 H175       -1.5285  -14.3585  -40.1681 H         1 UNK         0.0600 
    176 H176        0.1674  -12.6232  -39.5866 H         1 UNK         0.0600 
    177 H177       -0.1616  -11.7729  -41.0916 H         1 UNK         0.0600 
    178 H178       -1.4119  -11.9031  -39.8546 H         1 UNK         0.0600 
    179 H179       -2.1863  -12.5197  -42.3014 H         1 UNK         0.3000 
    180 H180       -4.2739  -14.8169  -44.0786 H         1 UNK         0.0600 
    181 H181       -4.8752  -12.2893  -42.4553 H         1 UNK         0.0600 
    182 H182       -5.6233  -13.8607  -42.1960 H         1 UNK         0.0600 
    183 H183       -5.8985  -13.0022  -43.7025 H         1 UNK         0.0600 
    184 H184       -3.8204  -12.1876  -44.7776 H         1 UNK         0.3000 
    185 H185       -2.7502  -11.9225  -46.8527 H         1 UNK         0.0600 
    186 H186       -1.3491  -10.7197  -45.1841 H         1 UNK         0.0600 
    187 H187        0.0149  -11.7803  -45.5112 H         1 UNK         0.0600 
    188 H188       -0.5690  -10.6804  -46.7571 H         1 UNK         0.0600 
    189 H189       -0.3010  -13.5845  -47.2452 H         1 UNK         0.3000 
    190 H190       -1.3104  -21.2254  -44.9553 H         1 UNK         0.3000 
    191 H191       -3.8573  -21.5849  -46.1981 H         1 UNK         0.0600 
    192 H192       -3.0483  -21.3466  -43.2470 H         1 UNK         0.0600 
    193 H193       -4.6963  -21.2161  -43.8504 H         1 UNK         0.0600 
    194 H194       -3.5021  -20.0196  -44.3136 H         1 UNK         0.0600 
    195 H195       -1.7303  -23.8877  -44.6696 H         1 UNK         0.3000 
    196 H196       -3.8893  -25.9386  -44.4145 H         1 UNK         0.0600 
    197 H197       -2.1944  -27.1880  -43.1017 H         1 UNK         0.0600 
    198 H198       -2.4853  -25.6066  -42.3936 H         1 UNK         0.0600 
    199 H199       -1.0218  -25.8968  -43.3313 H         1 UNK         0.0600 
    200 H200       -0.6568  -25.2776  -45.8479 H         1 UNK         0.3000 
    201 H201       -0.4451  -27.7770  -47.2003 H         1 UNK         0.0600 
    202 H202        1.5023  -26.4020  -46.4905 H         1 UNK         0.0600 
    203 H203        1.0526  -25.1404  -47.6355 H         1 UNK         0.0600 
    204 H204        1.5631  -26.7194  -48.2180 H         1 UNK         0.0600 
    205 H205       -1.9535  -24.7239  -48.1875 H         1 UNK         0.3000 
    206 H206       -2.8103  -25.8796  -50.7352 H         1 UNK         0.0600 
    207 H207       -0.5449  -24.7223  -51.1513 H         1 UNK         0.0600 
    208 H208       -1.8756  -24.0698  -52.0756 H         1 UNK         0.0600 
    209 H209       -1.2939  -23.2103  -50.6467 H         1 UNK         0.0600 
    210 H210       -3.7796  -23.3734  -51.7267 H         1 UNK         0.3000 
    211 H211       -6.1869  -23.0771  -50.0750 H         1 UNK         0.0600 
    212 H212       -6.9921  -21.7170  -51.9824 H         1 UNK         0.0600 
    213 H213       -6.3789  -23.2635  -52.5447 H         1 UNK         0.0600 
    214 H214       -5.4159  -21.8024  -52.7551 H         1 UNK         0.0600 
    215 H215       -3.4939  -21.0326  -51.2303 H         1 UNK         0.3000 
    216 H216       -2.6154  -19.1023  -50.6873 H         1 UNK         0.0600 
    217 H217       -2.4316  -18.4525  -48.3332 H         1 UNK         0.0600 
    218 H218       -2.3047  -20.1952  -48.4651 H         1 UNK         0.0600 
    219 H219       -3.8001  -19.4654  -47.8873 H         1 UNK         0.0600 
    220 H220       -5.5177  -19.1680  -51.6223 H         1 UNK         0.3000 
    221 H221       -6.6623  -16.6496  -50.6721 H         1 UNK         0.0600 
    222 H222       -7.4634  -18.5202  -52.9681 H         1 UNK         0.0600 
    223 H223       -8.1088  -18.5663  -51.3271 H         1 UNK         0.0600 
    224 H224       -8.4203  -17.1765  -52.3558 H         1 UNK         0.0600 
    225 H225       -4.5406  -17.7114  -53.2529 H         1 UNK         0.3000 
    226 H226       -3.7910  -15.1202  -54.0947 H         1 UNK         0.0600 
    227 H227       -5.9183  -15.2775  -55.4610 H         1 UNK         0.0600 
    228 H228       -4.5126  -15.3882  -56.5032 H         1 UNK         0.0600 
    229 H229       -5.4069  -16.8448  -56.0841 H         1 UNK         0.0600 
    230 H230       -2.0715  -15.4367  -55.8312 H         1 UNK         0.3000 
    231 H231       -0.1896  -17.3585  -55.0562 H         1 UNK         0.0600 
    232 H232        0.4004  -15.2066  -56.1070 H         1 UNK         0.0600 
    233 H233       -0.3423  -15.7067  -57.6275 H         1 UNK         0.0600 
    234 H234        1.0928  -16.5306  -57.0293 H         1 UNK         0.0600 
    235 H235       -2.6190  -17.5301  -57.5962 H         1 UNK         0.3000 
    236 H236       -1.6714  -20.1640  -58.5978 H         1 UNK         0.0600 
    237 H237       -3.4663  -19.8132  -60.2942 H         1 UNK         0.0600 
    238 H238       -3.8950  -18.2776  -59.5480 H         1 UNK         0.0600 
    239 H239       -2.3138  -18.4874  -60.2969 H         1 UNK         0.0600 
    240 H240       -2.0427  -21.0959  -56.4305 H         1 UNK         0.3000 
    241 H241       -4.6218  -21.3706  -55.2677 H         1 UNK         0.0600 
    242 H242       -6.2814  -24.1119  -56.8091 H         1 UNK         0.3800 
    243 H243       -6.3093  -22.9343  -55.5296 H         1 UNK         0.3800 
    244 H244       -3.6054  -23.4109  -54.1202 H         1 UNK         0.0800 
    245 H245       -2.1638  -23.1895  -55.0701 H         1 UNK         0.0800 
    246 H246       -0.2849  -22.5620  -53.5699 H         1 UNK         0.0800 
    247 H247       -0.4086  -21.1813  -54.6384 H         1 UNK         0.0800 
@<TRIPOS>BOND
     1    1    2 1    
     2    1  127 1    
     3    1  128 1    
     4    1  129 1    
     5    2    3 2    
     6    2    4 am   BACKBONE|DICT|INTERRES
     7    4    5 1    
     8    4  130 1    
     9    5    6 1    
    10    5   65 1    
    11    5  131 1    
    12    6    7 1    
    13    6  132 1    
    14    6  133 1    
    15    7    8 1    
    16    8    9 1    
    17    8  134 1    
    18    8  135 1    
    19    9   10 ar   
    20    9   14 ar   
    21   10   11 ar   
    22   10  136 1    
    23   11   12 ar   
    24   11  126 1    
    25   12   13 ar   
    26   12  137 1    
    27   13   14 ar   
    28   13   15 1    
    29   14  138 1    
    30   15   16 1    
    31   15  139 1    
    32   15  140 1    
    33   16   17 1    
    34   17   18 1    
    35   17  141 1    
    36   17  142 1    
    37   18   19 1    
    38   18   67 1    
    39   18  143 1    
    40   19   20 am   BACKBONE|DICT|INTERRES
    41   19  144 1    
    42   20   21 2    
    43   20   22 1    
    44   22   23 1    
    45   22   24 1    
    46   22  145 1    
    47   23  146 1    
    48   23  147 1    
    49   23  148 1    
    50   24   25 am   BACKBONE|DICT|INTERRES
    51   24  149 1    
    52   25   26 2    
    53   25   27 1    
    54   27   28 1    
    55   27   29 1    
    56   27  150 1    
    57   28  151 1    
    58   28  152 1    
    59   28  153 1    
    60   29   30 am   BACKBONE|DICT|INTERRES
    61   29  154 1    
    62   30   31 2    
    63   30   32 1    
    64   32   33 1    
    65   32   34 1    
    66   32  155 1    
    67   33  156 1    
    68   33  157 1    
    69   33  158 1    
    70   34   35 am   BACKBONE|DICT|INTERRES
    71   34  159 1    
    72   35   36 2    
    73   35   37 1    
    74   37   38 1    
    75   37   39 1    
    76   37  160 1    
    77   38  161 1    
    78   38  162 1    
    79   38  163 1    
    80   39   40 am   BACKBONE|DICT|INTERRES
    81   39  164 1    
    82   40   41 2    
    83   40   42 1    
    84   42   43 1    
    85   42   44 1    
    86   42  165 1    
    87   43  166 1    
    88   43  167 1    
    89   43  168 1    
    90   44   45 am   BACKBONE|DICT|INTERRES
    91   44  169 1    
    92   45   46 2    
    93   45   47 1    
    94   47   48 1    
    95   47   49 1    
    96   47  170 1    
    97   48  171 1    
    98   48  172 1    
    99   48  173 1    
   100   49   50 am   BACKBONE|DICT|INTERRES
   101   49  174 1    
   102   50   51 2    
   103   50   52 1    
   104   52   53 1    
   105   52   54 1    
   106   52  175 1    
   107   53  176 1    
   108   53  177 1    
   109   53  178 1    
   110   54   55 am   BACKBONE|DICT|INTERRES
   111   54  179 1    
   112   55   56 2    
   113   55   57 1    
   114   57   58 1    
   115   57   59 1    
   116   57  180 1    
   117   58  181 1    
   118   58  182 1    
   119   58  183 1    
   120   59   60 am   BACKBONE|DICT|INTERRES
   121   59  184 1    
   122   60   61 2    
   123   60   62 1    
   124   62   63 1    
   125   62   64 1    
   126   62  185 1    
   127   63  186 1    
   128   63  187 1    
   129   63  188 1    
   130   64   65 am   BACKBONE|DICT|INTERRES
   131   64  189 1    
   132   65   66 2    
   133   67   68 2    
   134   67   69 am   BACKBONE|DICT|INTERRES
   135   69   70 1    
   136   69  190 1    
   137   70   71 1    
   138   70   72 1    
   139   70  191 1    
   140   71  192 1    
   141   71  193 1    
   142   71  194 1    
   143   72   73 2    
   144   72   74 am   BACKBONE|DICT|INTERRES
   145   74   75 1    
   146   74  195 1    
   147   75   76 1    
   148   75   77 1    
   149   75  196 1    
   150   76  197 1    
   151   76  198 1    
   152   76  199 1    
   153   77   78 2    
   154   77   79 am   BACKBONE|DICT|INTERRES
   155   79   80 1    
   156   79  200 1    
   157   80   81 1    
   158   80   82 1    
   159   80  201 1    
   160   81  202 1    
   161   81  203 1    
   162   81  204 1    
   163   82   83 2    
   164   82   84 am   BACKBONE|DICT|INTERRES
   165   84   85 1    
   166   84  205 1    
   167   85   86 1    
   168   85   87 1    
   169   85  206 1    
   170   86  207 1    
   171   86  208 1    
   172   86  209 1    
   173   87   88 2    
   174   87   89 am   BACKBONE|DICT|INTERRES
   175   89   90 1    
   176   89  210 1    
   177   90   91 1    
   178   90   92 1    
   179   90  211 1    
   180   91  212 1    
   181   91  213 1    
   182   91  214 1    
   183   92   93 2    
   184   92   94 am   BACKBONE|DICT|INTERRES
   185   94   95 1    
   186   94  215 1    
   187   95   96 1    
   188   95   97 1    
   189   95  216 1    
   190   96  217 1    
   191   96  218 1    
   192   96  219 1    
   193   97   98 2    
   194   97   99 am   BACKBONE|DICT|INTERRES
   195   99  100 1    
   196   99  220 1    
   197  100  101 1    
   198  100  102 1    
   199  100  221 1    
   200  101  222 1    
   201  101  223 1    
   202  101  224 1    
   203  102  103 2    
   204  102  104 am   BACKBONE|DICT|INTERRES
   205  104  105 1    
   206  104  225 1    
   207  105  106 1    
   208  105  107 1    
   209  105  226 1    
   210  106  227 1    
   211  106  228 1    
   212  106  229 1    
   213  107  108 2    
   214  107  109 am   BACKBONE|DICT|INTERRES
   215  109  110 1    
   216  109  230 1    
   217  110  111 1    
   218  110  112 1    
   219  110  231 1    
   220  111  232 1    
   221  111  233 1    
   222  111  234 1    
   223  112  113 2    
   224  112  114 am   BACKBONE|DICT|INTERRES
   225  114  115 1    
   226  114  235 1    
   227  115  116 1    
   228  115  117 1    
   229  115  236 1    
   230  116  237 1    
   231  116  238 1    
   232  116  239 1    
   233  117  118 2    
   234  117  119 am   BACKBONE|DICT|INTERRES
   235  119  120 1    
   236  119  240 1    
   237  120  121 1    
   238  120  124 1    
   239  120  241 1    
   240  121  122 am   BACKBONE|DICT|INTERRES
   241  121  123 2    
   242  122  242 1    
   243  122  243 1    
   244  124  125 1    
   245  124  244 1    
   246  124  245 1    
   247  125  126 1    
   248  126  246 1    
   249  126  247 1    
@<TRIPOS>SUBSTRUCTURE
     1 UNK         1 GROUP             0       ****    0 ROOT    
