@<TRIPOS>MOLECULE
3R540
247   249    1
SMALL
USER_CHARGES


@<TRIPOS>ATOM
      1 CA          1.7349  -13.5657  -53.8990 C.3       0 UNK        -0.1800 
      2 C           1.6375  -12.9926  -52.4921 C.2       0 UNK         0.5000 
      3 O           1.4993  -11.7795  -52.3325 O.2       0 UNK        -0.5000 
      4 N           1.7262  -13.8570  -51.4758 N.am      1 UNK        -0.5000 
      5 CA          1.6142  -13.5026  -50.0591 C.3       1 UNK         0.1400 
      6 C6          2.3785  -14.5072  -49.1575 C.3       23 UNK        -0.0398 
      7 S7          1.8565  -16.2505  -49.3270 S.3       23 UNK        -0.2404 
      8 C8          3.2475  -16.9279  -50.2815 C.3       23 UNK        -0.0205 
      9 C9          3.0489  -18.4048  -50.5759 C.ar      23 UNK        -0.0193 
     10 C10         2.3212  -18.8081  -51.6986 C.ar      23 UNK        -0.1150 
     11 C11         2.1583  -20.1660  -51.9880 C.ar      23 UNK        -0.0193 
     12 C12         2.7135  -21.1238  -51.1346 C.ar      23 UNK        -0.1150 
     13 C13         3.4369  -20.7326  -50.0032 C.ar      23 UNK        -0.0193 
     14 C14         3.6085  -19.3706  -49.7357 C.ar      23 UNK        -0.1150 
     15 C15         4.0426  -21.7827  -49.0798 C.3       23 UNK        -0.0205 
     16 S16         3.5062  -21.5872  -47.3493 S.3       23 UNK        -0.2404 
     17 C17         1.6995  -21.7914  -47.4932 C.3       23 UNK        -0.0398 
     18 CA          1.1608  -22.9190  -46.5851 C.3       11 UNK         0.1400 
     19 N           1.4342  -22.6705  -45.1693 N.am      11 UNK        -0.5000 
     20 C           1.3356  -23.5697  -44.1835 C.2       10 UNK         0.5000 
     21 O           1.0298  -24.7471  -44.3744 O.2       10 UNK        -0.5000 
     22 CA          1.5660  -23.0542  -42.7464 C.3       10 UNK         0.1400 
     23 CB          2.2189  -24.1095  -41.8304 C.3       10 UNK        -0.1800 
     24 N           2.2813  -21.7730  -42.6867 N.am      10 UNK        -0.5000 
     25 C           3.5514  -21.5165  -43.0385 C.2       9 UNK         0.5000 
     26 O           4.3438  -22.3781  -43.4200 O.2       9 UNK        -0.5000 
     27 CA          4.0179  -20.0457  -42.9815 C.3       9 UNK         0.1400 
     28 CB          4.2491  -19.5027  -44.4003 C.3       9 UNK        -0.1800 
     29 N           3.0784  -19.1577  -42.2946 N.am      9 UNK        -0.5000 
     30 C           2.9102  -19.0908  -40.9678 C.2       8 UNK         0.5000 
     31 O           3.5792  -19.7353  -40.1595 O.2       8 UNK        -0.5000 
     32 CA          1.7740  -18.1801  -40.4638 C.3       8 UNK         0.1400 
     33 CB          2.2609  -16.7296  -40.3296 C.3       8 UNK        -0.1800 
     34 N           0.5793  -18.2214  -41.3139 N.am      8 UNK        -0.5000 
     35 C          -0.1724  -19.3133  -41.5183 C.2       7 UNK         0.5000 
     36 O           0.0607  -20.4080  -41.0065 O.2       7 UNK        -0.5000 
     37 CA         -1.3563  -19.1799  -42.4901 C.3       7 UNK         0.1400 
     38 CB         -2.5474  -18.4782  -41.8220 C.3       7 UNK        -0.1800 
     39 N          -0.9901  -18.4808  -43.7206 N.am      7 UNK        -0.5000 
     40 C          -0.1658  -18.9728  -44.6558 C.2       6 UNK         0.5000 
     41 O           0.2975  -20.1127  -44.6224 O.2       6 UNK        -0.5000 
     42 CA          0.2264  -18.0333  -45.8111 C.3       6 UNK         0.1400 
     43 CB         -0.8244  -18.0861  -46.9304 C.3       6 UNK        -0.1800 
     44 N           0.4174  -16.6496  -45.3733 N.am      6 UNK        -0.5000 
     45 C           1.3480  -16.2515  -44.4938 C.2       5 UNK         0.5000 
     46 O           2.1801  -17.0047  -43.9906 O.2       5 UNK        -0.5000 
     47 CA          1.3013  -14.7799  -44.0502 C.3       5 UNK         0.1400 
     48 CB          1.9693  -13.8590  -45.0811 C.3       5 UNK        -0.1800 
     49 N          -0.0672  -14.3309  -43.8004 N.am      5 UNK        -0.5000 
     50 C          -0.8171  -14.7332  -42.7653 C.2       4 UNK         0.5000 
     51 O          -0.4188  -15.5018  -41.8906 O.2       4 UNK        -0.5000 
     52 CA         -2.2686  -14.2209  -42.7261 C.3       4 UNK         0.1400 
     53 CB         -2.3322  -12.8187  -42.1027 C.3       4 UNK        -0.1800 
     54 N          -2.8882  -14.1917  -44.0522 N.am      4 UNK        -0.5000 
     55 C          -3.1681  -15.2846  -44.7761 C.2       3 UNK         0.5000 
     56 O          -2.9704  -16.4329  -44.3827 O.2       3 UNK        -0.5000 
     57 CA         -3.7090  -15.0559  -46.1992 C.3       3 UNK         0.1400 
     58 CB         -5.2371  -14.9067  -46.1835 C.3       3 UNK        -0.1800 
     59 N          -3.1108  -13.9015  -46.8796 N.am      3 UNK        -0.5000 
     60 C          -1.8050  -13.7750  -47.1509 C.2       2 UNK         0.5000 
     61 O          -0.9592  -14.6066  -46.8157 O.2       2 UNK        -0.5000 
     62 CA         -1.3687  -12.4774  -47.8554 C.3       2 UNK         0.1400 
     63 CB         -1.2660  -11.3328  -46.8345 C.3       2 UNK        -0.1800 
     64 N          -0.0702  -12.6312  -48.5120 N.am      2 UNK        -0.5000 
     65 C           0.1387  -13.3331  -49.6334 C.2       1 UNK         0.5000 
     66 O          -0.7678  -13.8294  -50.3073 O.2       1 UNK        -0.5000 
     67 C          -0.3471  -23.1048  -46.8223 C.2       11 UNK         0.5000 
     68 O          -0.7344  -23.9543  -47.6228 O.2       11 UNK        -0.5000 
     69 N          -1.1730  -22.3457  -46.0862 N.am      12 UNK        -0.5000 
     70 CA         -2.6380  -22.3738  -46.1533 C.3       12 UNK         0.1400 
     71 CB         -3.1965  -21.2153  -45.3129 C.3       12 UNK        -0.1800 
     72 C          -3.2753  -23.7120  -45.7202 C.2       12 UNK         0.5000 
     73 O          -4.4535  -23.9318  -45.9971 O.2       12 UNK        -0.5000 
     74 N          -2.5007  -24.5795  -45.0538 N.am      13 UNK        -0.5000 
     75 CA         -2.8981  -25.9447  -44.7121 C.3       13 UNK         0.1400 
     76 CB         -2.0459  -26.4300  -43.5292 C.3       13 UNK        -0.1800 
     77 C          -2.7686  -26.9159  -45.9038 C.2       13 UNK         0.5000 
     78 O          -3.4578  -27.9367  -45.9191 O.2       13 UNK        -0.5000 
     79 N          -1.8888  -26.5982  -46.8640 N.am      14 UNK        -0.5000 
     80 CA         -1.6254  -27.4014  -48.0582 C.3       14 UNK         0.1400 
     81 CB         -0.1061  -27.4907  -48.2761 C.3       14 UNK        -0.1800 
     82 C          -2.3142  -26.8031  -49.2954 C.2       14 UNK         0.5000 
     83 O          -2.9096  -27.5438  -50.0794 O.2       14 UNK        -0.5000 
     84 N          -2.2210  -25.4765  -49.4486 N.am      15 UNK        -0.5000 
     85 CA         -2.8619  -24.6996  -50.5063 C.3       15 UNK         0.1400 
     86 CB         -2.1779  -23.3232  -50.5773 C.3       15 UNK        -0.1800 
     87 C          -4.3740  -24.5342  -50.2654 C.2       15 UNK         0.5000 
     88 O          -4.8627  -24.7776  -49.1604 O.2       15 UNK        -0.5000 
     89 N          -5.0861  -24.0746  -51.3029 N.am      16 UNK        -0.5000 
     90 CA         -6.5110  -23.7333  -51.2380 C.3       16 UNK         0.1400 
     91 CB         -7.0411  -23.5232  -52.6653 C.3       16 UNK        -0.1800 
     92 C          -6.7983  -22.4875  -50.3746 C.2       16 UNK         0.5000 
     93 O          -7.8986  -22.3684  -49.8356 O.2       16 UNK        -0.5000 
     94 N          -5.8070  -21.5852  -50.2784 N.am      17 UNK        -0.5000 
     95 CA         -5.8066  -20.3270  -49.5186 C.3       17 UNK         0.1400 
     96 CB         -5.9222  -20.6012  -48.0055 C.3       17 UNK        -0.1800 
     97 C          -6.8394  -19.2896  -50.0136 C.2       17 UNK         0.5000 
     98 O          -7.1716  -18.3554  -49.2830 O.2       17 UNK        -0.5000 
     99 N          -7.3043  -19.4535  -51.2562 N.am      18 UNK        -0.5000 
    100 CA        -8.2509  -18.5861  -51.9409 C.3       18 UNK         0.1400 
    101 CB        -9.6884  -19.0049  -51.5765 C.3       18 UNK        -0.1800 
    102 C         -7.9679  -18.7020  -53.4513 C.2       18 UNK         0.5000 
    103 O         -8.5149  -19.6027  -54.0869 O.2       18 UNK        -0.5000 
    104 N         -7.1095  -17.8630  -54.0501 N.am      19 UNK        -0.5000 
    105 CA        -6.2772  -16.8189  -53.4462 C.3       19 UNK         0.1400 
    106 CB        -5.7333  -15.9276  -54.5743 C.3       19 UNK        -0.1800 
    107 C         -5.1013  -17.4029  -52.6429 C.2       19 UNK         0.5000 
    108 O         -4.6454  -18.5120  -52.9293 O.2       19 UNK        -0.5000 
    109 N         -4.5925  -16.6210  -51.6825 N.am      20 UNK        -0.5000 
    110 CA        -3.4220  -16.9576  -50.8612 C.3       20 UNK         0.1400 
    111 CB        -3.3213  -15.9529  -49.7080 C.3       20 UNK        -0.1800 
    112 C         -2.1009  -17.0292  -51.6571 C.2       20 UNK         0.5000 
    113 O         -1.1550  -17.6721  -51.2072 O.2       20 UNK        -0.5000 
    114 N         -2.0885  -16.4210  -52.8517 N.am      21 UNK        -0.5000 
    115 CA        -1.0364  -16.5358  -53.8619 C.3       21 UNK         0.1400 
    116 CB        -1.2172  -15.3897  -54.8701 C.3       21 UNK        -0.1800 
    117 C         -1.0195  -17.9003  -54.5903 C.2       21 UNK         0.5000 
    118 O         -0.1175  -18.1336  -55.3949 O.2       21 UNK        -0.5000 
    119 N         -2.0097  -18.7620  -54.3149 N.am      22 UNK        -0.5000 
    120 CA        -2.1875  -20.1258  -54.8460 C.3       22 UNK         0.1400 
    121 C         -2.7059  -20.1891  -56.3146 C.2       22 UNK         0.5000 
    122 N         -3.1256  -19.0853  -56.9211 N.am      22 UNK        -0.7600 
    123 O         -2.7581  -21.2622  -56.9097 O.2       22 UNK        -0.5000 
    124 C124       -0.9742  -21.0749  -54.6123 C.3       23 UNK        -0.0398 
    125 S125       -0.3128  -21.0403  -52.9069 S.3       23 UNK        -0.2404 
    126 C126        1.4184  -20.5928  -53.2448 C.3       23 UNK        -0.0205 
    127 H127        0.9105  -13.2020  -54.5118 H         1 UNK         0.0600 
    128 H128        1.7048  -14.6555  -53.8967 H         1 UNK         0.0600 
    129 H129        2.6684  -13.2522  -54.3659 H         1 UNK         0.0600 
    130 H130        1.7743  -14.8474  -51.6623 H         1 UNK         0.3000 
    131 H131        2.0920  -12.5300  -49.9216 H         1 UNK         0.0600 
    132 H132        3.4462  -14.4332  -49.3679 H         1 UNK         0.0800 
    133 H133        2.2809  -14.2299  -48.1086 H         1 UNK         0.0800 
    134 H134        4.1743  -16.7797  -49.7249 H         1 UNK         0.0800 
    135 H135        3.3579  -16.3765  -51.2161 H         1 UNK         0.0800 
    136 H136        1.8864  -18.0640  -52.3511 H         1 UNK         0.1150 
    137 H137        2.5847  -22.1736  -51.3580 H         1 UNK         0.1150 
    138 H138        4.1717  -19.0635  -48.8655 H         1 UNK         0.1150 
    139 H139        3.7920  -22.7904  -49.4151 H         1 UNK         0.0800 
    140 H140        5.1296  -21.7045  -49.1228 H         1 UNK         0.0800 
    141 H141        1.4407  -21.9955  -48.5338 H         1 UNK         0.0800 
    142 H142        1.2329  -20.8359  -47.2479 H         1 UNK         0.0800 
    143 H143        1.6543  -23.8517  -46.8674 H         1 UNK         0.0600 
    144 H144        1.6018  -21.7053  -44.9121 H         1 UNK         0.3000 
    145 H145        0.5714  -22.8514  -42.3471 H         1 UNK         0.0600 
    146 H146        2.3679  -23.7190  -40.8237 H         1 UNK         0.0600 
    147 H147        1.5877  -24.9946  -41.7436 H         1 UNK         0.0600 
    148 H148        3.1860  -24.4374  -42.2116 H         1 UNK         0.0600 
    149 H149        1.7188  -20.9911  -42.3752 H         1 UNK         0.3000 
    150 H150        4.9703  -20.0250  -42.4482 H         1 UNK         0.0600 
    151 H151        4.9718  -20.1130  -44.9432 H         1 UNK         0.0600 
    152 H152        4.6385  -18.4849  -44.3752 H         1 UNK         0.0600 
    153 H153        3.3250  -19.4923  -44.9800 H         1 UNK         0.0600 
    154 H154        2.5381  -18.5300  -42.8850 H         1 UNK         0.3000 
    155 H155        1.4853  -18.5331  -39.4717 H         1 UNK         0.0600 
    156 H156        3.1371  -16.6692  -39.6829 H         1 UNK         0.0600 
    157 H157        1.4905  -16.0939  -39.8930 H         1 UNK         0.0600 
    158 H158        2.5359  -16.3068  -41.2961 H         1 UNK         0.0600 
    159 H159        0.2979  -17.3439  -41.7408 H         1 UNK         0.3000 
    160 H160       -1.6701  -20.1903  -42.7547 H         1 UNK         0.0600 
    161 H161       -2.3160  -17.4450  -41.5631 H         1 UNK         0.0600 
    162 H162       -2.8387  -18.9904  -40.9043 H         1 UNK         0.0600 
    163 H163       -3.4167  -18.4706  -42.4798 H         1 UNK         0.0600 
    164 H164       -1.4046  -17.5659  -43.8649 H         1 UNK         0.3000 
    165 H165        1.1764  -18.3852  -46.2185 H         1 UNK         0.0600 
    166 H166       -0.5377  -17.4549  -47.7719 H         1 UNK         0.0600 
    167 H167       -0.9396  -19.1018  -47.3109 H         1 UNK         0.0600 
    168 H168       -1.8015  -17.7527  -46.5813 H         1 UNK         0.0600 
    169 H169       -0.1946  -15.9492  -45.7863 H         1 UNK         0.3000 
    170 H170        1.8631  -14.6987  -43.1173 H         1 UNK         0.0600 
    171 H171        2.9796  -14.1982  -45.3133 H         1 UNK         0.0600 
    172 H172        1.4089  -13.8270  -46.0136 H         1 UNK         0.0600 
    173 H173        2.0463  -12.8392  -44.7040 H         1 UNK         0.0600 
    174 H174       -0.4919  -13.7548  -44.5111 H         1 UNK         0.3000 
    175 H175       -2.8449  -14.9016  -42.0958 H         1 UNK         0.0600 
    176 H176       -1.8895  -12.8151  -41.1057 H         1 UNK         0.0600 
    177 H177       -1.7945  -12.0839  -42.7034 H         1 UNK         0.0600 
    178 H178       -3.3631  -12.4794  -42.0003 H         1 UNK         0.0600 
    179 H179       -3.0831  -13.2850  -44.4497 H         1 UNK         0.3000 
    180 H180       -3.4626  -15.9473  -46.7778 H         1 UNK         0.0600 
    181 H181       -5.5497  -14.0129  -45.6422 H         1 UNK         0.0600 
    182 H182       -5.7079  -15.7646  -45.7013 H         1 UNK         0.0600 
    183 H183       -5.6385  -14.8451  -47.1952 H         1 UNK         0.0600 
    184 H184       -3.7458  -13.1708  -47.1669 H         1 UNK         0.3000 
    185 H185       -2.1163  -12.2186  -48.6082 H         1 UNK         0.0600 
    186 H186       -2.2230  -11.1547  -46.3425 H         1 UNK         0.0600 
    187 H187       -0.5323  -11.5497  -46.0567 H         1 UNK         0.0600 
    188 H188       -0.9751  -10.3997  -47.3175 H         1 UNK         0.0600 
    189 H189        0.7235  -12.2633  -48.0096 H         1 UNK         0.3000 
    190 H190       -0.7584  -21.6772  -45.4454 H         1 UNK         0.3000 
    191 H191       -2.9214  -22.2085  -47.1946 H         1 UNK         0.0600 
    192 H192       -2.9490  -21.3361  -44.2590 H         1 UNK         0.0600 
    193 H193       -4.2835  -21.1653  -45.3850 H         1 UNK         0.0600 
    194 H194       -2.8072  -20.2539  -45.6476 H         1 UNK         0.0600 
    195 H195       -1.5445  -24.3226  -44.8552 H         1 UNK         0.3000 
    196 H196       -3.9436  -25.9418  -44.3963 H         1 UNK         0.0600 
    197 H197       -2.3547  -27.4261  -43.2097 H         1 UNK         0.0600 
    198 H198       -2.1475  -25.7672  -42.6697 H         1 UNK         0.0600 
    199 H199       -0.9883  -26.4838  -43.7894 H         1 UNK         0.0600 
    200 H200       -1.4033  -25.7113  -46.8072 H         1 UNK         0.3000 
    201 H201       -2.0029  -28.4172  -47.9243 H         1 UNK         0.0600 
    202 H202        0.3842  -27.9680  -47.4275 H         1 UNK         0.0600 
    203 H203        0.3435  -26.5059  -48.4101 H         1 UNK         0.0600 
    204 H204        0.1273  -28.0826  -49.1620 H         1 UNK         0.0600 
    205 H205       -1.7100  -24.9382  -48.7529 H         1 UNK         0.3000 
    206 H206       -2.7156  -25.2165  -51.4570 H         1 UNK         0.0600 
    207 H207       -1.1029  -23.4240  -50.7295 H         1 UNK         0.0600 
    208 H208       -2.5641  -22.7290  -51.4061 H         1 UNK         0.0600 
    209 H209       -2.3308  -22.7495  -49.6624 H         1 UNK         0.0600 
    210 H210       -4.6235  -23.9143  -52.1862 H         1 UNK         0.3000 
    211 H211       -7.0461  -24.5751  -50.7931 H         1 UNK         0.0600 
    212 H212       -8.1059  -23.2859  -52.6558 H         1 UNK         0.0600 
    213 H213       -6.9162  -24.4224  -53.2689 H         1 UNK         0.0600 
    214 H214       -6.5281  -22.7043  -53.1713 H         1 UNK         0.0600 
    215 H215       -4.9550  -21.7857  -50.7813 H         1 UNK         0.3000 
    216 H216       -4.8280  -19.8790  -49.6925 H         1 UNK         0.0600 
    217 H217       -5.7103  -19.7020  -47.4258 H         1 UNK         0.0600 
    218 H218       -5.2149  -21.3673  -47.6900 H         1 UNK         0.0600 
    219 H219       -6.9219  -20.9391  -47.7314 H         1 UNK         0.0600 
    220 H220       -6.9519  -20.2268  -51.8027 H         1 UNK         0.3000 
    221 H221       -8.1204  -17.5547  -51.6153 H         1 UNK         0.0600 
    222 H222       -9.8748  -20.0555  -51.8032 H         1 UNK         0.0600 
    223 H223       -9.8838  -18.8563  -50.5143 H         1 UNK         0.0600 
    224 H224      -10.4192  -18.4120  -52.1276 H         1 UNK         0.0600 
    225 H225       -6.9350  -18.0165  -55.0316 H         1 UNK         0.3000 
    226 H226       -6.8881  -16.1946  -52.7930 H         1 UNK         0.0600 
    227 H227       -6.5448  -15.4867  -55.1540 H         1 UNK         0.0600 
    228 H228       -5.1396  -15.1034  -54.1769 H         1 UNK         0.0600 
    229 H229       -5.0981  -16.4881  -55.2619 H         1 UNK         0.0600 
    230 H230       -5.0126  -15.7191  -51.5072 H         1 UNK         0.3000 
    231 H231       -3.5852  -17.9472  -50.4311 H         1 UNK         0.0600 
    232 H232       -4.2071  -15.9971  -49.0750 H         1 UNK         0.0600 
    233 H233       -3.2199  -14.9305  -50.0725 H         1 UNK         0.0600 
    234 H234       -2.4548  -16.1646  -49.0796 H         1 UNK         0.0600 
    235 H235       -2.9084  -15.8990  -53.1198 H         1 UNK         0.3000 
    236 H236       -0.0706  -16.4165  -53.3670 H         1 UNK         0.0600 
    237 H237       -0.4070  -15.3775  -55.6003 H         1 UNK         0.0600 
    238 H238       -2.1542  -15.4822  -55.4206 H         1 UNK         0.0600 
    239 H239       -1.2183  -14.4211  -54.3701 H         1 UNK         0.0600 
    240 H240       -2.7304  -18.4769  -53.6624 H         1 UNK         0.3000 
    241 H241       -3.0110  -20.5320  -54.2578 H         1 UNK         0.0600 
    242 H242       -3.4674  -19.1383  -57.8678 H         1 UNK         0.3800 
    243 H243       -3.0894  -18.1981  -56.4475 H         1 UNK         0.3800 
    244 H244       -1.2633  -22.1055  -54.8237 H         1 UNK         0.0800 
    245 H245       -0.1785  -20.8439  -55.3218 H         1 UNK         0.0800 
    246 H246        1.9256  -21.4431  -53.7029 H         1 UNK         0.0800 
    247 H247        1.4537  -19.7862  -53.9778 H         1 UNK         0.0800 
@<TRIPOS>BOND
     1    1    2 1    
     2    1  127 1    
     3    1  128 1    
     4    1  129 1    
     5    2    3 2    
     6    2    4 am   BACKBONE|DICT|INTERRES
     7    4    5 1    
     8    4  130 1    
     9    5    6 1    
    10    5   65 1    
    11    5  131 1    
    12    6    7 1    
    13    6  132 1    
    14    6  133 1    
    15    7    8 1    
    16    8    9 1    
    17    8  134 1    
    18    8  135 1    
    19    9   10 ar   
    20    9   14 ar   
    21   10   11 ar   
    22   10  136 1    
    23   11   12 ar   
    24   11  126 1    
    25   12   13 ar   
    26   12  137 1    
    27   13   14 ar   
    28   13   15 1    
    29   14  138 1    
    30   15   16 1    
    31   15  139 1    
    32   15  140 1    
    33   16   17 1    
    34   17   18 1    
    35   17  141 1    
    36   17  142 1    
    37   18   19 1    
    38   18   67 1    
    39   18  143 1    
    40   19   20 am   BACKBONE|DICT|INTERRES
    41   19  144 1    
    42   20   21 2    
    43   20   22 1    
    44   22   23 1    
    45   22   24 1    
    46   22  145 1    
    47   23  146 1    
    48   23  147 1    
    49   23  148 1    
    50   24   25 am   BACKBONE|DICT|INTERRES
    51   24  149 1    
    52   25   26 2    
    53   25   27 1    
    54   27   28 1    
    55   27   29 1    
    56   27  150 1    
    57   28  151 1    
    58   28  152 1    
    59   28  153 1    
    60   29   30 am   BACKBONE|DICT|INTERRES
    61   29  154 1    
    62   30   31 2    
    63   30   32 1    
    64   32   33 1    
    65   32   34 1    
    66   32  155 1    
    67   33  156 1    
    68   33  157 1    
    69   33  158 1    
    70   34   35 am   BACKBONE|DICT|INTERRES
    71   34  159 1    
    72   35   36 2    
    73   35   37 1    
    74   37   38 1    
    75   37   39 1    
    76   37  160 1    
    77   38  161 1    
    78   38  162 1    
    79   38  163 1    
    80   39   40 am   BACKBONE|DICT|INTERRES
    81   39  164 1    
    82   40   41 2    
    83   40   42 1    
    84   42   43 1    
    85   42   44 1    
    86   42  165 1    
    87   43  166 1    
    88   43  167 1    
    89   43  168 1    
    90   44   45 am   BACKBONE|DICT|INTERRES
    91   44  169 1    
    92   45   46 2    
    93   45   47 1    
    94   47   48 1    
    95   47   49 1    
    96   47  170 1    
    97   48  171 1    
    98   48  172 1    
    99   48  173 1    
   100   49   50 am   BACKBONE|DICT|INTERRES
   101   49  174 1    
   102   50   51 2    
   103   50   52 1    
   104   52   53 1    
   105   52   54 1    
   106   52  175 1    
   107   53  176 1    
   108   53  177 1    
   109   53  178 1    
   110   54   55 am   BACKBONE|DICT|INTERRES
   111   54  179 1    
   112   55   56 2    
   113   55   57 1    
   114   57   58 1    
   115   57   59 1    
   116   57  180 1    
   117   58  181 1    
   118   58  182 1    
   119   58  183 1    
   120   59   60 am   BACKBONE|DICT|INTERRES
   121   59  184 1    
   122   60   61 2    
   123   60   62 1    
   124   62   63 1    
   125   62   64 1    
   126   62  185 1    
   127   63  186 1    
   128   63  187 1    
   129   63  188 1    
   130   64   65 am   BACKBONE|DICT|INTERRES
   131   64  189 1    
   132   65   66 2    
   133   67   68 2    
   134   67   69 am   BACKBONE|DICT|INTERRES
   135   69   70 1    
   136   69  190 1    
   137   70   71 1    
   138   70   72 1    
   139   70  191 1    
   140   71  192 1    
   141   71  193 1    
   142   71  194 1    
   143   72   73 2    
   144   72   74 am   BACKBONE|DICT|INTERRES
   145   74   75 1    
   146   74  195 1    
   147   75   76 1    
   148   75   77 1    
   149   75  196 1    
   150   76  197 1    
   151   76  198 1    
   152   76  199 1    
   153   77   78 2    
   154   77   79 am   BACKBONE|DICT|INTERRES
   155   79   80 1    
   156   79  200 1    
   157   80   81 1    
   158   80   82 1    
   159   80  201 1    
   160   81  202 1    
   161   81  203 1    
   162   81  204 1    
   163   82   83 2    
   164   82   84 am   BACKBONE|DICT|INTERRES
   165   84   85 1    
   166   84  205 1    
   167   85   86 1    
   168   85   87 1    
   169   85  206 1    
   170   86  207 1    
   171   86  208 1    
   172   86  209 1    
   173   87   88 2    
   174   87   89 am   BACKBONE|DICT|INTERRES
   175   89   90 1    
   176   89  210 1    
   177   90   91 1    
   178   90   92 1    
   179   90  211 1    
   180   91  212 1    
   181   91  213 1    
   182   91  214 1    
   183   92   93 2    
   184   92   94 am   BACKBONE|DICT|INTERRES
   185   94   95 1    
   186   94  215 1    
   187   95   96 1    
   188   95   97 1    
   189   95  216 1    
   190   96  217 1    
   191   96  218 1    
   192   96  219 1    
   193   97   98 2    
   194   97   99 am   BACKBONE|DICT|INTERRES
   195   99  100 1    
   196   99  220 1    
   197  100  101 1    
   198  100  102 1    
   199  100  221 1    
   200  101  222 1    
   201  101  223 1    
   202  101  224 1    
   203  102  103 2    
   204  102  104 am   BACKBONE|DICT|INTERRES
   205  104  105 1    
   206  104  225 1    
   207  105  106 1    
   208  105  107 1    
   209  105  226 1    
   210  106  227 1    
   211  106  228 1    
   212  106  229 1    
   213  107  108 2    
   214  107  109 am   BACKBONE|DICT|INTERRES
   215  109  110 1    
   216  109  230 1    
   217  110  111 1    
   218  110  112 1    
   219  110  231 1    
   220  111  232 1    
   221  111  233 1    
   222  111  234 1    
   223  112  113 2    
   224  112  114 am   BACKBONE|DICT|INTERRES
   225  114  115 1    
   226  114  235 1    
   227  115  116 1    
   228  115  117 1    
   229  115  236 1    
   230  116  237 1    
   231  116  238 1    
   232  116  239 1    
   233  117  118 2    
   234  117  119 am   BACKBONE|DICT|INTERRES
   235  119  120 1    
   236  119  240 1    
   237  120  121 1    
   238  120  124 1    
   239  120  241 1    
   240  121  122 am   BACKBONE|DICT|INTERRES
   241  121  123 2    
   242  122  242 1    
   243  122  243 1    
   244  124  125 1    
   245  124  244 1    
   246  124  245 1    
   247  125  126 1    
   248  126  246 1    
   249  126  247 1    
@<TRIPOS>SUBSTRUCTURE
     1 UNK         1 GROUP             0       ****    0 ROOT    
