@<TRIPOS>MOLECULE
3R540
247   249    1
SMALL
USER_CHARGES


@<TRIPOS>ATOM
      1 CA          7.0657  -15.1686  -46.3214 C.3       0 UNK        -0.1800 
      2 C           6.1241  -14.0199  -46.6520 C.2       0 UNK         0.5000 
      3 O           6.4557  -13.1799  -47.4880 O.2       0 UNK        -0.5000 
      4 N           4.9588  -13.9858  -45.9935 N.am      1 UNK        -0.5000 
      5 CA          3.9050  -12.9710  -46.1264 C.3       1 UNK         0.1400 
      6 C6          3.2525  -12.9042  -47.5338 C.3       23 UNK        -0.0398 
      7 S7          2.3379  -14.4246  -47.9381 S.3       23 UNK        -0.2404 
      8 C8          3.2478  -15.0333  -49.3948 C.3       23 UNK        -0.0205 
      9 C9          2.5032  -16.1786  -50.0667 C.ar      23 UNK        -0.0193 
     10 C10         1.2797  -15.9291  -50.6925 C.ar      23 UNK        -0.1150 
     11 C11         0.5495  -16.9680  -51.2719 C.ar      23 UNK        -0.0193 
     12 C12         1.0767  -18.2618  -51.2733 C.ar      23 UNK        -0.1150 
     13 C13         2.3140  -18.5235  -50.6767 C.ar      23 UNK        -0.0193 
     14 C14         3.0189  -17.4793  -50.0652 C.ar      23 UNK        -0.1150 
     15 C15         2.8971  -19.9294  -50.7138 C.3       23 UNK        -0.0205 
     16 S16         2.5030  -20.8893  -49.2184 S.3       23 UNK        -0.2404 
     17 C17         0.7337  -21.2625  -49.4649 C.3       23 UNK        -0.0398 
     18 CA          0.2322  -22.3833  -48.5207 C.3       11 UNK         0.1400 
     19 N           0.2758  -21.9941  -47.1077 N.am      11 UNK        -0.5000 
     20 C          -0.0072  -22.7950  -46.0705 C.2       10 UNK         0.5000 
     21 O          -0.2950  -23.9862  -46.1805 O.2       10 UNK        -0.5000 
     22 CA         -0.0179  -22.1462  -44.6764 C.3       10 UNK         0.1400 
     23 CB          1.4042  -22.0314  -44.1066 C.3       10 UNK        -0.1800 
     24 N          -0.6567  -20.8306  -44.6898 N.am      10 UNK        -0.5000 
     25 C          -1.9727  -20.6297  -44.8449 C.2       9 UNK         0.5000 
     26 O          -2.7930  -21.5384  -44.9710 O.2       9 UNK        -0.5000 
     27 CA         -2.4463  -19.1654  -44.9094 C.3       9 UNK         0.1400 
     28 CB         -2.5802  -18.5701  -43.5001 C.3       9 UNK        -0.1800 
     29 N          -1.5597  -18.3194  -45.7067 N.am      9 UNK        -0.5000 
     30 C          -1.3513  -18.4767  -47.0218 C.2       8 UNK         0.5000 
     31 O          -1.9053  -19.3345  -47.7085 O.2       8 UNK        -0.5000 
     32 CA         -0.3167  -17.5423  -47.6692 C.3       8 UNK         0.1400 
     33 CB         -0.9722  -16.1868  -47.9769 C.3       8 UNK        -0.1800 
     34 N           0.8895  -17.3365  -46.8602 N.am      8 UNK        -0.5000 
     35 C           1.6701  -18.3028  -46.3504 C.2       7 UNK         0.5000 
     36 O           1.4379  -19.5028  -46.4625 O.2       7 UNK        -0.5000 
     37 CA          2.8581  -17.8563  -45.4926 C.3       7 UNK         0.1400 
     38 CB          4.0521  -17.4581  -46.3810 C.3       7 UNK        -0.1800 
     39 N           2.3863  -16.8021  -44.5961 N.am      7 UNK        -0.5000 
     40 C           3.0628  -15.9555  -43.8213 C.2       6 UNK         0.5000 
     41 O           4.2838  -15.7979  -43.8676 O.2       6 UNK        -0.5000 
     42 CA          2.2070  -15.1452  -42.8216 C.3       6 UNK         0.1400 
     43 CB          3.0594  -14.1971  -41.9588 C.3       6 UNK        -0.1800 
     44 N           1.1166  -14.3758  -43.4339 N.am      6 UNK        -0.5000 
     45 C          -0.0144  -14.8602  -43.9758 C.2       5 UNK         0.5000 
     46 O          -0.2319  -16.0647  -44.1386 O.2       5 UNK        -0.5000 
     47 CA         -1.0800  -13.8251  -44.4087 C.3       5 UNK         0.1400 
     48 CB         -2.4999  -14.4286  -44.4858 C.3       5 UNK        -0.1800 
     49 N          -1.0751  -12.6084  -43.5840 N.am      5 UNK        -0.5000 
     50 C          -1.2801  -12.5295  -42.2590 C.2       4 UNK         0.5000 
     51 O          -1.6215  -13.4896  -41.5662 O.2       4 UNK        -0.5000 
     52 CA         -1.0518  -11.1538  -41.5864 C.3       4 UNK         0.1400 
     53 CB         -0.5149  -11.3063  -40.1476 C.3       4 UNK        -0.1800 
     54 N          -0.2006  -10.2037  -42.3229 N.am      4 UNK        -0.5000 
     55 C           1.0562  -10.3955  -42.7519 C.2       3 UNK         0.5000 
     56 O           1.6019  -11.5012  -42.7766 O.2       3 UNK        -0.5000 
     57 CA          1.7966   -9.1462  -43.2818 C.3       3 UNK         0.1400 
     58 CB          1.7581   -7.9691  -42.2833 C.3       3 UNK        -0.1800 
     59 N           3.1727   -9.4472  -43.6928 N.am      3 UNK        -0.5000 
     60 C           4.2047   -9.8417  -42.9311 C.2       2 UNK         0.5000 
     61 O           4.2005   -9.8379  -41.6985 O.2       2 UNK        -0.5000 
     62 CA          5.4273  -10.3884  -43.7032 C.3       2 UNK         0.1400 
     63 CB          6.6107  -10.7357  -42.7821 C.3       2 UNK        -0.1800 
     64 N           5.0643  -11.5845  -44.4683 N.am      2 UNK        -0.5000 
     65 C           4.3661  -11.5911  -45.6122 C.2       1 UNK         0.5000 
     66 O           4.0547  -10.5610  -46.2146 O.2       1 UNK        -0.5000 
     67 C          -1.1754  -22.8628  -48.9263 C.2       11 UNK         0.5000 
     68 O          -1.2997  -23.9418  -49.5069 O.2       11 UNK        -0.5000 
     69 N          -2.2080  -22.0905  -48.5560 N.am      12 UNK        -0.5000 
     70 CA         -3.6122  -22.4405  -48.7573 C.3       12 UNK         0.1400 
     71 CB         -4.5085  -21.2619  -48.3514 C.3       12 UNK        -0.1800 
     72 C          -4.0159  -23.7137  -47.9954 C.2       12 UNK         0.5000 
     73 O          -4.6435  -24.5895  -48.5875 O.2       12 UNK        -0.5000 
     74 N          -3.6286  -23.8156  -46.7146 N.am      13 UNK        -0.5000 
     75 CA         -3.9059  -24.9703  -45.8555 C.3       13 UNK         0.1400 
     76 CB         -3.4562  -24.6761  -44.4172 C.3       13 UNK        -0.1800 
     77 C          -3.2723  -26.2767  -46.3663 C.2       13 UNK         0.5000 
     78 O          -3.9391  -27.3118  -46.3605 O.2       13 UNK        -0.5000 
     79 N          -2.0237  -26.2017  -46.8485 N.am      14 UNK        -0.5000 
     80 CA         -1.2958  -27.3172  -47.4617 C.3       14 UNK         0.1400 
     81 CB          0.1564  -26.8912  -47.7246 C.3       14 UNK        -0.1800 
     82 C          -1.9506  -27.8349  -48.7583 C.2       14 UNK         0.5000 
     83 O          -1.8606  -29.0271  -49.0523 O.2       14 UNK        -0.5000 
     84 N          -2.6229  -26.9363  -49.4866 N.am      15 UNK        -0.5000 
     85 CA         -3.4018  -27.2236  -50.6900 C.3       15 UNK         0.1400 
     86 CB         -3.2447  -26.0351  -51.6485 C.3       15 UNK        -0.1800 
     87 C          -4.8907  -27.5025  -50.3886 C.2       15 UNK         0.5000 
     88 O          -5.6838  -27.5946  -51.3267 O.2       15 UNK        -0.5000 
     89 N          -5.2617  -27.6016  -49.1011 N.am      16 UNK        -0.5000 
     90 CA         -6.6131  -27.8396  -48.5749 C.3       16 UNK         0.1400 
     91 CB         -7.0645  -29.2794  -48.8955 C.3       16 UNK        -0.1800 
     92 C          -7.6489  -26.7792  -49.0143 C.2       16 UNK         0.5000 
     93 O          -8.8317  -27.0934  -49.1561 O.2       16 UNK        -0.5000 
     94 N          -7.1723  -25.5473  -49.2465 N.am      17 UNK        -0.5000 
     95 CA         -7.8824  -24.3723  -49.7611 C.3       17 UNK         0.1400 
     96 CB         -8.9691  -23.9099  -48.7696 C.3       17 UNK        -0.1800 
     97 C          -8.4222  -24.5254  -51.2015 C.2       17 UNK         0.5000 
     98 O          -9.1939  -23.6745  -51.6471 O.2       17 UNK        -0.5000 
     99 N          -8.0031  -25.5767  -51.9211 N.am      18 UNK        -0.5000 
    100 CA        -8.3907  -25.8363  -53.3099 C.3       18 UNK         0.1400 
    101 CB        -8.2864  -27.3451  -53.5816 C.3       18 UNK        -0.1800 
    102 C         -7.5357  -25.0462  -54.3192 C.2       18 UNK         0.5000 
    103 O         -7.9395  -24.9000  -55.4737 O.2       18 UNK        -0.5000 
    104 N         -6.3753  -24.5570  -53.8717 N.am      19 UNK        -0.5000 
    105 CA        -5.3966  -23.7880  -54.6286 C.3       19 UNK         0.1400 
    106 CB        -4.5985  -24.7285  -55.5556 C.3       19 UNK        -0.1800 
    107 C         -4.4825  -23.0593  -53.6289 C.2       19 UNK         0.5000 
    108 O         -4.6991  -23.1577  -52.4184 O.2       19 UNK        -0.5000 
    109 N         -3.4752  -22.3475  -54.1551 N.am      20 UNK        -0.5000 
    110 CA        -2.3497  -21.7288  -53.4363 C.3       20 UNK         0.1400 
    111 CB        -1.4710  -22.8162  -52.7886 C.3       20 UNK        -0.1800 
    112 C         -2.7273  -20.6133  -52.4359 C.2       20 UNK         0.5000 
    113 O         -1.8887  -20.2132  -51.6290 O.2       20 UNK        -0.5000 
    114 N         -3.9623  -20.1054  -52.5295 N.am      21 UNK        -0.5000 
    115 CA        -4.4812  -18.9961  -51.7274 C.3       21 UNK         0.1400 
    116 CB        -5.9807  -19.2315  -51.4844 C.3       21 UNK        -0.1800 
    117 C         -4.2368  -17.6219  -52.3837 C.2       21 UNK         0.5000 
    118 O         -4.4807  -16.6008  -51.7396 O.2       21 UNK        -0.5000 
    119 N         -3.7479  -17.6202  -53.6331 N.am      22 UNK        -0.5000 
    120 CA        -3.4756  -16.4425  -54.4764 C.3       22 UNK         0.1400 
    121 C         -4.7673  -15.6720  -54.9002 C.2       22 UNK         0.5000 
    122 N         -4.6445  -14.5143  -55.5374 N.am      22 UNK        -0.7600 
    123 O         -5.8918  -16.1306  -54.7070 O.2       22 UNK        -0.5000 
    124 C124       -2.3725  -15.5137  -53.8863 C.3       23 UNK        -0.0398 
    125 S125       -0.7676  -16.3506  -53.6293 S.3       23 UNK        -0.2404 
    126 C126       -0.8292  -16.6928  -51.8448 C.3       23 UNK        -0.0205 
    127 H127        8.0755  -14.7932  -46.1556 H         1 UNK         0.0600 
    128 H128        6.7525  -15.7002  -45.4225 H         1 UNK         0.0600 
    129 H129        7.0943  -15.8790  -47.1475 H         1 UNK         0.0600 
    130 H130        4.7725  -14.7094  -45.3021 H         1 UNK         0.3000 
    131 H131        3.1217  -13.2712  -45.4290 H         1 UNK         0.0600 
    132 H132        2.5235  -12.0937  -47.5828 H         1 UNK         0.0800 
    133 H133        3.9939  -12.6853  -48.3027 H         1 UNK         0.0800 
    134 H134        3.3713  -14.2225  -50.1142 H         1 UNK         0.0800 
    135 H135        4.2502  -15.3404  -49.0930 H         1 UNK         0.0800 
    136 H136        0.8757  -14.9263  -50.6903 H         1 UNK         0.1150 
    137 H137        0.5174  -19.0661  -51.7302 H         1 UNK         0.1150 
    138 H138        3.9695  -17.6809  -49.5924 H         1 UNK         0.1150 
    139 H139        2.5475  -20.4651  -51.5977 H         1 UNK         0.0800 
    140 H140        3.9820  -19.8677  -50.8103 H         1 UNK         0.0800 
    141 H141        0.5953  -21.5537  -50.5067 H         1 UNK         0.0800 
    142 H142        0.1543  -20.3493  -49.3226 H         1 UNK         0.0800 
    143 H143        0.9000  -23.2400  -48.6344 H         1 UNK         0.0600 
    144 H144        0.5676  -21.0376  -46.9149 H         1 UNK         0.3000 
    145 H145       -0.5919  -22.7944  -44.0112 H         1 UNK         0.0600 
    146 H146        1.3934  -21.6107  -43.1010 H         1 UNK         0.0600 
    147 H147        1.8758  -23.0128  -44.0431 H         1 UNK         0.0600 
    148 H148        2.0436  -21.4028  -44.7265 H         1 UNK         0.0600 
    149 H149       -0.0424  -20.0295  -44.6853 H         1 UNK         0.3000 
    150 H150       -3.4319  -19.1561  -45.3796 H         1 UNK         0.0600 
    151 H151       -3.2476  -19.1724  -42.8825 H         1 UNK         0.0600 
    152 H152       -2.9919  -17.5612  -43.5367 H         1 UNK         0.0600 
    153 H153       -1.6167  -18.5175  -42.9914 H         1 UNK         0.0600 
    154 H154       -1.0652  -17.5821  -45.2152 H         1 UNK         0.3000 
    155 H155       -0.0030  -17.9989  -48.6082 H         1 UNK         0.0600 
    156 H156       -0.3044  -15.5320  -48.5308 H         1 UNK         0.0600 
    157 H157       -1.2595  -15.6637  -47.0664 H         1 UNK         0.0600 
    158 H158       -1.8702  -16.3150  -48.5828 H         1 UNK         0.0600 
    159 H159        1.1825  -16.3779  -46.7357 H         1 UNK         0.3000 
    160 H160        3.1562  -18.7050  -44.8745 H         1 UNK         0.0600 
    161 H161        3.8932  -16.5051  -46.8771 H         1 UNK         0.0600 
    162 H162        4.2284  -18.2062  -47.1550 H         1 UNK         0.0600 
    163 H163        4.9711  -17.3880  -45.8011 H         1 UNK         0.0600 
    164 H164        1.3739  -16.7763  -44.4806 H         1 UNK         0.3000 
    165 H165        1.7524  -15.8731  -42.1467 H         1 UNK         0.0600 
    166 H166        3.5436  -13.4294  -42.5631 H         1 UNK         0.0600 
    167 H167        2.4506  -13.6943  -41.2069 H         1 UNK         0.0600 
    168 H168        3.8415  -14.7413  -41.4282 H         1 UNK         0.0600 
    169 H169        1.1946  -13.3683  -43.3267 H         1 UNK         0.3000 
    170 H170       -0.7997  -13.5139  -45.4159 H         1 UNK         0.0600 
    171 H171       -2.8318  -14.8109  -43.5204 H         1 UNK         0.0600 
    172 H172       -2.5438  -15.2601  -45.1887 H         1 UNK         0.0600 
    173 H173       -3.2250  -13.6866  -44.8194 H         1 UNK         0.0600 
    174 H174       -0.7907  -11.7612  -44.0544 H         1 UNK         0.3000 
    175 H175       -2.0372  -10.6902  -41.5226 H         1 UNK         0.0600 
    176 H176       -0.3882  -10.3354  -39.6686 H         1 UNK         0.0600 
    177 H177       -1.2008  -11.8827  -39.5258 H         1 UNK         0.0600 
    178 H178        0.4497  -11.8154  -40.1323 H         1 UNK         0.0600 
    179 H179       -0.5861   -9.2735  -42.4081 H         1 UNK         0.3000 
    180 H180        1.2761   -8.8360  -44.1888 H         1 UNK         0.0600 
    181 H181        2.1243   -8.2581  -41.2977 H         1 UNK         0.0600 
    182 H182        0.7435   -7.5921  -42.1536 H         1 UNK         0.0600 
    183 H183        2.3653   -7.1347  -42.6342 H         1 UNK         0.0600 
    184 H184        3.3027   -9.5555  -44.6941 H         1 UNK         0.3000 
    185 H185        5.7585   -9.6090  -44.3926 H         1 UNK         0.0600 
    186 H186        7.4721  -11.0736  -43.3586 H         1 UNK         0.0600 
    187 H187        6.9273   -9.8643  -42.2075 H         1 UNK         0.0600 
    188 H188        6.3528  -11.5229  -42.0724 H         1 UNK         0.0600 
    189 H189        5.2721  -12.4712  -44.0326 H         1 UNK         0.3000 
    190 H190       -2.0243  -21.1935  -48.1131 H         1 UNK         0.3000 
    191 H191       -3.7571  -22.6270  -49.8237 H         1 UNK         0.0600 
    192 H192       -4.2643  -20.3684  -48.9235 H         1 UNK         0.0600 
    193 H193       -5.5596  -21.4892  -48.5335 H         1 UNK         0.0600 
    194 H194       -4.3999  -21.0173  -47.2942 H         1 UNK         0.0600 
    195 H195       -3.1413  -23.0374  -46.2818 H         1 UNK         0.3000 
    196 H196       -4.9881  -25.1156  -45.8453 H         1 UNK         0.0600 
    197 H197       -3.6598  -25.5242  -43.7622 H         1 UNK         0.0600 
    198 H198       -3.9859  -23.8164  -44.0070 H         1 UNK         0.0600 
    199 H199       -2.3874  -24.4691  -44.3642 H         1 UNK         0.0600 
    200 H200       -1.5230  -25.3188  -46.7776 H         1 UNK         0.3000 
    201 H201       -1.2858  -28.1420  -46.7464 H         1 UNK         0.0600 
    202 H202        0.6579  -26.6094  -46.7986 H         1 UNK         0.0600 
    203 H203        0.2077  -26.0399  -48.4045 H         1 UNK         0.0600 
    204 H204        0.7297  -27.7049  -48.1705 H         1 UNK         0.0600 
    205 H205       -2.6335  -25.9737  -49.1715 H         1 UNK         0.3000 
    206 H206       -3.0044  -28.1115  -51.1852 H         1 UNK         0.0600 
    207 H207       -2.2016  -25.8910  -51.9298 H         1 UNK         0.0600 
    208 H208       -3.8125  -26.1800  -52.5680 H         1 UNK         0.0600 
    209 H209       -3.5922  -25.1136  -51.1824 H         1 UNK         0.0600 
    210 H210       -4.5478  -27.4734  -48.3938 H         1 UNK         0.3000 
    211 H211       -6.5354  -27.7512  -47.4906 H         1 UNK         0.0600 
    212 H212       -7.2220  -29.4247  -49.9647 H         1 UNK         0.0600 
    213 H213       -8.0011  -29.5192  -48.3909 H         1 UNK         0.0600 
    214 H214       -6.3241  -30.0071  -48.5633 H         1 UNK         0.0600 
    215 H215       -6.1796  -25.3891  -49.0741 H         1 UNK         0.3000 
    216 H216       -7.1328  -23.5813  -49.8141 H         1 UNK         0.0600 
    217 H217       -8.5598  -23.7859  -47.7670 H         1 UNK         0.0600 
    218 H218       -9.7938  -24.6204  -48.7112 H         1 UNK         0.0600 
    219 H219       -9.3884  -22.9483  -49.0675 H         1 UNK         0.0600 
    220 H220       -7.3540  -26.2344  -51.5033 H         1 UNK         0.3000 
    221 H221       -9.4320  -25.5397  -53.4523 H         1 UNK         0.0600 
    222 H222       -7.2572  -27.6977  -53.5079 H         1 UNK         0.0600 
    223 H223       -8.8885  -27.9167  -52.8750 H         1 UNK         0.0600 
    224 H224       -8.6432  -27.5862  -54.5837 H         1 UNK         0.0600 
    225 H225       -6.1423  -24.6602  -52.8918 H         1 UNK         0.3000 
    226 H226       -5.9164  -23.0345  -55.2234 H         1 UNK         0.0600 
    227 H227       -5.2554  -25.2678  -56.2381 H         1 UNK         0.0600 
    228 H228       -3.8890  -24.1765  -56.1724 H         1 UNK         0.0600 
    229 H229       -4.0341  -25.4673  -54.9856 H         1 UNK         0.0600 
    230 H230       -3.4107  -22.2982  -55.1625 H         1 UNK         0.3000 
    231 H231       -1.7445  -21.2387  -54.2001 H         1 UNK         0.0600 
    232 H232       -0.5467  -22.3955  -52.3939 H         1 UNK         0.0600 
    233 H233       -1.1927  -23.5837  -53.5106 H         1 UNK         0.0600 
    234 H234       -1.9889  -23.3047  -51.9645 H         1 UNK         0.0600 
    235 H235       -4.5940  -20.5142  -53.2019 H         1 UNK         0.3000 
    236 H236       -3.9769  -18.9795  -50.7596 H         1 UNK         0.0600 
    237 H237       -6.4003  -18.4544  -50.8444 H         1 UNK         0.0600 
    238 H238       -6.5447  -19.2290  -52.4179 H         1 UNK         0.0600 
    239 H239       -6.1537  -20.1876  -50.9894 H         1 UNK         0.0600 
    240 H240       -3.5945  -18.5138  -54.0741 H         1 UNK         0.3000 
    241 H241       -3.0881  -16.8531  -55.4093 H         1 UNK         0.0600 
    242 H242       -3.7455  -14.1150  -55.7569 H         1 UNK         0.3800 
    243 H243       -5.4805  -14.0295  -55.8261 H         1 UNK         0.3800 
    244 H244       -2.1681  -14.6866  -54.5664 H         1 UNK         0.0800 
    245 H245       -2.7104  -15.0497  -52.9593 H         1 UNK         0.0800 
    246 H246       -1.2815  -15.8515  -51.3176 H         1 UNK         0.0800 
    247 H247       -1.4747  -17.5507  -51.6604 H         1 UNK         0.0800 
@<TRIPOS>BOND
     1    1    2 1    
     2    1  127 1    
     3    1  128 1    
     4    1  129 1    
     5    2    3 2    
     6    2    4 am   BACKBONE|DICT|INTERRES
     7    4    5 1    
     8    4  130 1    
     9    5    6 1    
    10    5   65 1    
    11    5  131 1    
    12    6    7 1    
    13    6  132 1    
    14    6  133 1    
    15    7    8 1    
    16    8    9 1    
    17    8  134 1    
    18    8  135 1    
    19    9   10 ar   
    20    9   14 ar   
    21   10   11 ar   
    22   10  136 1    
    23   11   12 ar   
    24   11  126 1    
    25   12   13 ar   
    26   12  137 1    
    27   13   14 ar   
    28   13   15 1    
    29   14  138 1    
    30   15   16 1    
    31   15  139 1    
    32   15  140 1    
    33   16   17 1    
    34   17   18 1    
    35   17  141 1    
    36   17  142 1    
    37   18   19 1    
    38   18   67 1    
    39   18  143 1    
    40   19   20 am   BACKBONE|DICT|INTERRES
    41   19  144 1    
    42   20   21 2    
    43   20   22 1    
    44   22   23 1    
    45   22   24 1    
    46   22  145 1    
    47   23  146 1    
    48   23  147 1    
    49   23  148 1    
    50   24   25 am   BACKBONE|DICT|INTERRES
    51   24  149 1    
    52   25   26 2    
    53   25   27 1    
    54   27   28 1    
    55   27   29 1    
    56   27  150 1    
    57   28  151 1    
    58   28  152 1    
    59   28  153 1    
    60   29   30 am   BACKBONE|DICT|INTERRES
    61   29  154 1    
    62   30   31 2    
    63   30   32 1    
    64   32   33 1    
    65   32   34 1    
    66   32  155 1    
    67   33  156 1    
    68   33  157 1    
    69   33  158 1    
    70   34   35 am   BACKBONE|DICT|INTERRES
    71   34  159 1    
    72   35   36 2    
    73   35   37 1    
    74   37   38 1    
    75   37   39 1    
    76   37  160 1    
    77   38  161 1    
    78   38  162 1    
    79   38  163 1    
    80   39   40 am   BACKBONE|DICT|INTERRES
    81   39  164 1    
    82   40   41 2    
    83   40   42 1    
    84   42   43 1    
    85   42   44 1    
    86   42  165 1    
    87   43  166 1    
    88   43  167 1    
    89   43  168 1    
    90   44   45 am   BACKBONE|DICT|INTERRES
    91   44  169 1    
    92   45   46 2    
    93   45   47 1    
    94   47   48 1    
    95   47   49 1    
    96   47  170 1    
    97   48  171 1    
    98   48  172 1    
    99   48  173 1    
   100   49   50 am   BACKBONE|DICT|INTERRES
   101   49  174 1    
   102   50   51 2    
   103   50   52 1    
   104   52   53 1    
   105   52   54 1    
   106   52  175 1    
   107   53  176 1    
   108   53  177 1    
   109   53  178 1    
   110   54   55 am   BACKBONE|DICT|INTERRES
   111   54  179 1    
   112   55   56 2    
   113   55   57 1    
   114   57   58 1    
   115   57   59 1    
   116   57  180 1    
   117   58  181 1    
   118   58  182 1    
   119   58  183 1    
   120   59   60 am   BACKBONE|DICT|INTERRES
   121   59  184 1    
   122   60   61 2    
   123   60   62 1    
   124   62   63 1    
   125   62   64 1    
   126   62  185 1    
   127   63  186 1    
   128   63  187 1    
   129   63  188 1    
   130   64   65 am   BACKBONE|DICT|INTERRES
   131   64  189 1    
   132   65   66 2    
   133   67   68 2    
   134   67   69 am   BACKBONE|DICT|INTERRES
   135   69   70 1    
   136   69  190 1    
   137   70   71 1    
   138   70   72 1    
   139   70  191 1    
   140   71  192 1    
   141   71  193 1    
   142   71  194 1    
   143   72   73 2    
   144   72   74 am   BACKBONE|DICT|INTERRES
   145   74   75 1    
   146   74  195 1    
   147   75   76 1    
   148   75   77 1    
   149   75  196 1    
   150   76  197 1    
   151   76  198 1    
   152   76  199 1    
   153   77   78 2    
   154   77   79 am   BACKBONE|DICT|INTERRES
   155   79   80 1    
   156   79  200 1    
   157   80   81 1    
   158   80   82 1    
   159   80  201 1    
   160   81  202 1    
   161   81  203 1    
   162   81  204 1    
   163   82   83 2    
   164   82   84 am   BACKBONE|DICT|INTERRES
   165   84   85 1    
   166   84  205 1    
   167   85   86 1    
   168   85   87 1    
   169   85  206 1    
   170   86  207 1    
   171   86  208 1    
   172   86  209 1    
   173   87   88 2    
   174   87   89 am   BACKBONE|DICT|INTERRES
   175   89   90 1    
   176   89  210 1    
   177   90   91 1    
   178   90   92 1    
   179   90  211 1    
   180   91  212 1    
   181   91  213 1    
   182   91  214 1    
   183   92   93 2    
   184   92   94 am   BACKBONE|DICT|INTERRES
   185   94   95 1    
   186   94  215 1    
   187   95   96 1    
   188   95   97 1    
   189   95  216 1    
   190   96  217 1    
   191   96  218 1    
   192   96  219 1    
   193   97   98 2    
   194   97   99 am   BACKBONE|DICT|INTERRES
   195   99  100 1    
   196   99  220 1    
   197  100  101 1    
   198  100  102 1    
   199  100  221 1    
   200  101  222 1    
   201  101  223 1    
   202  101  224 1    
   203  102  103 2    
   204  102  104 am   BACKBONE|DICT|INTERRES
   205  104  105 1    
   206  104  225 1    
   207  105  106 1    
   208  105  107 1    
   209  105  226 1    
   210  106  227 1    
   211  106  228 1    
   212  106  229 1    
   213  107  108 2    
   214  107  109 am   BACKBONE|DICT|INTERRES
   215  109  110 1    
   216  109  230 1    
   217  110  111 1    
   218  110  112 1    
   219  110  231 1    
   220  111  232 1    
   221  111  233 1    
   222  111  234 1    
   223  112  113 2    
   224  112  114 am   BACKBONE|DICT|INTERRES
   225  114  115 1    
   226  114  235 1    
   227  115  116 1    
   228  115  117 1    
   229  115  236 1    
   230  116  237 1    
   231  116  238 1    
   232  116  239 1    
   233  117  118 2    
   234  117  119 am   BACKBONE|DICT|INTERRES
   235  119  120 1    
   236  119  240 1    
   237  120  121 1    
   238  120  124 1    
   239  120  241 1    
   240  121  122 am   BACKBONE|DICT|INTERRES
   241  121  123 2    
   242  122  242 1    
   243  122  243 1    
   244  124  125 1    
   245  124  244 1    
   246  124  245 1    
   247  125  126 1    
   248  126  246 1    
   249  126  247 1    
@<TRIPOS>SUBSTRUCTURE
     1 UNK         1 GROUP             0       ****    0 ROOT    
