@<TRIPOS>MOLECULE
3R540
247   249    1
SMALL
USER_CHARGES


@<TRIPOS>ATOM
      1 CA          0.9147  -11.3222  -50.6646 C.3       0 UNK        -0.1800 
      2 C           0.9918  -12.0440  -49.3266 C.2       0 UNK         0.5000 
      3 O           1.2354  -11.4091  -48.3000 O.2       0 UNK        -0.5000 
      4 N           0.7951  -13.3672  -49.3368 N.am      1 UNK        -0.5000 
      5 CA          0.7441  -14.2235  -48.1489 C.3       1 UNK         0.1400 
      6 C6          0.9511  -15.7248  -48.4879 C.3       23 UNK        -0.0398 
      7 S7          0.0228  -16.3241  -49.9495 S.3       23 UNK        -0.2404 
      8 C8          1.3404  -16.4609  -51.2043 C.3       23 UNK        -0.0205 
      9 C9          1.9803  -17.8426  -51.2127 C.ar      23 UNK        -0.0193 
     10 C10         1.6176  -18.7801  -52.1835 C.ar      23 UNK        -0.1150 
     11 C11         2.1952  -20.0536  -52.1960 C.ar      23 UNK        -0.0193 
     12 C12         3.1288  -20.3972  -51.2139 C.ar      23 UNK        -0.1150 
     13 C13         3.4970  -19.4694  -50.2355 C.ar      23 UNK        -0.0193 
     14 C14         2.9406  -18.1875  -50.2589 C.ar      23 UNK        -0.1150 
     15 C15         4.4913  -19.8442  -49.1456 C.3       23 UNK        -0.0205 
     16 S16         3.7643  -20.9269  -47.8692 S.3       23 UNK        -0.2404 
     17 C17         2.3509  -19.9496  -47.2483 C.3       23 UNK        -0.0398 
     18 CA          1.0629  -20.8120  -47.1506 C.3       11 UNK         0.1400 
     19 N           0.8158  -21.2576  -45.7755 N.am      11 UNK        -0.5000 
     20 C          -0.1261  -22.1358  -45.4058 C.2       10 UNK         0.5000 
     21 O          -0.8618  -22.7251  -46.1957 O.2       10 UNK        -0.5000 
     22 CA         -0.3219  -22.3440  -43.8931 C.3       10 UNK         0.1400 
     23 CB          0.7360  -23.2997  -43.3220 C.3       10 UNK        -0.1800 
     24 N          -0.3055  -21.0821  -43.1516 N.am      10 UNK        -0.5000 
     25 C          -1.2018  -20.0984  -43.3187 C.2       9 UNK         0.5000 
     26 O          -2.1681  -20.1742  -44.0753 O.2       9 UNK        -0.5000 
     27 CA         -0.9563  -18.7945  -42.5440 C.3       9 UNK         0.1400 
     28 CB         -1.4109  -18.9529  -41.0833 C.3       9 UNK        -0.1800 
     29 N           0.4450  -18.3776  -42.5883 N.am      9 UNK        -0.5000 
     30 C           1.1280  -18.0546  -43.6969 C.2       8 UNK         0.5000 
     31 O           0.6329  -18.0168  -44.8223 O.2       8 UNK        -0.5000 
     32 CA          2.6386  -17.8062  -43.5314 C.3       8 UNK         0.1400 
     33 CB          2.9361  -16.3696  -43.0796 C.3       8 UNK        -0.1800 
     34 N           3.2436  -18.7484  -42.5917 N.am      8 UNK        -0.5000 
     35 C           3.3939  -20.0591  -42.8267 C.2       7 UNK         0.5000 
     36 O           3.0567  -20.6093  -43.8749 O.2       7 UNK        -0.5000 
     37 CA          3.9844  -20.8965  -41.6780 C.3       7 UNK         0.1400 
     38 CB          5.5186  -20.8255  -41.6882 C.3       7 UNK        -0.1800 
     39 N           3.4859  -20.4713  -40.3682 N.am      7 UNK        -0.5000 
     40 C           2.2213  -20.6392  -39.9573 C.2       6 UNK         0.5000 
     41 O           1.3557  -21.2015  -40.6286 O.2       6 UNK        -0.5000 
     42 CA          1.8538  -20.0327  -38.5885 C.3       6 UNK         0.1400 
     43 CB          2.2476  -20.9862  -37.4506 C.3       6 UNK        -0.1800 
     44 N           2.4495  -18.7119  -38.3486 N.am      6 UNK        -0.5000 
     45 C           2.2113  -17.6313  -39.1023 C.2       5 UNK         0.5000 
     46 O           1.4987  -17.6514  -40.1092 O.2       5 UNK        -0.5000 
     47 CA          2.8944  -16.3178  -38.6954 C.3       5 UNK         0.1400 
     48 CB          4.3975  -16.3495  -39.0251 C.3       5 UNK        -0.1800 
     49 N           2.2462  -15.2509  -39.4465 N.am      5 UNK        -0.5000 
     50 C           2.2130  -13.9468  -39.1604 C.2       4 UNK         0.5000 
     51 O           2.7846  -13.4424  -38.1932 O.2       4 UNK        -0.5000 
     52 CA          1.4003  -13.0549  -40.1231 C.3       4 UNK         0.1400 
     53 CB          2.3380  -12.3312  -41.1016 C.3       4 UNK        -0.1800 
     54 N           0.4119  -13.8094  -40.8994 N.am      4 UNK        -0.5000 
     55 C          -0.7588  -14.2620  -40.4364 C.2       3 UNK         0.5000 
     56 O          -1.1807  -14.0099  -39.3067 O.2       3 UNK        -0.5000 
     57 CA         -1.5779  -15.1551  -41.3970 C.3       3 UNK         0.1400 
     58 CB         -2.9161  -15.6165  -40.7923 C.3       3 UNK        -0.1800 
     59 N          -1.8389  -14.5473  -42.7055 N.am      3 UNK        -0.5000 
     60 C          -0.9408  -14.4046  -43.6861 C.2       2 UNK         0.5000 
     61 O           0.2471  -14.7159  -43.5672 O.2       2 UNK        -0.5000 
     62 CA         -1.4382  -13.7991  -45.0062 C.3       2 UNK         0.1400 
     63 CB         -1.7309  -12.2950  -44.8535 C.3       2 UNK        -0.1800 
     64 N          -0.3966  -14.0057  -46.0046 N.am      2 UNK        -0.5000 
     65 C          -0.5411  -13.9733  -47.3315 C.2       1 UNK         0.5000 
     66 O          -1.6141  -13.7634  -47.9026 O.2       1 UNK        -0.5000 
     67 C          -0.1647  -20.0936  -47.7534 C.2       11 UNK         0.5000 
     68 O          -0.5679  -20.4171  -48.8700 O.2       11 UNK        -0.5000 
     69 N          -0.7683  -19.1720  -46.9895 N.am      12 UNK        -0.5000 
     70 CA         -1.9842  -18.4503  -47.3661 C.3       12 UNK         0.1400 
     71 CB         -2.2851  -17.3637  -46.3233 C.3       12 UNK        -0.1800 
     72 C          -3.1970  -19.3771  -47.5638 C.2       12 UNK         0.5000 
     73 O          -3.9334  -19.2040  -48.5347 O.2       12 UNK        -0.5000 
     74 N          -3.3628  -20.3596  -46.6677 N.am      13 UNK        -0.5000 
     75 CA         -4.4048  -21.3848  -46.7350 C.3       13 UNK         0.1400 
     76 CB         -4.4563  -22.1516  -45.4050 C.3       13 UNK        -0.1800 
     77 C          -4.2191  -22.3558  -47.9153 C.2       13 UNK         0.5000 
     78 O          -5.2077  -22.7362  -48.5426 O.2       13 UNK        -0.5000 
     79 N          -2.9637  -22.7266  -48.2076 N.am      14 UNK        -0.5000 
     80 CA         -2.5891  -23.5536  -49.3569 C.3       14 UNK         0.1400 
     81 CB         -1.1226  -23.9926  -49.2241 C.3       14 UNK        -0.1800 
     82 C          -2.8175  -22.8429  -50.7026 C.2       14 UNK         0.5000 
     83 O          -3.1319  -23.5083  -51.6888 O.2       14 UNK        -0.5000 
     84 N          -2.6613  -21.5132  -50.7154 N.am      15 UNK        -0.5000 
     85 CA         -2.9427  -20.6629  -51.8627 C.3       15 UNK         0.1400 
     86 CB         -2.1717  -19.3387  -51.7304 C.3       15 UNK        -0.1800 
     87 C          -4.4505  -20.4305  -52.0330 C.2       15 UNK         0.5000 
     88 O          -5.0118  -20.8313  -53.0532 O.2       15 UNK        -0.5000 
     89 N          -5.0671  -19.7601  -51.0479 N.am      16 UNK        -0.5000 
     90 CA         -6.4594  -19.2951  -51.0248 C.3       16 UNK         0.1400 
     91 CB         -7.4223  -20.4861  -50.8562 C.3       16 UNK        -0.1800 
     92 C          -6.8034  -18.4187  -52.2492 C.2       16 UNK         0.5000 
     93 O          -7.8023  -18.6627  -52.9254 O.2       16 UNK        -0.5000 
     94 N          -5.9207  -17.4540  -52.5555 N.am      17 UNK        -0.5000 
     95 CA         -5.9376  -16.6046  -53.7581 C.3       17 UNK         0.1400 
     96 CB         -7.1484  -15.6478  -53.7439 C.3       17 UNK        -0.1800 
     97 C          -5.8279  -17.4261  -55.0647 C.2       17 UNK         0.5000 
     98 O          -6.4660  -17.0996  -56.0660 O.2       17 UNK        -0.5000 
     99 N          -5.0285  -18.5004  -54.9958 N.am      18 UNK        -0.5000 
    100 CA        -4.7663  -19.5388  -55.9991 C.3       18 UNK         0.1400 
    101 CB        -4.2647  -18.9375  -57.3275 C.3       18 UNK        -0.1800 
    102 C         -5.9237  -20.5378  -56.2145 C.2       18 UNK         0.5000 
    103 O         -5.7514  -21.4829  -56.9862 O.2       18 UNK        -0.5000 
    104 N         -7.0605  -20.3630  -55.5237 N.am      19 UNK        -0.5000 
    105 CA        -8.2462  -21.2124  -55.6606 C.3       19 UNK         0.1400 
    106 CB        -9.4598  -20.5094  -55.0346 C.3       19 UNK        -0.1800 
    107 C         -8.0750  -22.6207  -55.0605 C.2       19 UNK         0.5000 
    108 O         -8.7671  -23.5410  -55.4975 O.2       19 UNK        -0.5000 
    109 N         -7.1630  -22.7775  -54.0897 N.am      20 UNK        -0.5000 
    110 CA        -6.8559  -24.0630  -53.4548 C.3       20 UNK         0.1400 
    111 CB        -6.5120  -23.8367  -51.9736 C.3       20 UNK        -0.1800 
    112 C         -5.7559  -24.8568  -54.1910 C.2       20 UNK         0.5000 
    113 O         -5.4492  -25.9710  -53.7653 O.2       20 UNK        -0.5000 
    114 N         -5.2156  -24.2971  -55.2875 N.am      21 UNK        -0.5000 
    115 CA        -4.1859  -24.8603  -56.1679 C.3       21 UNK         0.1400 
    116 CB        -4.7059  -26.1202  -56.8918 C.3       21 UNK        -0.1800 
    117 C         -2.8585  -25.0975  -55.4204 C.2       21 UNK         0.5000 
    118 O         -2.5230  -26.2349  -55.0828 O.2       21 UNK        -0.5000 
    119 N         -2.1516  -23.9918  -55.1571 N.am      22 UNK        -0.5000 
    120 CA        -0.8683  -23.9272  -54.4390 C.3       22 UNK         0.1400 
    121 C          0.2461  -24.8388  -55.0317 C.2       22 UNK         0.5000 
    122 N          1.0647  -25.4577  -54.1920 N.am      22 UNK        -0.7600 
    123 O          0.4020  -24.9497  -56.2461 O.2       22 UNK        -0.5000 
    124 C124       -0.3779  -22.4578  -54.3430 C.3       23 UNK        -0.0398 
    125 S125        0.4166  -22.0876  -52.7438 S.3       23 UNK        -0.2404 
    126 C126        1.8093  -21.0492  -53.2768 C.3       23 UNK        -0.0205 
    127 H127        1.8598  -10.8220  -50.8764 H         1 UNK         0.0600 
    128 H128        0.1270  -10.5691  -50.6395 H         1 UNK         0.0600 
    129 H129        0.7024  -12.0091  -51.4843 H         1 UNK         0.0600 
    130 H130        0.5507  -13.8284  -50.2014 H         1 UNK         0.3000 
    131 H131        1.5834  -13.9287  -47.5143 H         1 UNK         0.0600 
    132 H132        0.7010  -16.3595  -47.6352 H         1 UNK         0.0800 
    133 H133        2.0141  -15.8862  -48.6537 H         1 UNK         0.0800 
    134 H134        2.1010  -15.6952  -51.0451 H         1 UNK         0.0800 
    135 H135        0.9046  -16.2493  -52.1820 H         1 UNK         0.0800 
    136 H136        0.8822  -18.5199  -52.9318 H         1 UNK         0.1150 
    137 H137        3.5623  -21.3874  -51.2055 H         1 UNK         0.1150 
    138 H138        3.2436  -17.4678  -49.5144 H         1 UNK         0.1150 
    139 H139        5.3437  -20.3544  -49.5963 H         1 UNK         0.0800 
    140 H140        4.8926  -18.9503  -48.6655 H         1 UNK         0.0800 
    141 H141        2.2032  -19.0770  -47.8819 H         1 UNK         0.0800 
    142 H142        2.6232  -19.5353  -46.2782 H         1 UNK         0.0800 
    143 H143        1.1931  -21.7152  -47.7511 H         1 UNK         0.0600 
    144 H144        1.4103  -20.8574  -45.0573 H         1 UNK         0.3000 
    145 H145       -1.3027  -22.8010  -43.7463 H         1 UNK         0.0600 
    146 H146        0.5589  -23.4960  -42.2644 H         1 UNK         0.0600 
    147 H147        1.7436  -22.8968  -43.4219 H         1 UNK         0.0600 
    148 H148        0.7137  -24.2592  -43.8400 H         1 UNK         0.0600 
    149 H149        0.4329  -20.9617  -42.4666 H         1 UNK         0.3000 
    150 H150       -1.5511  -18.0059  -43.0089 H         1 UNK         0.0600 
    151 H151       -2.4836  -19.1427  -41.0308 H         1 UNK         0.0600 
    152 H152       -1.2097  -18.0604  -40.4936 H         1 UNK         0.0600 
    153 H153       -0.9090  -19.7856  -40.5913 H         1 UNK         0.0600 
    154 H154        0.9265  -18.3263  -41.6936 H         1 UNK         0.3000 
    155 H155        3.1126  -17.9530  -44.5038 H         1 UNK         0.0600 
    156 H156        2.6595  -15.6587  -43.8580 H         1 UNK         0.0600 
    157 H157        3.9978  -16.2261  -42.8787 H         1 UNK         0.0600 
    158 H158        2.3838  -16.1032  -42.1794 H         1 UNK         0.0600 
    159 H159        3.5015  -18.3871  -41.6865 H         1 UNK         0.3000 
    160 H160        3.6896  -21.9360  -41.8375 H         1 UNK         0.0600 
    161 H161        5.8783  -19.8113  -41.5103 H         1 UNK         0.0600 
    162 H162        5.9171  -21.1515  -42.6500 H         1 UNK         0.0600 
    163 H163        5.9478  -21.4732  -40.9236 H         1 UNK         0.0600 
    164 H164        4.1363  -20.0002  -39.7569 H         1 UNK         0.3000 
    165 H165        0.7685  -19.9127  -38.5681 H         1 UNK         0.0600 
    166 H166        1.9001  -20.6144  -36.4865 H         1 UNK         0.0600 
    167 H167        1.8036  -21.9720  -37.5959 H         1 UNK         0.0600 
    168 H168        3.3285  -21.1186  -37.3902 H         1 UNK         0.0600 
    169 H169        3.0504  -18.6271  -37.5413 H         1 UNK         0.3000 
    170 H170        2.7430  -16.1579  -37.6262 H         1 UNK         0.0600 
    171 H171        4.5719  -16.5113  -40.0896 H         1 UNK         0.0600 
    172 H172        4.8822  -15.4134  -38.7477 H         1 UNK         0.0600 
    173 H173        4.9047  -17.1474  -38.4818 H         1 UNK         0.0600 
    174 H174        1.6954  -15.5929  -40.2234 H         1 UNK         0.3000 
    175 H175        0.8802  -12.3046  -39.5240 H         1 UNK         0.0600 
    176 H176        2.8779  -13.0359  -41.7357 H         1 UNK         0.0600 
    177 H177        1.7833  -11.6534  -41.7506 H         1 UNK         0.0600 
    178 H178        3.0786  -11.7354  -40.5664 H         1 UNK         0.0600 
    179 H179        0.6578  -14.0497  -41.8565 H         1 UNK         0.3000 
    180 H180       -0.9678  -16.0430  -41.5627 H         1 UNK         0.0600 
    181 H181       -3.5884  -14.7761  -40.6160 H         1 UNK         0.0600 
    182 H182       -2.7639  -16.1223  -39.8380 H         1 UNK         0.0600 
    183 H183       -3.4235  -16.3216  -41.4511 H         1 UNK         0.0600 
    184 H184       -2.7833  -14.2253  -42.8610 H         1 UNK         0.3000 
    185 H185       -2.3433  -14.3280  -45.3113 H         1 UNK         0.0600 
    186 H186       -0.8421  -11.7442  -44.5429 H         1 UNK         0.0600 
    187 H187       -2.0805  -11.8615  -45.7906 H         1 UNK         0.0600 
    188 H188       -2.5065  -12.1162  -44.1082 H         1 UNK         0.0600 
    189 H189        0.4992  -14.2373  -45.5910 H         1 UNK         0.3000 
    190 H190       -0.3516  -18.9232  -46.0951 H         1 UNK         0.3000 
    191 H191       -1.7913  -17.9585  -48.3204 H         1 UNK         0.0600 
    192 H192       -1.4335  -16.6972  -46.1958 H         1 UNK         0.0600 
    193 H193       -2.5204  -17.7910  -45.3487 H         1 UNK         0.0600 
    194 H194       -3.1349  -16.7531  -46.6304 H         1 UNK         0.0600 
    195 H195       -2.7454  -20.3930  -45.8601 H         1 UNK         0.3000 
    196 H196       -5.3628  -20.8789  -46.8716 H         1 UNK         0.0600 
    197 H197       -4.6724  -21.4818  -44.5726 H         1 UNK         0.0600 
    198 H198       -3.5113  -22.6530  -45.1934 H         1 UNK         0.0600 
    199 H199       -5.2371  -22.9129  -45.4219 H         1 UNK         0.0600 
    200 H200       -2.2077  -22.4283  -47.5982 H         1 UNK         0.3000 
    201 H201       -3.2145  -24.4486  -49.3460 H         1 UNK         0.0600 
    202 H202       -0.9631  -24.5671  -48.3117 H         1 UNK         0.0600 
    203 H203       -0.4470  -23.1370  -49.2052 H         1 UNK         0.0600 
    204 H204       -0.8268  -24.6237  -50.0631 H         1 UNK         0.0600 
    205 H205       -2.3128  -21.0581  -49.8794 H         1 UNK         0.3000 
    206 H206       -2.5887  -21.1656  -52.7619 H         1 UNK         0.0600 
    207 H207       -1.0991  -19.5212  -51.6735 H         1 UNK         0.0600 
    208 H208       -2.4519  -18.7840  -50.8348 H         1 UNK         0.0600 
    209 H209       -2.3469  -18.6922  -52.5907 H         1 UNK         0.0600 
    210 H210       -4.5275  -19.5225  -50.2164 H         1 UNK         0.3000 
    211 H211       -6.5585  -18.6589  -50.1443 H         1 UNK         0.0600 
    212 H212       -7.4522  -21.1057  -51.7514 H         1 UNK         0.0600 
    213 H213       -8.4391  -20.1409  -50.6668 H         1 UNK         0.0600 
    214 H214       -7.1290  -21.1178  -50.0175 H         1 UNK         0.0600 
    215 H215       -5.1282  -17.3294  -51.9411 H         1 UNK         0.3000 
    216 H216       -5.0367  -15.9912  -53.7124 H         1 UNK         0.0600 
    217 H217       -7.0830  -14.9241  -54.5571 H         1 UNK         0.0600 
    218 H218       -7.1942  -15.0839  -52.8123 H         1 UNK         0.0600 
    219 H219       -8.0919  -16.1820  -53.8595 H         1 UNK         0.0600 
    220 H220       -4.6211  -18.6948  -54.0932 H         1 UNK         0.3000 
    221 H221       -3.9473  -20.1309  -55.5883 H         1 UNK         0.0600 
    222 H222       -5.0525  -18.4004  -57.8557 H         1 UNK         0.0600 
    223 H223       -3.4374  -18.2473  -57.1621 H         1 UNK         0.0600 
    224 H224       -3.9043  -19.7194  -57.9969 H         1 UNK         0.0600 
    225 H225       -7.1237  -19.6006  -54.8605 H         1 UNK         0.3000 
    226 H226       -8.4456  -21.3335  -56.7275 H         1 UNK         0.0600 
    227 H227       -9.5736  -19.4943  -55.4155 H         1 UNK         0.0600 
    228 H228      -10.3798  -21.0487  -55.2629 H         1 UNK         0.0600 
    229 H229       -9.3780  -20.4563  -53.9488 H         1 UNK         0.0600 
    230 H230       -6.6025  -21.9823  -53.7986 H         1 UNK         0.3000 
    231 H231       -7.7456  -24.6958  -53.4756 H         1 UNK         0.0600 
    232 H232       -6.1902  -24.7599  -51.4904 H         1 UNK         0.0600 
    233 H233       -7.3794  -23.4756  -51.4219 H         1 UNK         0.0600 
    234 H234       -5.7125  -23.1097  -51.8501 H         1 UNK         0.0600 
    235 H235       -5.5500  -23.3790  -55.5486 H         1 UNK         0.3000 
    236 H236       -3.9930  -24.1085  -56.9352 H         1 UNK         0.0600 
    237 H237       -4.9243  -26.9338  -56.1998 H         1 UNK         0.0600 
    238 H238       -5.6160  -25.9041  -57.4513 H         1 UNK         0.0600 
    239 H239       -3.9664  -26.4895  -57.6032 H         1 UNK         0.0600 
    240 H240       -2.5187  -23.1096  -55.4784 H         1 UNK         0.3000 
    241 H241       -1.0929  -24.2908  -53.4343 H         1 UNK         0.0600 
    242 H242        1.8009  -26.0386  -54.5622 H         1 UNK         0.3800 
    243 H243        0.9701  -25.3546  -53.1935 H         1 UNK         0.3800 
    244 H244       -1.2109  -21.7623  -54.4401 H         1 UNK         0.0800 
    245 H245        0.2895  -22.2092  -55.1705 H         1 UNK         0.0800 
    246 H246        1.5468  -20.5059  -54.1857 H         1 UNK         0.0800 
    247 H247        2.6582  -21.6853  -53.5319 H         1 UNK         0.0800 
@<TRIPOS>BOND
     1    1    2 1    
     2    1  127 1    
     3    1  128 1    
     4    1  129 1    
     5    2    3 2    
     6    2    4 am   BACKBONE|DICT|INTERRES
     7    4    5 1    
     8    4  130 1    
     9    5    6 1    
    10    5   65 1    
    11    5  131 1    
    12    6    7 1    
    13    6  132 1    
    14    6  133 1    
    15    7    8 1    
    16    8    9 1    
    17    8  134 1    
    18    8  135 1    
    19    9   10 ar   
    20    9   14 ar   
    21   10   11 ar   
    22   10  136 1    
    23   11   12 ar   
    24   11  126 1    
    25   12   13 ar   
    26   12  137 1    
    27   13   14 ar   
    28   13   15 1    
    29   14  138 1    
    30   15   16 1    
    31   15  139 1    
    32   15  140 1    
    33   16   17 1    
    34   17   18 1    
    35   17  141 1    
    36   17  142 1    
    37   18   19 1    
    38   18   67 1    
    39   18  143 1    
    40   19   20 am   BACKBONE|DICT|INTERRES
    41   19  144 1    
    42   20   21 2    
    43   20   22 1    
    44   22   23 1    
    45   22   24 1    
    46   22  145 1    
    47   23  146 1    
    48   23  147 1    
    49   23  148 1    
    50   24   25 am   BACKBONE|DICT|INTERRES
    51   24  149 1    
    52   25   26 2    
    53   25   27 1    
    54   27   28 1    
    55   27   29 1    
    56   27  150 1    
    57   28  151 1    
    58   28  152 1    
    59   28  153 1    
    60   29   30 am   BACKBONE|DICT|INTERRES
    61   29  154 1    
    62   30   31 2    
    63   30   32 1    
    64   32   33 1    
    65   32   34 1    
    66   32  155 1    
    67   33  156 1    
    68   33  157 1    
    69   33  158 1    
    70   34   35 am   BACKBONE|DICT|INTERRES
    71   34  159 1    
    72   35   36 2    
    73   35   37 1    
    74   37   38 1    
    75   37   39 1    
    76   37  160 1    
    77   38  161 1    
    78   38  162 1    
    79   38  163 1    
    80   39   40 am   BACKBONE|DICT|INTERRES
    81   39  164 1    
    82   40   41 2    
    83   40   42 1    
    84   42   43 1    
    85   42   44 1    
    86   42  165 1    
    87   43  166 1    
    88   43  167 1    
    89   43  168 1    
    90   44   45 am   BACKBONE|DICT|INTERRES
    91   44  169 1    
    92   45   46 2    
    93   45   47 1    
    94   47   48 1    
    95   47   49 1    
    96   47  170 1    
    97   48  171 1    
    98   48  172 1    
    99   48  173 1    
   100   49   50 am   BACKBONE|DICT|INTERRES
   101   49  174 1    
   102   50   51 2    
   103   50   52 1    
   104   52   53 1    
   105   52   54 1    
   106   52  175 1    
   107   53  176 1    
   108   53  177 1    
   109   53  178 1    
   110   54   55 am   BACKBONE|DICT|INTERRES
   111   54  179 1    
   112   55   56 2    
   113   55   57 1    
   114   57   58 1    
   115   57   59 1    
   116   57  180 1    
   117   58  181 1    
   118   58  182 1    
   119   58  183 1    
   120   59   60 am   BACKBONE|DICT|INTERRES
   121   59  184 1    
   122   60   61 2    
   123   60   62 1    
   124   62   63 1    
   125   62   64 1    
   126   62  185 1    
   127   63  186 1    
   128   63  187 1    
   129   63  188 1    
   130   64   65 am   BACKBONE|DICT|INTERRES
   131   64  189 1    
   132   65   66 2    
   133   67   68 2    
   134   67   69 am   BACKBONE|DICT|INTERRES
   135   69   70 1    
   136   69  190 1    
   137   70   71 1    
   138   70   72 1    
   139   70  191 1    
   140   71  192 1    
   141   71  193 1    
   142   71  194 1    
   143   72   73 2    
   144   72   74 am   BACKBONE|DICT|INTERRES
   145   74   75 1    
   146   74  195 1    
   147   75   76 1    
   148   75   77 1    
   149   75  196 1    
   150   76  197 1    
   151   76  198 1    
   152   76  199 1    
   153   77   78 2    
   154   77   79 am   BACKBONE|DICT|INTERRES
   155   79   80 1    
   156   79  200 1    
   157   80   81 1    
   158   80   82 1    
   159   80  201 1    
   160   81  202 1    
   161   81  203 1    
   162   81  204 1    
   163   82   83 2    
   164   82   84 am   BACKBONE|DICT|INTERRES
   165   84   85 1    
   166   84  205 1    
   167   85   86 1    
   168   85   87 1    
   169   85  206 1    
   170   86  207 1    
   171   86  208 1    
   172   86  209 1    
   173   87   88 2    
   174   87   89 am   BACKBONE|DICT|INTERRES
   175   89   90 1    
   176   89  210 1    
   177   90   91 1    
   178   90   92 1    
   179   90  211 1    
   180   91  212 1    
   181   91  213 1    
   182   91  214 1    
   183   92   93 2    
   184   92   94 am   BACKBONE|DICT|INTERRES
   185   94   95 1    
   186   94  215 1    
   187   95   96 1    
   188   95   97 1    
   189   95  216 1    
   190   96  217 1    
   191   96  218 1    
   192   96  219 1    
   193   97   98 2    
   194   97   99 am   BACKBONE|DICT|INTERRES
   195   99  100 1    
   196   99  220 1    
   197  100  101 1    
   198  100  102 1    
   199  100  221 1    
   200  101  222 1    
   201  101  223 1    
   202  101  224 1    
   203  102  103 2    
   204  102  104 am   BACKBONE|DICT|INTERRES
   205  104  105 1    
   206  104  225 1    
   207  105  106 1    
   208  105  107 1    
   209  105  226 1    
   210  106  227 1    
   211  106  228 1    
   212  106  229 1    
   213  107  108 2    
   214  107  109 am   BACKBONE|DICT|INTERRES
   215  109  110 1    
   216  109  230 1    
   217  110  111 1    
   218  110  112 1    
   219  110  231 1    
   220  111  232 1    
   221  111  233 1    
   222  111  234 1    
   223  112  113 2    
   224  112  114 am   BACKBONE|DICT|INTERRES
   225  114  115 1    
   226  114  235 1    
   227  115  116 1    
   228  115  117 1    
   229  115  236 1    
   230  116  237 1    
   231  116  238 1    
   232  116  239 1    
   233  117  118 2    
   234  117  119 am   BACKBONE|DICT|INTERRES
   235  119  120 1    
   236  119  240 1    
   237  120  121 1    
   238  120  124 1    
   239  120  241 1    
   240  121  122 am   BACKBONE|DICT|INTERRES
   241  121  123 2    
   242  122  242 1    
   243  122  243 1    
   244  124  125 1    
   245  124  244 1    
   246  124  245 1    
   247  125  126 1    
   248  126  246 1    
   249  126  247 1    
@<TRIPOS>SUBSTRUCTURE
     1 UNK         1 GROUP             0       ****    0 ROOT    
