@<TRIPOS>MOLECULE
3R540
247   249    1
SMALL
USER_CHARGES


@<TRIPOS>ATOM
      1 CA         -2.3178  -13.1530  -49.0917 C.3       0 UNK        -0.1800 
      2 C          -0.8863  -13.1254  -48.5786 C.2       0 UNK         0.5000 
      3 O          -0.6123  -13.6255  -47.4883 O.2       0 UNK        -0.5000 
      4 N           0.0273  -12.5275  -49.3576 N.am      1 UNK        -0.5000 
      5 CA          1.4667  -12.3895  -49.0671 C.3       1 UNK         0.1400 
      6 C6          2.2117  -13.7533  -48.9709 C.3       23 UNK        -0.0398 
      7 S7          2.1321  -14.7562  -50.4936 S.3       23 UNK        -0.2404 
      8 C8          0.6530  -15.7811  -50.2030 C.3       23 UNK        -0.0205 
      9 C9          0.7924  -17.1798  -50.7862 C.ar      23 UNK        -0.0193 
     10 C10         1.0205  -17.3581  -52.1545 C.ar      23 UNK        -0.1150 
     11 C11         1.1182  -18.6416  -52.7013 C.ar      23 UNK        -0.0193 
     12 C12         0.9747  -19.7542  -51.8666 C.ar      23 UNK        -0.1150 
     13 C13         0.7234  -19.5890  -50.5014 C.ar      23 UNK        -0.0193 
     14 C14         0.6476  -18.3015  -49.9638 C.ar      23 UNK        -0.1150 
     15 C15         0.4946  -20.8007  -49.6155 C.3       23 UNK        -0.0205 
     16 S16         2.0603  -21.4917  -49.0104 S.3       23 UNK        -0.2404 
     17 C17         1.4029  -22.9396  -48.1267 C.3       23 UNK        -0.0398 
     18 CA          2.4248  -23.5816  -47.1593 C.3       11 UNK         0.1400 
     19 N           2.7727  -22.6812  -46.0528 N.am      11 UNK        -0.5000 
     20 C           3.8384  -22.8348  -45.2557 C.2       10 UNK         0.5000 
     21 O           4.6918  -23.7082  -45.4170 O.2       10 UNK        -0.5000 
     22 CA          3.9498  -21.8804  -44.0516 C.3       10 UNK         0.1400 
     23 CB          4.6133  -20.5571  -44.4618 C.3       10 UNK        -0.1800 
     24 N           2.6573  -21.6150  -43.4126 N.am      10 UNK        -0.5000 
     25 C           1.9271  -22.5385  -42.7690 C.2       9 UNK         0.5000 
     26 O           2.2857  -23.7059  -42.6161 O.2       9 UNK        -0.5000 
     27 CA          0.5486  -22.1070  -42.2342 C.3       9 UNK         0.1400 
     28 CB          0.6883  -21.4508  -40.8532 C.3       9 UNK        -0.1800 
     29 N          -0.1733  -21.2086  -43.1358 N.am      9 UNK        -0.5000 
     30 C          -0.5692  -21.5259  -44.3776 C.2       8 UNK         0.5000 
     31 O          -0.3695  -22.6196  -44.9040 O.2       8 UNK        -0.5000 
     32 CA         -1.2319  -20.4045  -45.1972 C.3       8 UNK         0.1400 
     33 CB         -2.6649  -20.1430  -44.7096 C.3       8 UNK        -0.1800 
     34 N          -0.4608  -19.1627  -45.1453 N.am      8 UNK        -0.5000 
     35 C           0.8193  -19.0363  -45.5258 C.2       7 UNK         0.5000 
     36 O           1.4772  -19.9425  -46.0344 O.2       7 UNK        -0.5000 
     37 CA          1.4892  -17.6869  -45.2215 C.3       7 UNK         0.1400 
     38 CB          1.1069  -16.6400  -46.2806 C.3       7 UNK        -0.1800 
     39 N           1.1330  -17.2194  -43.8782 N.am      7 UNK        -0.5000 
     40 C           1.6059  -17.7716  -42.7488 C.2       6 UNK         0.5000 
     41 O           2.4523  -18.6644  -42.7367 O.2       6 UNK        -0.5000 
     42 CA          1.0040  -17.3001  -41.4104 C.3       6 UNK         0.1400 
     43 CB          1.8558  -16.2064  -40.7500 C.3       6 UNK        -0.1800 
     44 N          -0.3782  -16.8426  -41.5457 N.am      6 UNK        -0.5000 
     45 C          -1.4167  -17.6759  -41.7028 C.2       5 UNK         0.5000 
     46 O          -1.3075  -18.9016  -41.6964 O.2       5 UNK        -0.5000 
     47 CA         -2.7972  -17.0427  -41.9645 C.3       5 UNK         0.1400 
     48 CB         -3.5317  -16.7853  -40.6410 C.3       5 UNK        -0.1800 
     49 N          -2.7328  -15.7969  -42.7317 N.am      5 UNK        -0.5000 
     50 C          -2.2148  -15.6813  -43.9617 C.2       4 UNK         0.5000 
     51 O          -1.7571  -16.6351  -44.5903 O.2       4 UNK        -0.5000 
     52 CA         -2.1530  -14.2714  -44.5810 C.3       4 UNK         0.1400 
     53 CB         -3.1471  -13.2713  -43.9522 C.3       4 UNK        -0.1800 
     54 N          -0.7980  -13.7086  -44.5665 N.am      4 UNK        -0.5000 
     55 C           0.0020  -13.5344  -43.5015 C.2       3 UNK         0.5000 
     56 O          -0.2673  -13.9428  -42.3707 O.2       3 UNK        -0.5000 
     57 CA          1.3164  -12.7545  -43.7125 C.3       3 UNK         0.1400 
     58 CB          2.5140  -13.6950  -43.9241 C.3       3 UNK        -0.1800 
     59 N           1.2778  -11.8066  -44.8231 N.am      3 UNK        -0.5000 
     60 C           0.5550  -10.6837  -44.8957 C.2       2 UNK         0.5000 
     61 O          -0.1817  -10.2890  -43.9916 O.2       2 UNK        -0.5000 
     62 CA          0.6579   -9.8660  -46.2032 C.3       2 UNK         0.1400 
     63 CB          1.7906   -8.8252  -46.1203 C.3       2 UNK        -0.1800 
     64 N           0.7604  -10.6803  -47.4259 N.am      2 UNK        -0.5000 
     65 C           1.7419  -11.5082  -47.8216 C.2       1 UNK         0.5000 
     66 O           2.8069  -11.6272  -47.2141 O.2       1 UNK        -0.5000 
     67 C           1.8649  -24.9360  -46.6691 C.2       11 UNK         0.5000 
     68 O           1.8708  -25.8972  -47.4391 O.2       11 UNK        -0.5000 
     69 N           1.3490  -24.9694  -45.4308 N.am      12 UNK        -0.5000 
     70 CA          0.5070  -26.0161  -44.8409 C.3       12 UNK         0.1400 
     71 CB          1.2763  -27.3446  -44.6881 C.3       12 UNK        -0.1800 
     72 C          -0.8309  -26.1566  -45.6013 C.2       12 UNK         0.5000 
     73 O          -1.3090  -27.2689  -45.8322 O.2       12 UNK        -0.5000 
     74 N          -1.3917  -25.0072  -45.9933 N.am      13 UNK        -0.5000 
     75 CA         -2.6342  -24.8605  -46.7408 C.3       13 UNK         0.1400 
     76 CB         -2.3857  -23.8727  -47.8934 C.3       13 UNK        -0.1800 
     77 C          -3.7489  -24.3340  -45.8231 C.2       13 UNK         0.5000 
     78 O          -3.4737  -23.7968  -44.7476 O.2       13 UNK        -0.5000 
     79 N          -4.9979  -24.4728  -46.2838 N.am      14 UNK        -0.5000 
     80 CA         -6.1948  -23.9921  -45.5879 C.3       14 UNK         0.1400 
     81 CB         -7.4278  -24.6859  -46.1881 C.3       14 UNK        -0.1800 
     82 C          -6.3655  -22.4600  -45.6409 C.2       14 UNK         0.5000 
     83 O          -7.0627  -21.9024  -44.7924 O.2       14 UNK        -0.5000 
     84 N          -5.7433  -21.8100  -46.6308 N.am      15 UNK        -0.5000 
     85 CA         -5.7890  -20.3727  -46.8674 C.3       15 UNK         0.1400 
     86 CB         -7.0909  -20.0090  -47.6049 C.3       15 UNK        -0.1800 
     87 C          -4.5638  -19.9657  -47.6947 C.2       15 UNK         0.5000 
     88 O          -3.9603  -20.8147  -48.3588 O.2       15 UNK        -0.5000 
     89 N          -4.2337  -18.6679  -47.6636 N.am      16 UNK        -0.5000 
     90 CA         -3.1902  -18.0590  -48.4904 C.3       16 UNK         0.1400 
     91 CB         -2.9874  -16.5988  -48.0654 C.3       16 UNK        -0.1800 
     92 C          -3.5354  -18.1538  -49.9887 C.2       16 UNK         0.5000 
     93 O          -4.7133  -18.2380  -50.3427 O.2       16 UNK        -0.5000 
     94 N          -2.4941  -18.2039  -50.8292 N.am      17 UNK        -0.5000 
     95 CA         -2.5365  -18.5151  -52.2657 C.3       17 UNK         0.1400 
     96 CB         -3.3575  -17.4717  -53.0510 C.3       17 UNK        -0.1800 
     97 C          -2.9799  -19.9632  -52.5698 C.2       17 UNK         0.5000 
     98 O          -3.2969  -20.2714  -53.7196 O.2       17 UNK        -0.5000 
     99 N          -3.0209  -20.8191  -51.5319 N.am      18 UNK        -0.5000 
    100 CA        -3.6813  -22.1282  -51.4960 C.3       18 UNK         0.1400 
    101 CB        -2.9019  -23.1596  -52.3341 C.3       18 UNK        -0.1800 
    102 C         -5.1669  -21.9919  -51.8911 C.2       18 UNK         0.5000 
    103 O         -5.6441  -22.6913  -52.7873 O.2       18 UNK        -0.5000 
    104 N         -5.8251  -20.9870  -51.2910 N.am      19 UNK        -0.5000 
    105 CA        -7.1023  -20.3682  -51.6658 C.3       19 UNK         0.1400 
    106 CB        -8.2703  -21.3731  -51.6403 C.3       19 UNK        -0.1800 
    107 C         -7.0038  -19.6112  -53.0058 C.2       19 UNK         0.5000 
    108 O         -7.2221  -18.4001  -53.0408 O.2       19 UNK        -0.5000 
    109 N         -6.6356  -20.3347  -54.0668 N.am      20 UNK        -0.5000 
    110 CA        -6.2827  -19.8205  -55.3896 C.3       20 UNK         0.1400 
    111 CB        -7.5596  -19.4158  -56.1540 C.3       20 UNK        -0.1800 
    112 C         -5.4431  -20.8296  -56.2034 C.2       20 UNK         0.5000 
    113 O         -5.1366  -20.5517  -57.3643 O.2       20 UNK        -0.5000 
    114 N         -5.1088  -21.9941  -55.6249 N.am      21 UNK        -0.5000 
    115 CA        -4.5047  -23.1213  -56.3334 C.3       21 UNK         0.1400 
    116 CB        -4.8123  -24.4142  -55.5600 C.3       21 UNK        -0.1800 
    117 C         -2.9922  -22.9901  -56.5980 C.2       21 UNK         0.5000 
    118 O         -2.4687  -23.7972  -57.3682 O.2       21 UNK        -0.5000 
    119 N         -2.3026  -22.0206  -55.9742 N.am      22 UNK        -0.5000 
    120 CA        -0.8467  -21.8362  -56.1400 C.3       22 UNK         0.1400 
    121 C         -0.3892  -21.3161  -57.5388 C.2       22 UNK         0.5000 
    122 N         -1.2805  -20.8119  -58.3847 N.am      22 UNK        -0.7600 
    123 O          0.7926  -21.3884  -57.8655 O.2       22 UNK        -0.5000 
    124 C124       -0.2004  -21.0738  -54.9480 C.3       23 UNK        -0.0398 
    125 S125       -0.2006  -19.2457  -55.0670 S.3       23 UNK        -0.2404 
    126 C126        1.3444  -18.8179  -54.1960 C.3       23 UNK        -0.0205 
    127 H127       -3.0198  -13.2026  -48.2591 H         1 UNK         0.0600 
    128 H128       -2.4751  -14.0246  -49.7263 H         1 UNK         0.0600 
    129 H129       -2.5455  -12.2594  -49.6729 H         1 UNK         0.0600 
    130 H130       -0.2672  -12.1362  -50.2418 H         1 UNK         0.3000 
    131 H131        1.8925  -11.8413  -49.9087 H         1 UNK         0.0600 
    132 H132        1.8571  -14.3370  -48.1214 H         1 UNK         0.0800 
    133 H133        3.2740  -13.5877  -48.7840 H         1 UNK         0.0800 
    134 H134        0.4427  -15.8381  -49.1350 H         1 UNK         0.0800 
    135 H135       -0.2090  -15.2931  -50.6591 H         1 UNK         0.0800 
    136 H136        1.1151  -16.4924  -52.7952 H         1 UNK         0.1150 
    137 H137        1.0384  -20.7498  -52.2816 H         1 UNK         0.1150 
    138 H138        0.4601  -18.1782  -48.9065 H         1 UNK         0.1150 
    139 H139       -0.1322  -20.5328  -48.7631 H         1 UNK         0.0800 
    140 H140       -0.0507  -21.5651  -50.1720 H         1 UNK         0.0800 
    141 H141        0.5050  -22.6449  -47.5804 H         1 UNK         0.0800 
    142 H142        1.0806  -23.6561  -48.8852 H         1 UNK         0.0800 
    143 H143        3.3354  -23.7989  -47.7217 H         1 UNK         0.0600 
    144 H144        2.1566  -21.8883  -45.9007 H         1 UNK         0.3000 
    145 H145        4.5926  -22.3605  -43.3108 H         1 UNK         0.0600 
    146 H146        4.7742  -19.9125  -43.5977 H         1 UNK         0.0600 
    147 H147        4.0088  -20.0069  -45.1825 H         1 UNK         0.0600 
    148 H148        5.5872  -20.7347  -44.9194 H         1 UNK         0.0600 
    149 H149        2.3171  -20.6614  -43.4575 H         1 UNK         0.3000 
    150 H150       -0.0569  -23.0086  -42.1204 H         1 UNK         0.0600 
    151 H151        1.2804  -20.5371  -40.9018 H         1 UNK         0.0600 
    152 H152       -0.2860  -21.1988  -40.4342 H         1 UNK         0.0600 
    153 H153        1.1806  -22.1232  -40.1496 H         1 UNK         0.0600 
    154 H154       -0.4208  -20.2969  -42.7630 H         1 UNK         0.3000 
    155 H155       -1.2752  -20.7209  -46.2414 H         1 UNK         0.0600 
    156 H156       -3.3087  -20.9942  -44.9329 H         1 UNK         0.0600 
    157 H157       -3.0942  -19.2648  -45.1893 H         1 UNK         0.0600 
    158 H158       -2.7089  -19.9800  -43.6336 H         1 UNK         0.0600 
    159 H159       -0.9353  -18.3414  -44.7800 H         1 UNK         0.3000 
    160 H160        2.5720  -17.8241  -45.2595 H         1 UNK         0.0600 
    161 H161        0.0311  -16.5844  -46.4465 H         1 UNK         0.0600 
    162 H162        1.5710  -16.8839  -47.2360 H         1 UNK         0.0600 
    163 H163        1.4462  -15.6450  -46.0057 H         1 UNK         0.0600 
    164 H164        0.3733  -16.5563  -43.8169 H         1 UNK         0.3000 
    165 H165        1.0157  -18.1601  -40.7380 H         1 UNK         0.0600 
    166 H166        1.5386  -16.0377  -39.7209 H         1 UNK         0.0600 
    167 H167        2.9088  -16.4898  -40.7217 H         1 UNK         0.0600 
    168 H168        1.7822  -15.2557  -41.2730 H         1 UNK         0.0600 
    169 H169       -0.5286  -15.8406  -41.6113 H         1 UNK         0.3000 
    170 H170       -3.3811  -17.7587  -42.5464 H         1 UNK         0.0600 
    171 H171       -3.6147  -17.7022  -40.0559 H         1 UNK         0.0600 
    172 H172       -3.0095  -16.0500  -40.0276 H         1 UNK         0.0600 
    173 H173       -4.5440  -16.4201  -40.8157 H         1 UNK         0.0600 
    174 H174       -3.0506  -14.9599  -42.2654 H         1 UNK         0.3000 
    175 H175       -2.4292  -14.3911  -45.6292 H         1 UNK         0.0600 
    176 H176       -2.8983  -13.0333  -42.9174 H         1 UNK         0.0600 
    177 H177       -3.1532  -12.3340  -44.5089 H         1 UNK         0.0600 
    178 H178       -4.1654  -13.6620  -43.9713 H         1 UNK         0.0600 
    179 H179       -0.4624  -13.4134  -45.4781 H         1 UNK         0.3000 
    180 H180        1.4914  -12.1893  -42.7949 H         1 UNK         0.0600 
    181 H181        2.4791  -14.5619  -43.2673 H         1 UNK         0.0600 
    182 H182        3.4510  -13.1755  -43.7228 H         1 UNK         0.0600 
    183 H183        2.5639  -14.0624  -44.9476 H         1 UNK         0.0600 
    184 H184        1.8876  -12.0031  -45.6110 H         1 UNK         0.3000 
    185 H185       -0.2808   -9.3176  -46.2967 H         1 UNK         0.0600 
    186 H186        1.6340   -8.1495  -45.2786 H         1 UNK         0.0600 
    187 H187        2.7666   -9.2909  -45.9831 H         1 UNK         0.0600 
    188 H188        1.8328   -8.2155  -47.0228 H         1 UNK         0.0600 
    189 H189       -0.0763  -10.6891  -47.9920 H         1 UNK         0.3000 
    190 H190        1.3807  -24.1063  -44.9036 H         1 UNK         0.3000 
    191 H191        0.2519  -25.6676  -43.8390 H         1 UNK         0.0600 
    192 H192        0.6934  -28.0662  -44.1147 H         1 UNK         0.0600 
    193 H193        2.2177  -27.1947  -44.1595 H         1 UNK         0.0600 
    194 H194        1.5006  -27.8017  -45.6519 H         1 UNK         0.0600 
    195 H195       -0.9825  -24.1371  -45.6558 H         1 UNK         0.3000 
    196 H196       -2.9458  -25.8210  -47.1563 H         1 UNK         0.0600 
    197 H197       -2.1049  -22.8846  -47.5256 H         1 UNK         0.0600 
    198 H198       -1.5894  -24.2243  -48.5497 H         1 UNK         0.0600 
    199 H199       -3.2793  -23.7528  -48.5055 H         1 UNK         0.0600 
    200 H200       -5.1484  -24.9282  -47.1725 H         1 UNK         0.3000 
    201 H201       -6.1217  -24.2777  -44.5363 H         1 UNK         0.0600 
    202 H202       -8.3390  -24.3773  -45.6738 H         1 UNK         0.0600 
    203 H203       -7.3558  -25.7697  -46.0949 H         1 UNK         0.0600 
    204 H204       -7.5506  -24.4456  -47.2450 H         1 UNK         0.0600 
    205 H205       -5.1429  -22.3179  -47.2668 H         1 UNK         0.3000 
    206 H206       -5.7455  -19.8467  -45.9113 H         1 UNK         0.0600 
    207 H207       -7.9667  -20.2322  -46.9955 H         1 UNK         0.0600 
    208 H208       -7.1276  -18.9459  -47.8458 H         1 UNK         0.0600 
    209 H209       -7.1867  -20.5619  -48.5398 H         1 UNK         0.0600 
    210 H210       -4.8032  -18.0305  -47.1271 H         1 UNK         0.3000 
    211 H211       -2.2622  -18.6056  -48.3076 H         1 UNK         0.0600 
    212 H212       -3.8703  -15.9911  -48.2670 H         1 UNK         0.0600 
    213 H213       -2.1474  -16.1533  -48.5983 H         1 UNK         0.0600 
    214 H214       -2.7648  -16.5261  -47.0025 H         1 UNK         0.0600 
    215 H215       -1.5607  -18.1158  -50.4507 H         1 UNK         0.3000 
    216 H216       -1.5143  -18.4374  -52.6183 H         1 UNK         0.0600 
    217 H217       -3.0419  -16.4572  -52.8085 H         1 UNK         0.0600 
    218 H218       -4.4253  -17.5524  -52.8469 H         1 UNK         0.0600 
    219 H219       -3.2243  -17.6040  -54.1254 H         1 UNK         0.0600 
    220 H220       -2.7421  -20.4637  -50.6290 H         1 UNK         0.3000 
    221 H221       -3.6661  -22.4647  -50.4600 H         1 UNK         0.0600 
    222 H222       -3.3497  -24.1500  -52.2474 H         1 UNK         0.0600 
    223 H223       -2.8863  -22.8967  -53.3902 H         1 UNK         0.0600 
    224 H224       -1.8689  -23.2387  -51.9958 H         1 UNK         0.0600 
    225 H225       -5.2919  -20.4336  -50.6312 H         1 UNK         0.3000 
    226 H226       -7.3013  -19.6192  -50.8975 H         1 UNK         0.0600 
    227 H227       -8.3407  -21.8676  -50.6715 H         1 UNK         0.0600 
    228 H228       -9.2188  -20.8644  -51.8155 H         1 UNK         0.0600 
    229 H229       -8.1729  -22.1452  -52.4033 H         1 UNK         0.0600 
    230 H230       -6.4759  -21.3220  -53.9046 H         1 UNK         0.3000 
    231 H231       -5.6559  -18.9365  -55.2556 H         1 UNK         0.0600 
    232 H232       -7.3207  -19.0189  -57.1413 H         1 UNK         0.0600 
    233 H233       -8.1146  -18.6403  -55.6265 H         1 UNK         0.0600 
    234 H234       -8.2257  -20.2678  -56.2937 H         1 UNK         0.0600 
    235 H235       -5.2913  -22.1518  -54.6413 H         1 UNK         0.3000 
    236 H236       -4.9868  -23.2044  -57.3099 H         1 UNK         0.0600 
    237 H237       -5.8858  -24.5463  -55.4232 H         1 UNK         0.0600 
    238 H238       -4.4450  -25.2899  -56.0964 H         1 UNK         0.0600 
    239 H239       -4.3481  -24.4170  -54.5746 H         1 UNK         0.0600 
    240 H240       -2.7801  -21.3827  -55.3440 H         1 UNK         0.3000 
    241 H241       -0.4271  -22.8430  -56.0846 H         1 UNK         0.0600 
    242 H242       -2.2521  -20.7479  -58.1222 H         1 UNK         0.3800 
    243 H243       -0.9801  -20.4836  -59.2889 H         1 UNK         0.3800 
    244 H244        0.8346  -21.4054  -54.8576 H         1 UNK         0.0800 
    245 H245       -0.6762  -21.3651  -54.0111 H         1 UNK         0.0800 
    246 H246        1.7323  -17.8924  -54.6242 H         1 UNK         0.0800 
    247 H247        2.1131  -19.5708  -54.3742 H         1 UNK         0.0800 
@<TRIPOS>BOND
     1    1    2 1    
     2    1  127 1    
     3    1  128 1    
     4    1  129 1    
     5    2    3 2    
     6    2    4 am   BACKBONE|DICT|INTERRES
     7    4    5 1    
     8    4  130 1    
     9    5    6 1    
    10    5   65 1    
    11    5  131 1    
    12    6    7 1    
    13    6  132 1    
    14    6  133 1    
    15    7    8 1    
    16    8    9 1    
    17    8  134 1    
    18    8  135 1    
    19    9   10 ar   
    20    9   14 ar   
    21   10   11 ar   
    22   10  136 1    
    23   11   12 ar   
    24   11  126 1    
    25   12   13 ar   
    26   12  137 1    
    27   13   14 ar   
    28   13   15 1    
    29   14  138 1    
    30   15   16 1    
    31   15  139 1    
    32   15  140 1    
    33   16   17 1    
    34   17   18 1    
    35   17  141 1    
    36   17  142 1    
    37   18   19 1    
    38   18   67 1    
    39   18  143 1    
    40   19   20 am   BACKBONE|DICT|INTERRES
    41   19  144 1    
    42   20   21 2    
    43   20   22 1    
    44   22   23 1    
    45   22   24 1    
    46   22  145 1    
    47   23  146 1    
    48   23  147 1    
    49   23  148 1    
    50   24   25 am   BACKBONE|DICT|INTERRES
    51   24  149 1    
    52   25   26 2    
    53   25   27 1    
    54   27   28 1    
    55   27   29 1    
    56   27  150 1    
    57   28  151 1    
    58   28  152 1    
    59   28  153 1    
    60   29   30 am   BACKBONE|DICT|INTERRES
    61   29  154 1    
    62   30   31 2    
    63   30   32 1    
    64   32   33 1    
    65   32   34 1    
    66   32  155 1    
    67   33  156 1    
    68   33  157 1    
    69   33  158 1    
    70   34   35 am   BACKBONE|DICT|INTERRES
    71   34  159 1    
    72   35   36 2    
    73   35   37 1    
    74   37   38 1    
    75   37   39 1    
    76   37  160 1    
    77   38  161 1    
    78   38  162 1    
    79   38  163 1    
    80   39   40 am   BACKBONE|DICT|INTERRES
    81   39  164 1    
    82   40   41 2    
    83   40   42 1    
    84   42   43 1    
    85   42   44 1    
    86   42  165 1    
    87   43  166 1    
    88   43  167 1    
    89   43  168 1    
    90   44   45 am   BACKBONE|DICT|INTERRES
    91   44  169 1    
    92   45   46 2    
    93   45   47 1    
    94   47   48 1    
    95   47   49 1    
    96   47  170 1    
    97   48  171 1    
    98   48  172 1    
    99   48  173 1    
   100   49   50 am   BACKBONE|DICT|INTERRES
   101   49  174 1    
   102   50   51 2    
   103   50   52 1    
   104   52   53 1    
   105   52   54 1    
   106   52  175 1    
   107   53  176 1    
   108   53  177 1    
   109   53  178 1    
   110   54   55 am   BACKBONE|DICT|INTERRES
   111   54  179 1    
   112   55   56 2    
   113   55   57 1    
   114   57   58 1    
   115   57   59 1    
   116   57  180 1    
   117   58  181 1    
   118   58  182 1    
   119   58  183 1    
   120   59   60 am   BACKBONE|DICT|INTERRES
   121   59  184 1    
   122   60   61 2    
   123   60   62 1    
   124   62   63 1    
   125   62   64 1    
   126   62  185 1    
   127   63  186 1    
   128   63  187 1    
   129   63  188 1    
   130   64   65 am   BACKBONE|DICT|INTERRES
   131   64  189 1    
   132   65   66 2    
   133   67   68 2    
   134   67   69 am   BACKBONE|DICT|INTERRES
   135   69   70 1    
   136   69  190 1    
   137   70   71 1    
   138   70   72 1    
   139   70  191 1    
   140   71  192 1    
   141   71  193 1    
   142   71  194 1    
   143   72   73 2    
   144   72   74 am   BACKBONE|DICT|INTERRES
   145   74   75 1    
   146   74  195 1    
   147   75   76 1    
   148   75   77 1    
   149   75  196 1    
   150   76  197 1    
   151   76  198 1    
   152   76  199 1    
   153   77   78 2    
   154   77   79 am   BACKBONE|DICT|INTERRES
   155   79   80 1    
   156   79  200 1    
   157   80   81 1    
   158   80   82 1    
   159   80  201 1    
   160   81  202 1    
   161   81  203 1    
   162   81  204 1    
   163   82   83 2    
   164   82   84 am   BACKBONE|DICT|INTERRES
   165   84   85 1    
   166   84  205 1    
   167   85   86 1    
   168   85   87 1    
   169   85  206 1    
   170   86  207 1    
   171   86  208 1    
   172   86  209 1    
   173   87   88 2    
   174   87   89 am   BACKBONE|DICT|INTERRES
   175   89   90 1    
   176   89  210 1    
   177   90   91 1    
   178   90   92 1    
   179   90  211 1    
   180   91  212 1    
   181   91  213 1    
   182   91  214 1    
   183   92   93 2    
   184   92   94 am   BACKBONE|DICT|INTERRES
   185   94   95 1    
   186   94  215 1    
   187   95   96 1    
   188   95   97 1    
   189   95  216 1    
   190   96  217 1    
   191   96  218 1    
   192   96  219 1    
   193   97   98 2    
   194   97   99 am   BACKBONE|DICT|INTERRES
   195   99  100 1    
   196   99  220 1    
   197  100  101 1    
   198  100  102 1    
   199  100  221 1    
   200  101  222 1    
   201  101  223 1    
   202  101  224 1    
   203  102  103 2    
   204  102  104 am   BACKBONE|DICT|INTERRES
   205  104  105 1    
   206  104  225 1    
   207  105  106 1    
   208  105  107 1    
   209  105  226 1    
   210  106  227 1    
   211  106  228 1    
   212  106  229 1    
   213  107  108 2    
   214  107  109 am   BACKBONE|DICT|INTERRES
   215  109  110 1    
   216  109  230 1    
   217  110  111 1    
   218  110  112 1    
   219  110  231 1    
   220  111  232 1    
   221  111  233 1    
   222  111  234 1    
   223  112  113 2    
   224  112  114 am   BACKBONE|DICT|INTERRES
   225  114  115 1    
   226  114  235 1    
   227  115  116 1    
   228  115  117 1    
   229  115  236 1    
   230  116  237 1    
   231  116  238 1    
   232  116  239 1    
   233  117  118 2    
   234  117  119 am   BACKBONE|DICT|INTERRES
   235  119  120 1    
   236  119  240 1    
   237  120  121 1    
   238  120  124 1    
   239  120  241 1    
   240  121  122 am   BACKBONE|DICT|INTERRES
   241  121  123 2    
   242  122  242 1    
   243  122  243 1    
   244  124  125 1    
   245  124  244 1    
   246  124  245 1    
   247  125  126 1    
   248  126  246 1    
   249  126  247 1    
@<TRIPOS>SUBSTRUCTURE
     1 UNK         1 GROUP             0       ****    0 ROOT    
