@<TRIPOS>MOLECULE
3R540
247   249    1
SMALL
USER_CHARGES


@<TRIPOS>ATOM
      1 CA          3.8203  -18.5277  -53.6584 C.3       0 UNK        -0.1800 
      2 C           4.0091  -18.3640  -52.1574 C.2       0 UNK         0.5000 
      3 O           5.0610  -18.7229  -51.6269 O.2       0 UNK        -0.5000 
      4 N           3.0020  -17.8129  -51.4682 N.am      1 UNK        -0.5000 
      5 CA          2.9823  -17.5820  -50.0192 C.3       1 UNK         0.1400 
      6 C6          1.5317  -17.5957  -49.4765 C.3       23 UNK        -0.0398 
      7 S7          1.4549  -18.0855  -47.7209 S.3       23 UNK        -0.2404 
      8 C8          0.6986  -16.6249  -46.9528 C.3       23 UNK        -0.0205 
      9 C9         -0.7797  -16.5079  -47.2853 C.ar      23 UNK        -0.0193 
     10 C10        -1.2159  -15.6382  -48.2881 C.ar      23 UNK        -0.1150 
     11 C11        -2.5758  -15.5288  -48.5907 C.ar      23 UNK        -0.0193 
     12 C12        -3.5010  -16.2963  -47.8773 C.ar      23 UNK        -0.1150 
     13 C13        -3.0787  -17.1731  -46.8746 C.ar      23 UNK        -0.0193 
     14 C14        -1.7153  -17.2651  -46.5774 C.ar      23 UNK        -0.1150 
     15 C15        -4.1047  -17.9946  -46.1063 C.3       23 UNK        -0.0205 
     16 S16        -4.0237  -19.7672  -46.5137 S.3       23 UNK        -0.2404 
     17 C17        -2.7398  -20.3614  -45.3612 C.3       23 UNK        -0.0398 
     18 CA         -1.4624  -20.8617  -46.0800 C.3       11 UNK         0.1400 
     19 N          -0.3014  -20.8088  -45.1893 N.am      11 UNK        -0.5000 
     20 C           0.9635  -21.0884  -45.5397 C.2       10 UNK         0.5000 
     21 O           1.3065  -21.4231  -46.6722 O.2       10 UNK        -0.5000 
     22 CA          2.0150  -21.0548  -44.4142 C.3       10 UNK         0.1400 
     23 CB          2.5607  -19.6302  -44.2455 C.3       10 UNK        -0.1800 
     24 N           1.4940  -21.5305  -43.1304 N.am      10 UNK        -0.5000 
     25 C           0.9443  -22.7357  -42.9191 C.2       9 UNK         0.5000 
     26 O           0.9009  -23.6225  -43.7727 O.2       9 UNK        -0.5000 
     27 CA          0.2797  -22.9790  -41.5494 C.3       9 UNK         0.1400 
     28 CB          1.2110  -23.7995  -40.6449 C.3       9 UNK        -0.1800 
     29 N          -0.1388  -21.7674  -40.8314 N.am      9 UNK        -0.5000 
     30 C          -0.9884  -20.8341  -41.2836 C.2       8 UNK         0.5000 
     31 O          -1.4714  -20.8368  -42.4204 O.2       8 UNK        -0.5000 
     32 CA         -1.3290  -19.6998  -40.3050 C.3       8 UNK         0.1400 
     33 CB         -0.1048  -18.8081  -40.0316 C.3       8 UNK        -0.1800 
     34 N          -2.4014  -18.8886  -40.8698 N.am      8 UNK        -0.5000 
     35 C          -3.3774  -18.2853  -40.1823 C.2       7 UNK         0.5000 
     36 O          -3.4746  -18.3314  -38.9543 O.2       7 UNK        -0.5000 
     37 CA         -4.4153  -17.5038  -41.0207 C.3       7 UNK         0.1400 
     38 CB         -5.2895  -16.5532  -40.1751 C.3       7 UNK        -0.1800 
     39 N          -3.8143  -16.7929  -42.1580 N.am      7 UNK        -0.5000 
     40 C          -2.8805  -15.8318  -42.1004 C.2       6 UNK         0.5000 
     41 O          -2.4476  -15.3445  -41.0528 O.2       6 UNK        -0.5000 
     42 CA         -2.3445  -15.3271  -43.4538 C.3       6 UNK         0.1400 
     43 CB         -3.1485  -14.1188  -43.9545 C.3       6 UNK        -0.1800 
     44 N          -0.9324  -14.9627  -43.3633 N.am      6 UNK        -0.5000 
     45 C           0.0600  -15.8372  -43.1664 C.2       5 UNK         0.5000 
     46 O          -0.0897  -17.0599  -43.2087 O.2       5 UNK        -0.5000 
     47 CA          1.4513  -15.2302  -42.9142 C.3       5 UNK         0.1400 
     48 CB          2.4151  -16.2134  -42.2274 C.3       5 UNK        -0.1800 
     49 N           2.0571  -14.7804  -44.1630 N.am      5 UNK        -0.5000 
     50 C           1.8171  -13.6140  -44.7752 C.2       4 UNK         0.5000 
     51 O           1.0010  -12.7906  -44.3570 O.2       4 UNK        -0.5000 
     52 CA          2.6118  -13.3211  -46.0707 C.3       4 UNK         0.1400 
     53 CB          3.0338  -11.8412  -46.1743 C.3       4 UNK        -0.1800 
     54 N           3.7659  -14.2071  -46.2926 N.am      4 UNK        -0.5000 
     55 C           4.8654  -14.3259  -45.5267 C.2       3 UNK         0.5000 
     56 O           5.0562  -13.6853  -44.4930 O.2       3 UNK        -0.5000 
     57 CA          5.9234  -15.3575  -45.9688 C.3       3 UNK         0.1400 
     58 CB          5.7120  -16.6818  -45.2167 C.3       3 UNK        -0.1800 
     59 N           5.9112  -15.6274  -47.4064 N.am      3 UNK        -0.5000 
     60 C           6.2371  -14.7459  -48.3619 C.2       2 UNK         0.5000 
     61 O           6.6853  -13.6226  -48.1293 O.2       2 UNK        -0.5000 
     62 CA          6.0062  -15.1807  -49.8238 C.3       2 UNK         0.1400 
     63 CB          7.3384  -15.5547  -50.4914 C.3       2 UNK        -0.1800 
     64 N           5.0676  -16.2958  -49.9928 N.am      2 UNK        -0.5000 
     65 C           3.7730  -16.3054  -49.6469 C.2       1 UNK         0.5000 
     66 O           3.2206  -15.3650  -49.0720 O.2       1 UNK        -0.5000 
     67 C          -1.6772  -22.2738  -46.6595 C.2       11 UNK         0.5000 
     68 O          -1.9244  -22.4116  -47.8573 O.2       11 UNK        -0.5000 
     69 N          -1.5473  -23.2934  -45.7992 N.am      12 UNK        -0.5000 
     70 CA         -1.6605  -24.7028  -46.1644 C.3       12 UNK         0.1400 
     71 CB         -1.9062  -25.5403  -44.9001 C.3       12 UNK        -0.1800 
     72 C          -0.4199  -25.2031  -46.9221 C.2       12 UNK         0.5000 
     73 O          -0.5675  -25.9539  -47.8857 O.2       12 UNK        -0.5000 
     74 N           0.7716  -24.7631  -46.4915 N.am      13 UNK        -0.5000 
     75 CA          2.0588  -25.1128  -47.0961 C.3       13 UNK         0.1400 
     76 CB          3.2012  -24.6085  -46.2020 C.3       13 UNK        -0.1800 
     77 C           2.2117  -24.5798  -48.5326 C.2       13 UNK         0.5000 
     78 O           2.6475  -25.3230  -49.4127 O.2       13 UNK        -0.5000 
     79 N           1.8248  -23.3155  -48.7500 N.am      14 UNK        -0.5000 
     80 CA          1.7972  -22.6757  -50.0670 C.3       14 UNK         0.1400 
     81 CB          1.8364  -21.1523  -49.8800 C.3       14 UNK        -0.1800 
     82 C           0.5635  -23.0723  -50.9008 C.2       14 UNK         0.5000 
     83 O           0.5659  -22.8534  -52.1124 O.2       14 UNK        -0.5000 
     84 N          -0.4657  -23.6201  -50.2357 N.am      15 UNK        -0.5000 
     85 CA         -1.7866  -23.9831  -50.7598 C.3       15 UNK         0.1400 
     86 CB         -1.6722  -25.1246  -51.7928 C.3       15 UNK        -0.1800 
     87 C          -2.5655  -22.7609  -51.2918 C.2       15 UNK         0.5000 
     88 O          -3.3097  -22.8820  -52.2637 O.2       15 UNK        -0.5000 
     89 N          -2.3767  -21.6024  -50.6449 N.am      16 UNK        -0.5000 
     90 CA         -2.8582  -20.2922  -51.0837 C.3       16 UNK         0.1400 
     91 CB         -2.2918  -19.2085  -50.1538 C.3       16 UNK        -0.1800 
     92 C          -4.3904  -20.2097  -51.1727 C.2       16 UNK         0.5000 
     93 O          -4.9262  -19.8514  -52.2231 O.2       16 UNK        -0.5000 
     94 N          -5.0671  -20.5802  -50.0793 N.am      17 UNK        -0.5000 
     95 CA         -6.5267  -20.6539  -50.0185 C.3       17 UNK         0.1400 
     96 CB         -6.9791  -20.5575  -48.5545 C.3       17 UNK        -0.1800 
     97 C          -7.0749  -21.9353  -50.6726 C.2       17 UNK         0.5000 
     98 O          -8.1865  -21.9159  -51.1997 O.2       17 UNK        -0.5000 
     99 N          -6.2894  -23.0217  -50.6352 N.am      18 UNK        -0.5000 
    100 CA        -6.6589  -24.3396  -51.1568 C.3       18 UNK         0.1400 
    101 CB        -5.6709  -25.3919  -50.6328 C.3       18 UNK        -0.1800 
    102 C         -6.7457  -24.3752  -52.6934 C.2       18 UNK         0.5000 
    103 O         -7.6965  -24.9402  -53.2347 O.2       18 UNK        -0.5000 
    104 N         -5.7765  -23.7406  -53.3667 N.am      19 UNK        -0.5000 
    105 CA        -5.7567  -23.5552  -54.8203 C.3       19 UNK         0.1400 
    106 CB        -4.3015  -23.3594  -55.2762 C.3       19 UNK        -0.1800 
    107 C         -6.6254  -22.3669  -55.2807 C.2       19 UNK         0.5000 
    108 O         -6.8031  -22.1856  -56.4858 O.2       19 UNK        -0.5000 
    109 N         -7.1275  -21.5744  -54.3211 N.am      20 UNK        -0.5000 
    110 CA        -7.9080  -20.3452  -54.4876 C.3       20 UNK         0.1400 
    111 CB        -9.2712  -20.6368  -55.1486 C.3       20 UNK        -0.1800 
    112 C         -7.1150  -19.2234  -55.1904 C.2       20 UNK         0.5000 
    113 O         -7.6930  -18.4195  -55.9247 O.2       20 UNK        -0.5000 
    114 N         -5.7998  -19.1790  -54.9352 N.am      21 UNK        -0.5000 
    115 CA        -4.9135  -18.0850  -55.3323 C.3       21 UNK         0.1400 
    116 CB        -3.4537  -18.5552  -55.2369 C.3       21 UNK        -0.1800 
    117 C         -5.1504  -16.8436  -54.4528 C.2       21 UNK         0.5000 
    118 O         -5.1059  -15.7190  -54.9531 O.2       21 UNK        -0.5000 
    119 N         -5.4415  -17.0909  -53.1721 N.am      22 UNK        -0.5000 
    120 CA        -5.9333  -16.1198  -52.1927 C.3       22 UNK         0.1400 
    121 C         -7.4093  -16.4377  -51.8330 C.2       22 UNK         0.5000 
    122 N         -8.1923  -15.4317  -51.4692 N.am      22 UNK        -0.7600 
    123 O         -7.8479  -17.5861  -51.8508 O.2       22 UNK        -0.5000 
    124 C124       -5.0539  -16.1187  -50.9200 C.3       23 UNK        -0.0398 
    125 S125       -3.3876  -15.4434  -51.2401 S.3       23 UNK        -0.2404 
    126 C126       -3.0413  -14.5726  -49.6788 C.3       23 UNK        -0.0205 
    127 H127        3.8996  -19.5796  -53.9329 H         1 UNK         0.0600 
    128 H128        4.5907  -17.9746  -54.1957 H         1 UNK         0.0600 
    129 H129        2.8469  -18.1629  -53.9872 H         1 UNK         0.0600 
    130 H130        2.1835  -17.4983  -51.9697 H         1 UNK         0.3000 
    131 H131        3.5098  -18.4175  -49.5534 H         1 UNK         0.0600 
    132 H132        0.9420  -18.3322  -50.0208 H         1 UNK         0.0800 
    133 H133        1.0313  -16.6432  -49.6489 H         1 UNK         0.0800 
    134 H134        1.2364  -15.7300  -47.2618 H         1 UNK         0.0800 
    135 H135        0.8214  -16.7058  -45.8736 H         1 UNK         0.0800 
    136 H136       -0.4970  -15.0430  -48.8331 H         1 UNK         0.1150 
    137 H137       -4.5538  -16.2101  -48.1012 H         1 UNK         0.1150 
    138 H138       -1.3701  -17.9226  -45.7938 H         1 UNK         0.1150 
    139 H139       -5.1122  -17.6452  -46.3371 H         1 UNK         0.0800 
    140 H140       -3.9796  -17.8458  -45.0350 H         1 UNK         0.0800 
    141 H141       -2.4874  -19.5550  -44.6728 H         1 UNK         0.0800 
    142 H142       -3.1712  -21.1392  -44.7282 H         1 UNK         0.0800 
    143 H143       -1.2419  -20.1932  -46.9153 H         1 UNK         0.0600 
    144 H144       -0.4986  -20.6094  -44.2144 H         1 UNK         0.3000 
    145 H145        2.8405  -21.7078  -44.7004 H         1 UNK         0.0600 
    146 H146        3.0086  -19.2720  -45.1734 H         1 UNK         0.0600 
    147 H147        3.3297  -19.5854  -43.4743 H         1 UNK         0.0600 
    148 H148        1.7669  -18.9331  -43.9762 H         1 UNK         0.0600 
    149 H149        1.4792  -20.8642  -42.3730 H         1 UNK         0.3000 
    150 H150       -0.6193  -23.5698  -41.7363 H         1 UNK         0.0600 
    151 H151        2.1149  -23.2446  -40.3904 H         1 UNK         0.0600 
    152 H152        1.5203  -24.7234  -41.1360 H         1 UNK         0.0600 
    153 H153        0.7145  -24.0794  -39.7156 H         1 UNK         0.0600 
    154 H154        0.2187  -21.6726  -39.8917 H         1 UNK         0.3000 
    155 H155       -1.6643  -20.1563  -39.3714 H         1 UNK         0.0600 
    156 H156       -0.3639  -17.9674  -39.3877 H         1 UNK         0.0600 
    157 H157        0.3087  -18.4041  -40.9554 H         1 UNK         0.0600 
    158 H158        0.6890  -19.3643  -39.5322 H         1 UNK         0.0600 
    159 H159       -2.4077  -18.8552  -41.8803 H         1 UNK         0.3000 
    160 H160       -5.0782  -18.2567  -41.4496 H         1 UNK         0.0600 
    161 H161       -4.6914  -15.8053  -39.6539 H         1 UNK         0.0600 
    162 H162       -5.8494  -17.1060  -39.4200 H         1 UNK         0.0600 
    163 H163       -6.0158  -16.0286  -40.7959 H         1 UNK         0.0600 
    164 H164       -4.1237  -17.1047  -43.0662 H         1 UNK         0.3000 
    165 H165       -2.4384  -16.1302  -44.1838 H         1 UNK         0.0600 
    166 H166       -2.7987  -13.7941  -44.9350 H         1 UNK         0.0600 
    167 H167       -4.2060  -14.3667  -44.0540 H         1 UNK         0.0600 
    168 H168       -3.0710  -13.2725  -43.2708 H         1 UNK         0.0600 
    169 H169       -0.7122  -13.9754  -43.3588 H         1 UNK         0.3000 
    170 H170        1.3261  -14.3754  -42.2459 H         1 UNK         0.0600 
    171 H171        3.3566  -15.7252  -41.9747 H         1 UNK         0.0600 
    172 H172        2.6461  -17.0673  -42.8626 H         1 UNK         0.0600 
    173 H173        1.9890  -16.5955  -41.2993 H         1 UNK         0.0600 
    174 H174        2.7310  -15.4019  -44.5825 H         1 UNK         0.3000 
    175 H175        1.9234  -13.5145  -46.8939 H         1 UNK         0.0600 
    176 H176        2.1632  -11.1843  -46.1770 H         1 UNK         0.0600 
    177 H177        3.6661  -11.5395  -45.3389 H         1 UNK         0.0600 
    178 H178        3.5832  -11.6523  -47.0967 H         1 UNK         0.0600 
    179 H179        3.7186  -14.7596  -47.1427 H         1 UNK         0.3000 
    180 H180        6.9056  -14.9605  -45.7042 H         1 UNK         0.0600 
    181 H181        6.4972  -17.4000  -45.4539 H         1 UNK         0.0600 
    182 H182        4.7529  -17.1388  -45.4647 H         1 UNK         0.0600 
    183 H183        5.7317  -16.5269  -44.1370 H         1 UNK         0.0600 
    184 H184        5.5694  -16.5314  -47.6961 H         1 UNK         0.3000 
    185 H185        5.5891  -14.3202  -50.3506 H         1 UNK         0.0600 
    186 H186        8.0568  -14.7369  -50.4202 H         1 UNK         0.0600 
    187 H187        7.7894  -16.4306  -50.0232 H         1 UNK         0.0600 
    188 H188        7.2015  -15.7734  -51.5507 H         1 UNK         0.0600 
    189 H189        5.4182  -17.1129  -50.4833 H         1 UNK         0.3000 
    190 H190       -1.2835  -23.0928  -44.8453 H         1 UNK         0.3000 
    191 H191       -2.5249  -24.8208  -46.8217 H         1 UNK         0.0600 
    192 H192       -2.8153  -25.2238  -44.3885 H         1 UNK         0.0600 
    193 H193       -2.0245  -26.5954  -45.1496 H         1 UNK         0.0600 
    194 H194       -1.0793  -25.4618  -44.1936 H         1 UNK         0.0600 
    195 H195        0.8026  -24.1847  -45.6573 H         1 UNK         0.3000 
    196 H196        2.1186  -26.2023  -47.1370 H         1 UNK         0.0600 
    197 H197        4.1693  -24.9238  -46.5929 H         1 UNK         0.0600 
    198 H198        3.1145  -25.0011  -45.1887 H         1 UNK         0.0600 
    199 H199        3.2122  -23.5208  -46.1410 H         1 UNK         0.0600 
    200 H200        1.5280  -22.7415  -47.9626 H         1 UNK         0.3000 
    201 H201        2.6872  -22.9733  -50.6253 H         1 UNK         0.0600 
    202 H202        1.8780  -20.6397  -50.8417 H         1 UNK         0.0600 
    203 H203        2.7131  -20.8462  -49.3090 H         1 UNK         0.0600 
    204 H204        0.9521  -20.7924  -49.3523 H         1 UNK         0.0600 
    205 H205       -0.3593  -23.7318  -49.2370 H         1 UNK         0.3000 
    206 H206       -2.3572  -24.3615  -49.9107 H         1 UNK         0.0600 
    207 H207       -1.1301  -25.9747  -51.3785 H         1 UNK         0.0600 
    208 H208       -2.6540  -25.4854  -52.0985 H         1 UNK         0.0600 
    209 H209       -1.1540  -24.8041  -52.6968 H         1 UNK         0.0600 
    210 H210       -1.8384  -21.6324  -49.7868 H         1 UNK         0.3000 
    211 H211       -2.4620  -20.1179  -52.0860 H         1 UNK         0.0600 
    212 H212       -2.6202  -19.3408  -49.1233 H         1 UNK         0.0600 
    213 H213       -2.6045  -18.2144  -50.4720 H         1 UNK         0.0600 
    214 H214       -1.2032  -19.2211  -50.1558 H         1 UNK         0.0600 
    215 H215       -4.5539  -20.8466  -49.2509 H         1 UNK         0.3000 
    216 H216       -6.9481  -19.8021  -50.5561 H         1 UNK         0.0600 
    217 H217       -8.0654  -20.6181  -48.4760 H         1 UNK         0.0600 
    218 H218       -6.5591  -21.3603  -47.9473 H         1 UNK         0.0600 
    219 H219       -6.6764  -19.6078  -48.1133 H         1 UNK         0.0600 
    220 H220       -5.3804  -22.9386  -50.2071 H         1 UNK         0.3000 
    221 H221       -7.6486  -24.5880  -50.7671 H         1 UNK         0.0600 
    222 H222       -4.6514  -25.1776  -50.9485 H         1 UNK         0.0600 
    223 H223       -5.6822  -25.4361  -49.5436 H         1 UNK         0.0600 
    224 H224       -5.9268  -26.3863  -51.0009 H         1 UNK         0.0600 
    225 H225       -4.9911  -23.3388  -52.8574 H         1 UNK         0.3000 
    226 H226       -6.1452  -24.4555  -55.3006 H         1 UNK         0.0600 
    227 H227       -4.2347  -23.3109  -56.3636 H         1 UNK         0.0600 
    228 H228       -3.8781  -22.4349  -54.8811 H         1 UNK         0.0600 
    229 H229       -3.6692  -24.1845  -54.9476 H         1 UNK         0.0600 
    230 H230       -6.9235  -21.8284  -53.3650 H         1 UNK         0.3000 
    231 H231       -8.1070  -19.9800  -53.4789 H         1 UNK         0.0600 
    232 H232       -9.1625  -20.9386  -56.1906 H         1 UNK         0.0600 
    233 H233       -9.9101  -19.7531  -55.1301 H         1 UNK         0.0600 
    234 H234       -9.8018  -21.4299  -54.6218 H         1 UNK         0.0600 
    235 H235       -5.4247  -19.8363  -54.2613 H         1 UNK         0.3000 
    236 H236       -5.1238  -17.8170  -56.3699 H         1 UNK         0.0600 
    237 H237       -3.1838  -18.8310  -54.2169 H         1 UNK         0.0600 
    238 H238       -3.2758  -19.4202  -55.8760 H         1 UNK         0.0600 
    239 H239       -2.7700  -17.7675  -55.5555 H         1 UNK         0.0600 
    240 H240       -5.4694  -18.0591  -52.8679 H         1 UNK         0.3000 
    241 H241       -5.9142  -15.1175  -52.6254 H         1 UNK         0.0600 
    242 H242       -7.8603  -14.4797  -51.4441 H         1 UNK         0.3800 
    243 H243       -9.1507  -15.6256  -51.2234 H         1 UNK         0.3800 
    244 H244       -4.9573  -17.1262  -50.5114 H         1 UNK         0.0800 
    245 H245       -5.5287  -15.5165  -50.1441 H         1 UNK         0.0800 
    246 H246       -2.2726  -13.8217  -49.8678 H         1 UNK         0.0800 
    247 H247       -3.9210  -14.0203  -49.3459 H         1 UNK         0.0800 
@<TRIPOS>BOND
     1    1    2 1    
     2    1  127 1    
     3    1  128 1    
     4    1  129 1    
     5    2    3 2    
     6    2    4 am   BACKBONE|DICT|INTERRES
     7    4    5 1    
     8    4  130 1    
     9    5    6 1    
    10    5   65 1    
    11    5  131 1    
    12    6    7 1    
    13    6  132 1    
    14    6  133 1    
    15    7    8 1    
    16    8    9 1    
    17    8  134 1    
    18    8  135 1    
    19    9   10 ar   
    20    9   14 ar   
    21   10   11 ar   
    22   10  136 1    
    23   11   12 ar   
    24   11  126 1    
    25   12   13 ar   
    26   12  137 1    
    27   13   14 ar   
    28   13   15 1    
    29   14  138 1    
    30   15   16 1    
    31   15  139 1    
    32   15  140 1    
    33   16   17 1    
    34   17   18 1    
    35   17  141 1    
    36   17  142 1    
    37   18   19 1    
    38   18   67 1    
    39   18  143 1    
    40   19   20 am   BACKBONE|DICT|INTERRES
    41   19  144 1    
    42   20   21 2    
    43   20   22 1    
    44   22   23 1    
    45   22   24 1    
    46   22  145 1    
    47   23  146 1    
    48   23  147 1    
    49   23  148 1    
    50   24   25 am   BACKBONE|DICT|INTERRES
    51   24  149 1    
    52   25   26 2    
    53   25   27 1    
    54   27   28 1    
    55   27   29 1    
    56   27  150 1    
    57   28  151 1    
    58   28  152 1    
    59   28  153 1    
    60   29   30 am   BACKBONE|DICT|INTERRES
    61   29  154 1    
    62   30   31 2    
    63   30   32 1    
    64   32   33 1    
    65   32   34 1    
    66   32  155 1    
    67   33  156 1    
    68   33  157 1    
    69   33  158 1    
    70   34   35 am   BACKBONE|DICT|INTERRES
    71   34  159 1    
    72   35   36 2    
    73   35   37 1    
    74   37   38 1    
    75   37   39 1    
    76   37  160 1    
    77   38  161 1    
    78   38  162 1    
    79   38  163 1    
    80   39   40 am   BACKBONE|DICT|INTERRES
    81   39  164 1    
    82   40   41 2    
    83   40   42 1    
    84   42   43 1    
    85   42   44 1    
    86   42  165 1    
    87   43  166 1    
    88   43  167 1    
    89   43  168 1    
    90   44   45 am   BACKBONE|DICT|INTERRES
    91   44  169 1    
    92   45   46 2    
    93   45   47 1    
    94   47   48 1    
    95   47   49 1    
    96   47  170 1    
    97   48  171 1    
    98   48  172 1    
    99   48  173 1    
   100   49   50 am   BACKBONE|DICT|INTERRES
   101   49  174 1    
   102   50   51 2    
   103   50   52 1    
   104   52   53 1    
   105   52   54 1    
   106   52  175 1    
   107   53  176 1    
   108   53  177 1    
   109   53  178 1    
   110   54   55 am   BACKBONE|DICT|INTERRES
   111   54  179 1    
   112   55   56 2    
   113   55   57 1    
   114   57   58 1    
   115   57   59 1    
   116   57  180 1    
   117   58  181 1    
   118   58  182 1    
   119   58  183 1    
   120   59   60 am   BACKBONE|DICT|INTERRES
   121   59  184 1    
   122   60   61 2    
   123   60   62 1    
   124   62   63 1    
   125   62   64 1    
   126   62  185 1    
   127   63  186 1    
   128   63  187 1    
   129   63  188 1    
   130   64   65 am   BACKBONE|DICT|INTERRES
   131   64  189 1    
   132   65   66 2    
   133   67   68 2    
   134   67   69 am   BACKBONE|DICT|INTERRES
   135   69   70 1    
   136   69  190 1    
   137   70   71 1    
   138   70   72 1    
   139   70  191 1    
   140   71  192 1    
   141   71  193 1    
   142   71  194 1    
   143   72   73 2    
   144   72   74 am   BACKBONE|DICT|INTERRES
   145   74   75 1    
   146   74  195 1    
   147   75   76 1    
   148   75   77 1    
   149   75  196 1    
   150   76  197 1    
   151   76  198 1    
   152   76  199 1    
   153   77   78 2    
   154   77   79 am   BACKBONE|DICT|INTERRES
   155   79   80 1    
   156   79  200 1    
   157   80   81 1    
   158   80   82 1    
   159   80  201 1    
   160   81  202 1    
   161   81  203 1    
   162   81  204 1    
   163   82   83 2    
   164   82   84 am   BACKBONE|DICT|INTERRES
   165   84   85 1    
   166   84  205 1    
   167   85   86 1    
   168   85   87 1    
   169   85  206 1    
   170   86  207 1    
   171   86  208 1    
   172   86  209 1    
   173   87   88 2    
   174   87   89 am   BACKBONE|DICT|INTERRES
   175   89   90 1    
   176   89  210 1    
   177   90   91 1    
   178   90   92 1    
   179   90  211 1    
   180   91  212 1    
   181   91  213 1    
   182   91  214 1    
   183   92   93 2    
   184   92   94 am   BACKBONE|DICT|INTERRES
   185   94   95 1    
   186   94  215 1    
   187   95   96 1    
   188   95   97 1    
   189   95  216 1    
   190   96  217 1    
   191   96  218 1    
   192   96  219 1    
   193   97   98 2    
   194   97   99 am   BACKBONE|DICT|INTERRES
   195   99  100 1    
   196   99  220 1    
   197  100  101 1    
   198  100  102 1    
   199  100  221 1    
   200  101  222 1    
   201  101  223 1    
   202  101  224 1    
   203  102  103 2    
   204  102  104 am   BACKBONE|DICT|INTERRES
   205  104  105 1    
   206  104  225 1    
   207  105  106 1    
   208  105  107 1    
   209  105  226 1    
   210  106  227 1    
   211  106  228 1    
   212  106  229 1    
   213  107  108 2    
   214  107  109 am   BACKBONE|DICT|INTERRES
   215  109  110 1    
   216  109  230 1    
   217  110  111 1    
   218  110  112 1    
   219  110  231 1    
   220  111  232 1    
   221  111  233 1    
   222  111  234 1    
   223  112  113 2    
   224  112  114 am   BACKBONE|DICT|INTERRES
   225  114  115 1    
   226  114  235 1    
   227  115  116 1    
   228  115  117 1    
   229  115  236 1    
   230  116  237 1    
   231  116  238 1    
   232  116  239 1    
   233  117  118 2    
   234  117  119 am   BACKBONE|DICT|INTERRES
   235  119  120 1    
   236  119  240 1    
   237  120  121 1    
   238  120  124 1    
   239  120  241 1    
   240  121  122 am   BACKBONE|DICT|INTERRES
   241  121  123 2    
   242  122  242 1    
   243  122  243 1    
   244  124  125 1    
   245  124  244 1    
   246  124  245 1    
   247  125  126 1    
   248  126  246 1    
   249  126  247 1    
@<TRIPOS>SUBSTRUCTURE
     1 UNK         1 GROUP             0       ****    0 ROOT    
