@<TRIPOS>MOLECULE
3R540
247   249    1
SMALL
USER_CHARGES


@<TRIPOS>ATOM
      1 CA          0.0700  -12.8596  -49.3566 C.3       0 UNK        -0.1800 
      2 C           1.3078  -13.7423  -49.2917 C.2       0 UNK         0.5000 
      3 O           1.2354  -14.8515  -48.7653 O.2       0 UNK        -0.5000 
      4 N           2.4405  -13.2456  -49.8088 N.am      1 UNK        -0.5000 
      5 CA          3.7632  -13.8899  -49.9189 C.3       1 UNK         0.1400 
      6 C6          3.7709  -15.2035  -50.7461 C.3       23 UNK        -0.0398 
      7 S7          3.0984  -14.9780  -52.4292 S.3       23 UNK        -0.2404 
      8 C8          2.6432  -16.6867  -52.8867 C.3       23 UNK        -0.0205 
      9 C9          1.6292  -17.3300  -51.9450 C.ar      23 UNK        -0.0193 
     10 C10         0.4767  -16.6442  -51.5523 C.ar      23 UNK        -0.1150 
     11 C11        -0.4398  -17.2179  -50.6664 C.ar      23 UNK        -0.0193 
     12 C12        -0.2031  -18.5167  -50.1912 C.ar      23 UNK        -0.1150 
     13 C13         0.9331  -19.2272  -50.5986 C.ar      23 UNK        -0.0193 
     14 C14         1.8455  -18.6250  -51.4685 C.ar      23 UNK        -0.1150 
     15 C15         1.1601  -20.6653  -50.1533 C.3       23 UNK        -0.0205 
     16 S16         2.3088  -20.8220  -48.7430 S.3       23 UNK        -0.2404 
     17 C17         1.2343  -20.4581  -47.3131 C.3       23 UNK        -0.0398 
     18 CA          0.6014  -21.7197  -46.6631 C.3       11 UNK         0.1400 
     19 N           0.0634  -21.4445  -45.3255 N.am      11 UNK        -0.5000 
     20 C          -0.5089  -22.3457  -44.5110 C.2       10 UNK         0.5000 
     21 O          -0.5765  -23.5481  -44.7587 O.2       10 UNK        -0.5000 
     22 CA         -1.1760  -21.8127  -43.2296 C.3       10 UNK         0.1400 
     23 CB         -0.1433  -21.6073  -42.1122 C.3       10 UNK        -0.1800 
     24 N          -1.9253  -20.5766  -43.4601 N.am      10 UNK        -0.5000 
     25 C          -3.0004  -20.4846  -44.2574 C.2       9 UNK         0.5000 
     26 O          -3.5121  -21.4497  -44.8251 O.2       9 UNK        -0.5000 
     27 CA         -3.5677  -19.0744  -44.5063 C.3       9 UNK         0.1400 
     28 CB         -4.4858  -18.6385  -43.3552 C.3       9 UNK        -0.1800 
     29 N          -2.5177  -18.0754  -44.7098 N.am      9 UNK        -0.5000 
     30 C          -1.6444  -18.0933  -45.7272 C.2       8 UNK         0.5000 
     31 O          -1.6764  -18.9251  -46.6341 O.2       8 UNK        -0.5000 
     32 CA         -0.5065  -17.0548  -45.6831 C.3       8 UNK         0.1400 
     33 CB         -0.9885  -15.6823  -46.1723 C.3       8 UNK        -0.1800 
     34 N           0.0686  -16.9239  -44.3424 N.am      8 UNK        -0.5000 
     35 C           0.7315  -17.8971  -43.7021 C.2       7 UNK         0.5000 
     36 O           0.9990  -18.9831  -44.2127 O.2       7 UNK        -0.5000 
     37 CA          1.1081  -17.6432  -42.2305 C.3       7 UNK         0.1400 
     38 CB          2.4608  -16.9291  -42.0994 C.3       7 UNK        -0.1800 
     39 N           0.0806  -16.8781  -41.5277 N.am      7 UNK        -0.5000 
     40 C          -1.1118  -17.3731  -41.1692 C.2       6 UNK         0.5000 
     41 O          -1.4505  -18.5408  -41.3587 O.2       6 UNK        -0.5000 
     42 CA         -2.1041  -16.3835  -40.5315 C.3       6 UNK         0.1400 
     43 CB         -1.8463  -16.2542  -39.0231 C.3       6 UNK        -0.1800 
     44 N          -2.0421  -15.0579  -41.1501 N.am      6 UNK        -0.5000 
     45 C          -2.4128  -14.7964  -42.4116 C.2       5 UNK         0.5000 
     46 O          -2.9000  -15.6377  -43.1653 O.2       5 UNK        -0.5000 
     47 CA         -2.1465  -13.3713  -42.9326 C.3       5 UNK         0.1400 
     48 CB         -3.3378  -12.4530  -42.6230 C.3       5 UNK        -0.1800 
     49 N          -0.9203  -12.7777  -42.3905 N.am      5 UNK        -0.5000 
     50 C           0.3142  -13.2516  -42.6033 C.2       4 UNK         0.5000 
     51 O           0.5583  -14.2529  -43.2814 O.2       4 UNK        -0.5000 
     52 CA          1.4551  -12.5194  -41.8887 C.3       4 UNK         0.1400 
     53 CB          1.5384  -12.9555  -40.4145 C.3       4 UNK        -0.1800 
     54 N           2.7180  -12.8175  -42.5563 N.am      4 UNK        -0.5000 
     55 C           3.7896  -12.0166  -42.5686 C.2       3 UNK         0.5000 
     56 O           3.8202  -10.9200  -42.0077 O.2       3 UNK        -0.5000 
     57 CA          5.0517  -12.5107  -43.3070 C.3       3 UNK         0.1400 
     58 CB          6.1391  -12.9059  -42.2947 C.3       3 UNK        -0.1800 
     59 N           4.8336  -13.6395  -44.2162 N.am      3 UNK        -0.5000 
     60 C           4.1931  -13.5701  -45.3894 C.2       2 UNK         0.5000 
     61 O           3.6412  -12.5488  -45.8071 O.2       2 UNK        -0.5000 
     62 CA          4.1606  -14.8758  -46.2082 C.3       2 UNK         0.1400 
     63 CB          3.2010  -15.8924  -45.5754 C.3       2 UNK        -0.1800 
     64 N           3.7358  -14.6513  -47.5840 N.am      2 UNK        -0.5000 
     65 C           4.4647  -14.1006  -48.5584 C.2       1 UNK         0.5000 
     66 O           5.6424  -13.7645  -48.4218 O.2       1 UNK        -0.5000 
     67 C          -0.4739  -22.3438  -47.5737 C.2       11 UNK         0.5000 
     68 O          -0.2529  -23.4222  -48.1265 O.2       11 UNK        -0.5000 
     69 N          -1.6252  -21.6643  -47.6829 N.am      12 UNK        -0.5000 
     70 CA         -2.7853  -22.0973  -48.4605 C.3       12 UNK         0.1400 
     71 CB         -3.8861  -21.0308  -48.3733 C.3       12 UNK        -0.1800 
     72 C          -3.3205  -23.4738  -48.0319 C.2       12 UNK         0.5000 
     73 O          -3.5727  -24.3162  -48.8922 O.2       12 UNK        -0.5000 
     74 N          -3.4467  -23.6870  -46.7154 N.am      13 UNK        -0.5000 
     75 CA         -3.8822  -24.9487  -46.1192 C.3       13 UNK         0.1400 
     76 CB         -4.1273  -24.7454  -44.6163 C.3       13 UNK        -0.1800 
     77 C          -2.8952  -26.1067  -46.3583 C.2       13 UNK         0.5000 
     78 O          -3.3315  -27.2120  -46.6817 O.2       13 UNK        -0.5000 
     79 N          -1.5921  -25.8386  -46.1958 N.am      14 UNK        -0.5000 
     80 CA         -0.5203  -26.8208  -46.3571 C.3       14 UNK         0.1400 
     81 CB          0.7841  -26.2672  -45.7626 C.3       14 UNK        -0.1800 
     82 C          -0.3091  -27.2432  -47.8200 C.2       14 UNK         0.5000 
     83 O          -0.1854  -28.4381  -48.0934 O.2       14 UNK        -0.5000 
     84 N          -0.2628  -26.2620  -48.7307 N.am      15 UNK        -0.5000 
     85 CA         -0.0390  -26.4886  -50.1589 C.3       15 UNK         0.1400 
     86 CB          0.4728  -25.1911  -50.7965 C.3       15 UNK        -0.1800 
     87 C          -1.2934  -26.9903  -50.8958 C.2       15 UNK         0.5000 
     88 O          -1.1571  -27.6611  -51.9199 O.2       15 UNK        -0.5000 
     89 N          -2.4822  -26.6405  -50.3820 N.am      16 UNK        -0.5000 
     90 CA         -3.8320  -26.9422  -50.8748 C.3       16 UNK         0.1400 
     91 CB         -4.0912  -28.4592  -50.9439 C.3       16 UNK        -0.1800 
     92 C          -4.1778  -26.2435  -52.2031 C.2       16 UNK         0.5000 
     93 O          -5.1812  -25.5350  -52.2738 O.2       16 UNK        -0.5000 
     94 N          -3.3346  -26.4243  -53.2266 N.am      17 UNK        -0.5000 
     95 CA         -3.4723  -25.8171  -54.5524 C.3       17 UNK         0.1400 
     96 CB         -2.4765  -26.4830  -55.5134 C.3       17 UNK        -0.1800 
     97 C          -3.2705  -24.2901  -54.5390 C.2       17 UNK         0.5000 
     98 O          -3.8809  -23.5858  -55.3438 O.2       17 UNK        -0.5000 
     99 N          -2.4438  -23.8022  -53.6031 N.am      18 UNK        -0.5000 
    100 CA        -2.1395  -22.3823  -53.4128 C.3       18 UNK         0.1400 
    101 CB        -0.8600  -22.2443  -52.5770 C.3       18 UNK        -0.1800 
    102 C         -3.2856  -21.5800  -52.7672 C.2       18 UNK         0.5000 
    103 O         -3.1738  -20.3596  -52.6795 O.2       18 UNK        -0.5000 
    104 N         -4.3610  -22.2531  -52.3282 N.am      19 UNK        -0.5000 
    105 CA        -5.5671  -21.6241  -51.7863 C.3       19 UNK         0.1400 
    106 CB        -6.4590  -22.6957  -51.1448 C.3       19 UNK        -0.1800 
    107 C         -6.3548  -20.8058  -52.8276 C.2       19 UNK         0.5000 
    108 O         -7.0995  -19.9041  -52.4404 O.2       19 UNK        -0.5000 
    109 N         -6.1577  -21.0993  -54.1219 N.am      20 UNK        -0.5000 
    110 CA        -6.6503  -20.3012  -55.2437 C.3       20 UNK         0.1400 
    111 CB        -6.2868  -21.0043  -56.5602 C.3       20 UNK        -0.1800 
    112 C         -6.0626  -18.8777  -55.1953 C.2       20 UNK         0.5000 
    113 O         -4.8416  -18.7278  -55.1320 O.2       20 UNK        -0.5000 
    114 N         -6.9451  -17.8715  -55.1610 N.am      21 UNK        -0.5000 
    115 CA        -6.6923  -16.4336  -54.9791 C.3       21 UNK         0.1400 
    116 CB        -5.7467  -15.8728  -56.0596 C.3       21 UNK        -0.1800 
    117 C         -6.2290  -16.0314  -53.5609 C.2       21 UNK         0.5000 
    118 O         -6.5750  -14.9358  -53.1165 O.2       21 UNK        -0.5000 
    119 N         -5.4855  -16.9026  -52.8662 N.am      22 UNK        -0.5000 
    120 CA        -5.0848  -16.7324  -51.4604 C.3       22 UNK         0.1400 
    121 C         -6.2806  -16.8095  -50.4646 C.2       22 UNK         0.5000 
    122 N         -7.2526  -17.6894  -50.6746 N.am      22 UNK        -0.7600 
    123 O         -6.3438  -16.0441  -49.5066 O.2       22 UNK        -0.5000 
    124 C124       -3.9475  -17.7160  -51.0822 C.3       23 UNK        -0.0398 
    125 S125       -3.0646  -17.2613  -49.5516 S.3       23 UNK        -0.2404 
    126 C126       -1.6237  -16.3616  -50.2134 C.3       23 UNK        -0.0205 
    127 H127        0.3085  -11.8507  -49.6938 H         1 UNK         0.0600 
    128 H128       -0.3916  -12.7886  -48.3715 H         1 UNK         0.0600 
    129 H129       -0.6581  -13.2868  -50.0458 H         1 UNK         0.0600 
    130 H130        2.4099  -12.3124  -50.1945 H         1 UNK         0.3000 
    131 H131        4.3787  -13.1703  -50.4614 H         1 UNK         0.0600 
    132 H132        4.7882  -15.5861  -50.8455 H         1 UNK         0.0800 
    133 H133        3.2055  -15.9779  -50.2263 H         1 UNK         0.0800 
    134 H134        3.5552  -17.2838  -52.9354 H         1 UNK         0.0800 
    135 H135        2.2254  -16.6800  -53.8941 H         1 UNK         0.0800 
    136 H136        0.3091  -15.6398  -51.9146 H         1 UNK         0.1150 
    137 H137       -0.8984  -18.9794  -49.5055 H         1 UNK         0.1150 
    138 H138        2.7242  -19.1728  -51.7791 H         1 UNK         0.1150 
    139 H139        0.2059  -21.1376  -49.9291 H         1 UNK         0.0800 
    140 H140        1.5748  -21.2330  -50.9876 H         1 UNK         0.0800 
    141 H141        0.4825  -19.7287  -47.6078 H         1 UNK         0.0800 
    142 H142        1.8611  -19.9501  -46.5794 H         1 UNK         0.0800 
    143 H143        1.3896  -22.4635  -46.5297 H         1 UNK         0.0600 
    144 H144        0.1330  -20.4833  -45.0032 H         1 UNK         0.3000 
    145 H145       -1.8879  -22.5678  -42.8900 H         1 UNK         0.0600 
    146 H146        0.6162  -20.8781  -42.3904 H         1 UNK         0.0600 
    147 H147       -0.6183  -21.2640  -41.1930 H         1 UNK         0.0600 
    148 H148        0.3708  -22.5417  -41.8836 H         1 UNK         0.0600 
    149 H149       -1.6026  -19.7469  -42.9736 H         1 UNK         0.3000 
    150 H150       -4.1664  -19.1145  -45.4185 H         1 UNK         0.0600 
    151 H151       -5.2944  -19.3556  -43.2087 H         1 UNK         0.0600 
    152 H152       -4.9423  -17.6702  -43.5612 H         1 UNK         0.0600 
    153 H153       -3.9436  -18.5579  -42.4132 H         1 UNK         0.0600 
    154 H154       -2.4673  -17.3197  -44.0329 H         1 UNK         0.3000 
    155 H155        0.2826  -17.3943  -46.3575 H         1 UNK         0.0600 
    156 H156       -1.7737  -15.2770  -45.5366 H         1 UNK         0.0600 
    157 H157       -0.1711  -14.9615  -46.2007 H         1 UNK         0.0600 
    158 H158       -1.3955  -15.7537  -47.1794 H         1 UNK         0.0600 
    159 H159       -0.0449  -16.0282  -43.8791 H         1 UNK         0.3000 
    160 H160        1.2013  -18.6153  -41.7423 H         1 UNK         0.0600 
    161 H161        3.2497  -17.4999  -42.5905 H         1 UNK         0.0600 
    162 H162        2.4419  -15.9349  -42.5433 H         1 UNK         0.0600 
    163 H163        2.7463  -16.8195  -41.0531 H         1 UNK         0.0600 
    164 H164        0.2621  -15.8963  -41.3859 H         1 UNK         0.3000 
    165 H165       -3.1111  -16.7812  -40.6745 H         1 UNK         0.0600 
    166 H166       -2.5889  -15.6113  -38.5502 H         1 UNK         0.0600 
    167 H167       -1.9016  -17.2275  -38.5336 H         1 UNK         0.0600 
    168 H168       -0.8598  -15.8376  -38.8154 H         1 UNK         0.0600 
    169 H169       -1.6596  -14.3082  -40.5933 H         1 UNK         0.3000 
    170 H170       -2.0363  -13.4304  -44.0170 H         1 UNK         0.0600 
    171 H171       -4.2620  -12.8611  -43.0347 H         1 UNK         0.0600 
    172 H172       -3.4835  -12.3284  -41.5493 H         1 UNK         0.0600 
    173 H173       -3.1980  -11.4644  -43.0606 H         1 UNK         0.0600 
    174 H174       -1.0372  -11.9561  -41.8148 H         1 UNK         0.3000 
    175 H175        1.2550  -11.4472  -41.9448 H         1 UNK         0.0600 
    176 H176        1.7447  -14.0227  -40.3226 H         1 UNK         0.0600 
    177 H177        2.3276  -12.4181  -39.8883 H         1 UNK         0.0600 
    178 H178        0.6055  -12.7526  -39.8874 H         1 UNK         0.0600 
    179 H179        2.7237  -13.6731  -43.0948 H         1 UNK         0.3000 
    180 H180        5.4267  -11.6711  -43.8961 H         1 UNK         0.0600 
    181 H181        5.8285  -13.7533  -41.6821 H         1 UNK         0.0600 
    182 H182        6.3665  -12.0797  -41.6198 H         1 UNK         0.0600 
    183 H183        7.0682  -13.1757  -42.7972 H         1 UNK         0.0600 
    184 H184        5.2478  -14.5174  -43.9380 H         1 UNK         0.3000 
    185 H185        5.1659  -15.3020  -46.2247 H         1 UNK         0.0600 
    186 H186        3.0884  -16.7806  -46.1978 H         1 UNK         0.0600 
    187 H187        3.5760  -16.2252  -44.6097 H         1 UNK         0.0600 
    188 H188        2.2105  -15.4628  -45.4223 H         1 UNK         0.0600 
    189 H189        2.7618  -14.8529  -47.8014 H         1 UNK         0.3000 
    190 H190       -1.7126  -20.7738  -47.1989 H         1 UNK         0.3000 
    191 H191       -2.4746  -22.1793  -49.5037 H         1 UNK         0.0600 
    192 H192       -4.1087  -20.7621  -47.3414 H         1 UNK         0.0600 
    193 H193       -4.8156  -21.3829  -48.8195 H         1 UNK         0.0600 
    194 H194       -3.5902  -20.1229  -48.8969 H         1 UNK         0.0600 
    195 H195       -3.2541  -22.9219  -46.0747 H         1 UNK         0.3000 
    196 H196       -4.8323  -25.2234  -46.5821 H         1 UNK         0.0600 
    197 H197       -4.4723  -25.6676  -44.1473 H         1 UNK         0.0600 
    198 H198       -4.8894  -23.9858  -44.4409 H         1 UNK         0.0600 
    199 H199       -3.2195  -24.4323  -44.0996 H         1 UNK         0.0600 
    200 H200       -1.3117  -24.9106  -45.8886 H         1 UNK         0.3000 
    201 H201       -0.7932  -27.7135  -45.7904 H         1 UNK         0.0600 
    202 H202        0.6745  -26.0622  -44.6976 H         1 UNK         0.0600 
    203 H203        1.0879  -25.3405  -46.2516 H         1 UNK         0.0600 
    204 H204        1.6004  -26.9819  -45.8736 H         1 UNK         0.0600 
    205 H205       -0.3484  -25.2940  -48.4272 H         1 UNK         0.3000 
    206 H206        0.7367  -27.2484  -50.2770 H         1 UNK         0.0600 
    207 H207        1.4156  -24.8760  -50.3489 H         1 UNK         0.0600 
    208 H208        0.6420  -25.3126  -51.8672 H         1 UNK         0.0600 
    209 H209       -0.2444  -24.3846  -50.6602 H         1 UNK         0.0600 
    210 H210       -2.4754  -26.0270  -49.5751 H         1 UNK         0.3000 
    211 H211       -4.5128  -26.5372  -50.1244 H         1 UNK         0.0600 
    212 H212       -3.4660  -28.9521  -51.6885 H         1 UNK         0.0600 
    213 H213       -5.1298  -28.6622  -51.2074 H         1 UNK         0.0600 
    214 H214       -3.9016  -28.9328  -49.9805 H         1 UNK         0.0600 
    215 H215       -2.5155  -27.0031  -53.0590 H         1 UNK         0.3000 
    216 H216       -4.4837  -26.0144  -54.9136 H         1 UNK         0.0600 
    217 H217       -2.5636  -26.0665  -56.5178 H         1 UNK         0.0600 
    218 H218       -2.6597  -27.5550  -55.5897 H         1 UNK         0.0600 
    219 H219       -1.4456  -26.3415  -55.1861 H         1 UNK         0.0600 
    220 H220       -1.9990  -24.4532  -52.9740 H         1 UNK         0.3000 
    221 H221       -1.9497  -21.9433  -54.3946 H         1 UNK         0.0600 
    222 H222       -1.0367  -22.5142  -51.5371 H         1 UNK         0.0600 
    223 H223       -0.0528  -22.8658  -52.9649 H         1 UNK         0.0600 
    224 H224       -0.5074  -21.2121  -52.5865 H         1 UNK         0.0600 
    225 H225       -4.3831  -23.2593  -52.4272 H         1 UNK         0.3000 
    226 H226       -5.2580  -20.9273  -51.0075 H         1 UNK         0.0600 
    227 H227       -5.9163  -23.2621  -50.3874 H         1 UNK         0.0600 
    228 H228       -7.3227  -22.2427  -50.6565 H         1 UNK         0.0600 
    229 H229       -6.8346  -23.4011  -51.8868 H         1 UNK         0.0600 
    230 H230       -5.5028  -21.8345  -54.3495 H         1 UNK         0.3000 
    231 H231       -7.7383  -20.2475  -55.1689 H         1 UNK         0.0600 
    232 H232       -6.6491  -20.4374  -57.4186 H         1 UNK         0.0600 
    233 H233       -6.7328  -21.9976  -56.6134 H         1 UNK         0.0600 
    234 H234       -5.2073  -21.1170  -56.6713 H         1 UNK         0.0600 
    235 H235       -7.9252  -18.1181  -55.1770 H         1 UNK         0.3000 
    236 H236       -7.6622  -15.9555  -55.1254 H         1 UNK         0.0600 
    237 H237       -5.6951  -14.7851  -55.9999 H         1 UNK         0.0600 
    238 H238       -6.0951  -16.1271  -57.0606 H         1 UNK         0.0600 
    239 H239       -4.7293  -16.2489  -55.9507 H         1 UNK         0.0600 
    240 H240       -5.2115  -17.7635  -53.3244 H         1 UNK         0.3000 
    241 H241       -4.6758  -15.7232  -51.3799 H         1 UNK         0.0600 
    242 H242       -7.2052  -18.3639  -51.4352 H         1 UNK         0.3800 
    243 H243       -8.0306  -17.7221  -50.0360 H         1 UNK         0.3800 
    244 H244       -4.3430  -18.7243  -50.9623 H         1 UNK         0.0800 
    245 H245       -3.2172  -17.7768  -51.8905 H         1 UNK         0.0800 
    246 H246       -1.9588  -15.7243  -51.0331 H         1 UNK         0.0800 
    247 H247       -1.2632  -15.6869  -49.4392 H         1 UNK         0.0800 
@<TRIPOS>BOND
     1    1    2 1    
     2    1  127 1    
     3    1  128 1    
     4    1  129 1    
     5    2    3 2    
     6    2    4 am   BACKBONE|DICT|INTERRES
     7    4    5 1    
     8    4  130 1    
     9    5    6 1    
    10    5   65 1    
    11    5  131 1    
    12    6    7 1    
    13    6  132 1    
    14    6  133 1    
    15    7    8 1    
    16    8    9 1    
    17    8  134 1    
    18    8  135 1    
    19    9   10 ar   
    20    9   14 ar   
    21   10   11 ar   
    22   10  136 1    
    23   11   12 ar   
    24   11  126 1    
    25   12   13 ar   
    26   12  137 1    
    27   13   14 ar   
    28   13   15 1    
    29   14  138 1    
    30   15   16 1    
    31   15  139 1    
    32   15  140 1    
    33   16   17 1    
    34   17   18 1    
    35   17  141 1    
    36   17  142 1    
    37   18   19 1    
    38   18   67 1    
    39   18  143 1    
    40   19   20 am   BACKBONE|DICT|INTERRES
    41   19  144 1    
    42   20   21 2    
    43   20   22 1    
    44   22   23 1    
    45   22   24 1    
    46   22  145 1    
    47   23  146 1    
    48   23  147 1    
    49   23  148 1    
    50   24   25 am   BACKBONE|DICT|INTERRES
    51   24  149 1    
    52   25   26 2    
    53   25   27 1    
    54   27   28 1    
    55   27   29 1    
    56   27  150 1    
    57   28  151 1    
    58   28  152 1    
    59   28  153 1    
    60   29   30 am   BACKBONE|DICT|INTERRES
    61   29  154 1    
    62   30   31 2    
    63   30   32 1    
    64   32   33 1    
    65   32   34 1    
    66   32  155 1    
    67   33  156 1    
    68   33  157 1    
    69   33  158 1    
    70   34   35 am   BACKBONE|DICT|INTERRES
    71   34  159 1    
    72   35   36 2    
    73   35   37 1    
    74   37   38 1    
    75   37   39 1    
    76   37  160 1    
    77   38  161 1    
    78   38  162 1    
    79   38  163 1    
    80   39   40 am   BACKBONE|DICT|INTERRES
    81   39  164 1    
    82   40   41 2    
    83   40   42 1    
    84   42   43 1    
    85   42   44 1    
    86   42  165 1    
    87   43  166 1    
    88   43  167 1    
    89   43  168 1    
    90   44   45 am   BACKBONE|DICT|INTERRES
    91   44  169 1    
    92   45   46 2    
    93   45   47 1    
    94   47   48 1    
    95   47   49 1    
    96   47  170 1    
    97   48  171 1    
    98   48  172 1    
    99   48  173 1    
   100   49   50 am   BACKBONE|DICT|INTERRES
   101   49  174 1    
   102   50   51 2    
   103   50   52 1    
   104   52   53 1    
   105   52   54 1    
   106   52  175 1    
   107   53  176 1    
   108   53  177 1    
   109   53  178 1    
   110   54   55 am   BACKBONE|DICT|INTERRES
   111   54  179 1    
   112   55   56 2    
   113   55   57 1    
   114   57   58 1    
   115   57   59 1    
   116   57  180 1    
   117   58  181 1    
   118   58  182 1    
   119   58  183 1    
   120   59   60 am   BACKBONE|DICT|INTERRES
   121   59  184 1    
   122   60   61 2    
   123   60   62 1    
   124   62   63 1    
   125   62   64 1    
   126   62  185 1    
   127   63  186 1    
   128   63  187 1    
   129   63  188 1    
   130   64   65 am   BACKBONE|DICT|INTERRES
   131   64  189 1    
   132   65   66 2    
   133   67   68 2    
   134   67   69 am   BACKBONE|DICT|INTERRES
   135   69   70 1    
   136   69  190 1    
   137   70   71 1    
   138   70   72 1    
   139   70  191 1    
   140   71  192 1    
   141   71  193 1    
   142   71  194 1    
   143   72   73 2    
   144   72   74 am   BACKBONE|DICT|INTERRES
   145   74   75 1    
   146   74  195 1    
   147   75   76 1    
   148   75   77 1    
   149   75  196 1    
   150   76  197 1    
   151   76  198 1    
   152   76  199 1    
   153   77   78 2    
   154   77   79 am   BACKBONE|DICT|INTERRES
   155   79   80 1    
   156   79  200 1    
   157   80   81 1    
   158   80   82 1    
   159   80  201 1    
   160   81  202 1    
   161   81  203 1    
   162   81  204 1    
   163   82   83 2    
   164   82   84 am   BACKBONE|DICT|INTERRES
   165   84   85 1    
   166   84  205 1    
   167   85   86 1    
   168   85   87 1    
   169   85  206 1    
   170   86  207 1    
   171   86  208 1    
   172   86  209 1    
   173   87   88 2    
   174   87   89 am   BACKBONE|DICT|INTERRES
   175   89   90 1    
   176   89  210 1    
   177   90   91 1    
   178   90   92 1    
   179   90  211 1    
   180   91  212 1    
   181   91  213 1    
   182   91  214 1    
   183   92   93 2    
   184   92   94 am   BACKBONE|DICT|INTERRES
   185   94   95 1    
   186   94  215 1    
   187   95   96 1    
   188   95   97 1    
   189   95  216 1    
   190   96  217 1    
   191   96  218 1    
   192   96  219 1    
   193   97   98 2    
   194   97   99 am   BACKBONE|DICT|INTERRES
   195   99  100 1    
   196   99  220 1    
   197  100  101 1    
   198  100  102 1    
   199  100  221 1    
   200  101  222 1    
   201  101  223 1    
   202  101  224 1    
   203  102  103 2    
   204  102  104 am   BACKBONE|DICT|INTERRES
   205  104  105 1    
   206  104  225 1    
   207  105  106 1    
   208  105  107 1    
   209  105  226 1    
   210  106  227 1    
   211  106  228 1    
   212  106  229 1    
   213  107  108 2    
   214  107  109 am   BACKBONE|DICT|INTERRES
   215  109  110 1    
   216  109  230 1    
   217  110  111 1    
   218  110  112 1    
   219  110  231 1    
   220  111  232 1    
   221  111  233 1    
   222  111  234 1    
   223  112  113 2    
   224  112  114 am   BACKBONE|DICT|INTERRES
   225  114  115 1    
   226  114  235 1    
   227  115  116 1    
   228  115  117 1    
   229  115  236 1    
   230  116  237 1    
   231  116  238 1    
   232  116  239 1    
   233  117  118 2    
   234  117  119 am   BACKBONE|DICT|INTERRES
   235  119  120 1    
   236  119  240 1    
   237  120  121 1    
   238  120  124 1    
   239  120  241 1    
   240  121  122 am   BACKBONE|DICT|INTERRES
   241  121  123 2    
   242  122  242 1    
   243  122  243 1    
   244  124  125 1    
   245  124  244 1    
   246  124  245 1    
   247  125  126 1    
   248  126  246 1    
   249  126  247 1    
@<TRIPOS>SUBSTRUCTURE
     1 UNK         1 GROUP             0       ****    0 ROOT    
