@<TRIPOS>MOLECULE
3R540
247   249    1
SMALL
USER_CHARGES


@<TRIPOS>ATOM
      1 CA         -5.2321  -14.8792  -43.9579 C.3       0 UNK        -0.1800 
      2 C          -3.7318  -14.9078  -44.2105 C.2       0 UNK         0.5000 
      3 O          -3.0311  -15.7261  -43.6178 O.2       0 UNK        -0.5000 
      4 N          -3.2432  -14.0151  -45.0840 N.am      1 UNK        -0.5000 
      5 CA         -1.8394  -13.8869  -45.5154 C.3       1 UNK         0.1400 
      6 C6         -1.3101  -15.1215  -46.3023 C.3       23 UNK        -0.0398 
      7 S7         -2.3899  -15.5671  -47.7125 S.3       23 UNK        -0.2404 
      8 C8         -1.5515  -14.7764  -49.1232 C.3       23 UNK        -0.0205 
      9 C9         -0.8498  -15.7982  -50.0063 C.ar      23 UNK        -0.0193 
     10 C10        -1.3652  -16.1199  -51.2671 C.ar      23 UNK        -0.1150 
     11 C11        -0.7079  -17.0427  -52.0873 C.ar      23 UNK        -0.0193 
     12 C12         0.4604  -17.6571  -51.6307 C.ar      23 UNK        -0.1150 
     13 C13         0.9722  -17.3618  -50.3659 C.ar      23 UNK        -0.0193 
     14 C14         0.3236  -16.4163  -49.5669 C.ar      23 UNK        -0.1150 
     15 C15         2.2229  -18.0725  -49.8749 C.3       23 UNK        -0.0205 
     16 S16         1.8591  -19.7787  -49.3512 S.3       23 UNK        -0.2404 
     17 C17         1.1094  -19.5028  -47.7141 C.3       23 UNK        -0.0398 
     18 CA          0.0726  -20.5886  -47.3319 C.3       11 UNK         0.1400 
     19 N           0.1700  -20.9393  -45.9114 N.am      11 UNK        -0.5000 
     20 C          -0.4143  -22.0026  -45.3438 C.2       10 UNK         0.5000 
     21 O          -1.0984  -22.8090  -45.9761 O.2       10 UNK        -0.5000 
     22 CA         -0.2425  -22.1499  -43.8179 C.3       10 UNK         0.1400 
     23 CB         -0.5343  -23.5761  -43.3076 C.3       10 UNK        -0.1800 
     24 N           1.0564  -21.6679  -43.3392 N.am      10 UNK        -0.5000 
     25 C           2.2711  -22.1725  -43.6077 C.2       9 UNK         0.5000 
     26 O           2.4609  -23.1670  -44.3085 O.2       9 UNK        -0.5000 
     27 CA          3.4910  -21.4393  -43.0068 C.3       9 UNK         0.1400 
     28 CB          4.3245  -20.7887  -44.1215 C.3       9 UNK        -0.1800 
     29 N           3.1350  -20.4107  -42.0266 N.am      9 UNK        -0.5000 
     30 C           2.6872  -20.6456  -40.7858 C.2       8 UNK         0.5000 
     31 O           2.5912  -21.7698  -40.2929 O.2       8 UNK        -0.5000 
     32 CA          2.2272  -19.4177  -39.9794 C.3       8 UNK         0.1400 
     33 CB          3.3934  -18.8225  -39.1754 C.3       8 UNK        -0.1800 
     34 N           1.6411  -18.3791  -40.8308 N.am      8 UNK        -0.5000 
     35 C           0.4443  -18.4673  -41.4286 C.2       7 UNK         0.5000 
     36 O          -0.3028  -19.4400  -41.3243 O.2       7 UNK        -0.5000 
     37 CA          0.0338  -17.2827  -42.3229 C.3       7 UNK         0.1400 
     38 CB         -0.4316  -16.1024  -41.4592 C.3       7 UNK        -0.1800 
     39 N           1.1138  -16.8463  -43.2103 N.am      7 UNK        -0.5000 
     40 C           1.6417  -17.6001  -44.1849 C.2       6 UNK         0.5000 
     41 O           1.2137  -18.7126  -44.4942 O.2       6 UNK        -0.5000 
     42 CA          2.8812  -17.0448  -44.9146 C.3       6 UNK         0.1400 
     43 CB          2.4620  -16.2157  -46.1338 C.3       6 UNK        -0.1800 
     44 N           3.7589  -16.2248  -44.0828 N.am      6 UNK        -0.5000 
     45 C           4.3100  -16.5623  -42.9093 C.2       5 UNK         0.5000 
     46 O           4.1691  -17.6691  -42.3898 O.2       5 UNK        -0.5000 
     47 CA          5.1401  -15.4798  -42.1829 C.3       5 UNK         0.1400 
     48 CB          6.6032  -15.9278  -42.0419 C.3       5 UNK        -0.1800 
     49 N           5.1091  -14.1611  -42.8308 N.am      5 UNK        -0.5000 
     50 C           4.0345  -13.3655  -42.9223 C.2       4 UNK         0.5000 
     51 O           2.9433  -13.6395  -42.4148 O.2       4 UNK        -0.5000 
     52 CA          4.2025  -12.0886  -43.7644 C.3       4 UNK         0.1400 
     53 CB          4.6853  -12.3999  -45.1946 C.3       4 UNK        -0.1800 
     54 N           2.9216  -11.3994  -43.8410 N.am      4 UNK        -0.5000 
     55 C           2.7364  -10.0751  -43.8733 C.2       3 UNK         0.5000 
     56 O           3.6588   -9.2589  -43.8993 O.2       3 UNK        -0.5000 
     57 CA          1.2771   -9.5681  -43.8810 C.3       3 UNK         0.1400 
     58 CB          0.9058   -9.0179  -45.2671 C.3       3 UNK        -0.1800 
     59 N           0.2989  -10.5938  -43.5087 N.am      3 UNK        -0.5000 
     60 C           0.1646  -11.1267  -42.2870 C.2       2 UNK         0.5000 
     61 O           0.7927  -10.7294  -41.3048 O.2       2 UNK        -0.5000 
     62 CA         -0.8165  -12.3056  -42.1304 C.3       2 UNK         0.1400 
     63 CB         -1.9119  -11.9813  -41.1017 C.3       2 UNK        -0.1800 
     64 N          -1.4639  -12.7367  -43.3745 N.am      2 UNK        -0.5000 
     65 C          -0.9012  -13.4536  -44.3596 C.2       1 UNK         0.5000 
     66 O           0.2936  -13.7500  -44.3799 O.2       1 UNK        -0.5000 
     67 C          -1.3680  -20.1799  -47.7160 C.2       11 UNK         0.5000 
     68 O          -1.8168  -20.4723  -48.8230 O.2       11 UNK        -0.5000 
     69 N          -2.0937  -19.5791  -46.7606 N.am      12 UNK        -0.5000 
     70 CA         -3.5150  -19.2514  -46.8733 C.3       12 UNK         0.1400 
     71 CB         -3.9289  -18.3984  -45.6678 C.3       12 UNK        -0.1800 
     72 C          -4.4133  -20.4985  -46.9730 C.2       12 UNK         0.5000 
     73 O          -5.4133  -20.4683  -47.6893 O.2       12 UNK        -0.5000 
     74 N          -4.0338  -21.5821  -46.2790 N.am      13 UNK        -0.5000 
     75 CA         -4.7244  -22.8706  -46.3433 C.3       13 UNK         0.1400 
     76 CB         -4.2900  -23.7664  -45.1740 C.3       13 UNK        -0.1800 
     77 C          -4.4923  -23.5677  -47.6937 C.2       13 UNK         0.5000 
     78 O          -5.4301  -24.1475  -48.2387 O.2       13 UNK        -0.5000 
     79 N          -3.2704  -23.4515  -48.2363 N.am      14 UNK        -0.5000 
     80 CA         -2.9286  -23.8989  -49.5881 C.3       14 UNK         0.1400 
     81 CB         -1.4110  -23.8032  -49.8119 C.3       14 UNK        -0.1800 
     82 C          -3.7068  -23.1211  -50.6661 C.2       14 UNK         0.5000 
     83 O          -4.2536  -23.7426  -51.5747 O.2       14 UNK        -0.5000 
     84 N          -3.7982  -21.7920  -50.5055 N.am      15 UNK        -0.5000 
     85 CA         -4.5874  -20.8989  -51.3564 C.3       15 UNK         0.1400 
     86 CB         -4.3663  -19.4401  -50.9250 C.3       15 UNK        -0.1800 
     87 C          -6.0889  -21.2466  -51.3553 C.2       15 UNK         0.5000 
     88 O          -6.7066  -21.2898  -52.4208 O.2       15 UNK        -0.5000 
     89 N          -6.6411  -21.5203  -50.1642 N.am      16 UNK        -0.5000 
     90 CA         -8.0255  -21.9540  -49.9688 C.3       16 UNK         0.1400 
     91 CB         -8.3576  -21.9480  -48.4694 C.3       16 UNK        -0.1800 
     92 C          -8.3211  -23.3345  -50.5860 C.2       16 UNK         0.5000 
     93 O          -9.4128  -23.5383  -51.1195 O.2       16 UNK        -0.5000 
     94 N          -7.3412  -24.2465  -50.5413 N.am      17 UNK        -0.5000 
     95 CA         -7.3870  -25.5924  -51.1165 C.3       17 UNK         0.1400 
     96 CB         -6.3527  -26.4762  -50.3962 C.3       17 UNK        -0.1800 
     97 C          -7.2048  -25.5920  -52.6515 C.2       17 UNK         0.5000 
     98 O          -6.3262  -26.2819  -53.1717 O.2       17 UNK        -0.5000 
     99 N          -8.0618  -24.8292  -53.3452 N.am      18 UNK        -0.5000 
    100 CA        -8.1516  -24.6760  -54.8005 C.3       18 UNK         0.1400 
    101 CB        -8.6358  -25.9875  -55.4544 C.3       18 UNK        -0.1800 
    102 C         -6.8531  -24.1288  -55.4283 C.2       18 UNK         0.5000 
    103 O         -6.3297  -24.7105  -56.3817 O.2       18 UNK        -0.5000 
    104 N         -6.3586  -23.0147  -54.8704 N.am      19 UNK        -0.5000 
    105 CA        -5.1630  -22.2532  -55.2493 C.3       19 UNK         0.1400 
    106 CB        -5.2186  -21.7775  -56.7155 C.3       19 UNK        -0.1800 
    107 C         -3.8376  -22.9678  -54.9351 C.2       19 UNK         0.5000 
    108 O         -2.9845  -22.3714  -54.2792 O.2       19 UNK        -0.5000 
    109 N         -3.6801  -24.2099  -55.4135 N.am      20 UNK        -0.5000 
    110 CA        -2.5079  -25.0791  -55.2725 C.3       20 UNK         0.1400 
    111 CB        -2.4496  -25.6585  -53.8419 C.3       20 UNK        -0.1800 
    112 C         -1.2116  -24.3618  -55.7089 C.2       20 UNK         0.5000 
    113 O         -1.0192  -24.1364  -56.9055 O.2       20 UNK        -0.5000 
    114 N         -0.3812  -23.9647  -54.7344 N.am      21 UNK        -0.5000 
    115 CA         0.8403  -23.1751  -54.9069 C.3       21 UNK         0.1400 
    116 CB         1.5229  -23.0201  -53.5386 C.3       21 UNK        -0.1800 
    117 C          0.6163  -21.7912  -55.5526 C.2       21 UNK         0.5000 
    118 O          1.5371  -21.2691  -56.1827 O.2       21 UNK        -0.5000 
    119 N         -0.5923  -21.2325  -55.4072 N.am      22 UNK        -0.5000 
    120 CA        -1.0241  -19.9863  -56.0598 C.3       22 UNK         0.1400 
    121 C         -1.3744  -20.1520  -57.5692 C.2       22 UNK         0.5000 
    122 N         -1.4327  -21.3594  -58.1220 N.am      22 UNK        -0.7600 
    123 O         -1.5943  -19.1595  -58.2578 O.2       22 UNK        -0.5000 
    124 C124       -2.1910  -19.2941  -55.3045 C.3       23 UNK        -0.0398 
    125 S125       -1.8814  -19.0811  -53.5209 S.3       23 UNK        -0.2404 
    126 C126       -1.2435  -17.3812  -53.4693 C.3       23 UNK        -0.0205 
    127 H127       -5.6718  -15.8433  -44.2136 H         1 UNK         0.0600 
    128 H128       -5.4311  -14.6808  -42.9048 H         1 UNK         0.0600 
    129 H129       -5.7295  -14.1107  -44.5500 H         1 UNK         0.0600 
    130 H130       -3.8864  -13.3810  -45.5373 H         1 UNK         0.3000 
    131 H131       -1.8280  -13.0457  -46.2100 H         1 UNK         0.0600 
    132 H132       -0.3014  -14.9381  -46.6731 H         1 UNK         0.0800 
    133 H133       -1.2322  -15.9882  -45.6440 H         1 UNK         0.0800 
    134 H134       -0.8349  -14.0294  -48.7796 H         1 UNK         0.0800 
    135 H135       -2.2980  -14.2297  -49.7012 H         1 UNK         0.0800 
    136 H136       -2.2733  -15.6467  -51.6134 H         1 UNK         0.1150 
    137 H137        0.9615  -18.3836  -52.2553 H         1 UNK         0.1150 
    138 H138        0.7203  -16.1641  -48.5968 H         1 UNK         0.1150 
    139 H139        2.9580  -18.1018  -50.6805 H         1 UNK         0.0800 
    140 H140        2.6911  -17.5244  -49.0561 H         1 UNK         0.0800 
    141 H141        0.6682  -18.5079  -47.6613 H         1 UNK         0.0800 
    142 H142        1.9385  -19.4975  -47.0053 H         1 UNK         0.0800 
    143 H143        0.3025  -21.5015  -47.8860 H         1 UNK         0.0600 
    144 H144        0.6718  -20.2821  -45.3176 H         1 UNK         0.3000 
    145 H145       -0.9854  -21.4882  -43.3703 H         1 UNK         0.0600 
    146 H146       -0.3819  -23.6481  -42.2307 H         1 UNK         0.0600 
    147 H147       -1.5684  -23.8579  -43.5061 H         1 UNK         0.0600 
    148 H148        0.1029  -24.3188  -43.7881 H         1 UNK         0.0600 
    149 H149        1.0195  -20.8331  -42.7694 H         1 UNK         0.3000 
    150 H150        4.1110  -22.1865  -42.5074 H         1 UNK         0.0600 
    151 H151        4.7258  -21.5432  -44.7990 H         1 UNK         0.0600 
    152 H152        5.1698  -20.2323  -43.7157 H         1 UNK         0.0600 
    153 H153        3.7235  -20.1040  -44.7182 H         1 UNK         0.0600 
    154 H154        3.2544  -19.4444  -42.3142 H         1 UNK         0.3000 
    155 H155        1.4638  -19.7512  -39.2731 H         1 UNK         0.0600 
    156 H156        4.1967  -18.4717  -39.8239 H         1 UNK         0.0600 
    157 H157        3.8196  -19.5660  -38.5007 H         1 UNK         0.0600 
    158 H158        3.0633  -17.9819  -38.5649 H         1 UNK         0.0600 
    159 H159        2.2257  -17.5801  -41.0308 H         1 UNK         0.3000 
    160 H160       -0.8064  -17.6047  -42.9422 H         1 UNK         0.0600 
    161 H161       -0.8763  -15.3268  -42.0781 H         1 UNK         0.0600 
    162 H162        0.3901  -15.6579  -40.8965 H         1 UNK         0.0600 
    163 H163       -1.1943  -16.4144  -40.7446 H         1 UNK         0.0600 
    164 H164        1.5015  -15.9266  -43.0463 H         1 UNK         0.3000 
    165 H165        3.4641  -17.8960  -45.2671 H         1 UNK         0.0600 
    166 H166        3.3172  -15.9844  -46.7691 H         1 UNK         0.0600 
    167 H167        1.7432  -16.7597  -46.7399 H         1 UNK         0.0600 
    168 H168        1.9977  -15.2742  -45.8399 H         1 UNK         0.0600 
    169 H169        3.9338  -15.2899  -44.4164 H         1 UNK         0.3000 
    170 H170        4.7175  -15.3747  -41.1816 H         1 UNK         0.0600 
    171 H171        6.6726  -16.8851  -41.5233 H         1 UNK         0.0600 
    172 H172        7.0827  -16.0462  -43.0143 H         1 UNK         0.0600 
    173 H173        7.1833  -15.2070  -41.4654 H         1 UNK         0.0600 
    174 H174        5.9685  -13.8680  -43.2731 H         1 UNK         0.3000 
    175 H175        4.9353  -11.4565  -43.2588 H         1 UNK         0.0600 
    176 H176        4.7642  -11.4890  -45.7885 H         1 UNK         0.0600 
    177 H177        5.6716  -12.8644  -45.1953 H         1 UNK         0.0600 
    178 H178        4.0002  -13.0734  -45.7115 H         1 UNK         0.0600 
    179 H179        2.1149  -12.0062  -43.7530 H         1 UNK         0.3000 
    180 H180        1.2104   -8.7526  -43.1578 H         1 UNK         0.0600 
    181 H181        0.9476   -9.7945  -46.0320 H         1 UNK         0.0600 
    182 H182        1.5893   -8.2232  -45.5689 H         1 UNK         0.0600 
    183 H183       -0.0997   -8.5967  -45.2689 H         1 UNK         0.0600 
    184 H184       -0.2588  -10.9802  -44.2551 H         1 UNK         0.3000 
    185 H185       -0.2261  -13.1382  -41.7450 H         1 UNK         0.0600 
    186 H186       -2.5379  -11.1509  -41.4301 H         1 UNK         0.0600 
    187 H187       -2.5575  -12.8431  -40.9300 H         1 UNK         0.0600 
    188 H188       -1.4800  -11.7067  -40.1384 H         1 UNK         0.0600 
    189 H189       -2.4496  -12.5325  -43.4532 H         1 UNK         0.3000 
    190 H190       -1.6487  -19.3741  -45.8784 H         1 UNK         0.3000 
    191 H191       -3.6541  -18.6592  -47.7801 H         1 UNK         0.0600 
    192 H192       -3.8192  -18.9400  -44.7275 H         1 UNK         0.0600 
    193 H193       -4.9699  -18.0833  -45.7492 H         1 UNK         0.0600 
    194 H194       -3.3215  -17.4978  -45.6056 H         1 UNK         0.0600 
    195 H195       -3.1752  -21.5519  -45.7503 H         1 UNK         0.3000 
    196 H196       -5.7959  -22.6860  -46.2406 H         1 UNK         0.0600 
    197 H197       -4.8909  -24.6760  -45.1436 H         1 UNK         0.0600 
    198 H198       -4.4166  -23.2608  -44.2166 H         1 UNK         0.0600 
    199 H199       -3.2482  -24.0727  -45.2602 H         1 UNK         0.0600 
    200 H200       -2.5457  -22.9842  -47.7061 H         1 UNK         0.3000 
    201 H201       -3.2114  -24.9506  -49.6684 H         1 UNK         0.0600 
    202 H202       -0.8644  -24.3731  -49.0603 H         1 UNK         0.0600 
    203 H203       -1.0555  -22.7742  -49.7754 H         1 UNK         0.0600 
    204 H204       -1.1385  -24.2053  -50.7883 H         1 UNK         0.0600 
    205 H205       -3.2571  -21.3535  -49.7656 H         1 UNK         0.3000 
    206 H206       -4.2153  -21.0082  -52.3753 H         1 UNK         0.0600 
    207 H207       -3.3052  -19.1932  -50.8828 H         1 UNK         0.0600 
    208 H208       -4.8315  -18.7533  -51.6328 H         1 UNK         0.0600 
    209 H209       -4.7919  -19.2353  -49.9437 H         1 UNK         0.0600 
    210 H210       -6.0791  -21.4009  -49.3272 H         1 UNK         0.3000 
    211 H211       -8.6738  -21.2270  -50.4620 H         1 UNK         0.0600 
    212 H212       -7.7276  -22.6437  -47.9148 H         1 UNK         0.0600 
    213 H213       -9.3955  -22.2362  -48.2978 H         1 UNK         0.0600 
    214 H214       -8.2200  -20.9560  -48.0388 H         1 UNK         0.0600 
    215 H215       -6.4795  -23.9998  -50.0673 H         1 UNK         0.3000 
    216 H216       -8.3726  -26.0174  -50.9163 H         1 UNK         0.0600 
    217 H217       -6.3914  -27.5038  -50.7594 H         1 UNK         0.0600 
    218 H218       -6.5391  -26.5060  -49.3226 H         1 UNK         0.0600 
    219 H219       -5.3371  -26.1099  -50.5491 H         1 UNK         0.0600 
    220 H220       -8.7305  -24.2922  -52.8007 H         1 UNK         0.3000 
    221 H221       -8.9175  -23.9205  -54.9815 H         1 UNK         0.0600 
    222 H222       -7.9068  -26.7908  -55.3435 H         1 UNK         0.0600 
    223 H223       -9.5746  -26.3240  -55.0147 H         1 UNK         0.0600 
    224 H224       -8.8096  -25.8498  -56.5223 H         1 UNK         0.0600 
    225 H225       -6.8244  -22.6517  -54.0454 H         1 UNK         0.3000 
    226 H226       -5.1830  -21.3561  -54.6296 H         1 UNK         0.0600 
    227 H227       -5.1867  -22.6071  -57.4216 H         1 UNK         0.0600 
    228 H228       -4.3731  -21.1312  -56.9498 H         1 UNK         0.0600 
    229 H229       -6.1264  -21.2065  -56.9095 H         1 UNK         0.0600 
    230 H230       -4.4623  -24.5953  -55.9354 H         1 UNK         0.3000 
    231 H231       -2.6505  -25.9113  -55.9631 H         1 UNK         0.0600 
    232 H232       -3.3590  -26.2145  -53.6121 H         1 UNK         0.0600 
    233 H233       -2.3475  -24.8808  -53.0852 H         1 UNK         0.0600 
    234 H234       -1.6123  -26.3482  -53.7290 H         1 UNK         0.0600 
    235 H235       -0.6570  -24.1531  -53.7822 H         1 UNK         0.3000 
    236 H236        1.5065  -23.7379  -55.5637 H         1 UNK         0.0600 
    237 H237        1.7671  -23.9902  -53.1055 H         1 UNK         0.0600 
    238 H238        2.4555  -22.4612  -53.6275 H         1 UNK         0.0600 
    239 H239        0.8868  -22.4856  -52.8313 H         1 UNK         0.0600 
    240 H240       -1.3083  -21.7199  -54.8735 H         1 UNK         0.3000 
    241 H241       -0.1784  -19.2969  -56.0291 H         1 UNK         0.0600 
    242 H242       -1.6544  -21.4407  -59.1015 H         1 UNK         0.3800 
    243 H243       -1.2403  -22.1969  -57.5846 H         1 UNK         0.3800 
    244 H244       -2.4095  -18.3197  -55.7448 H         1 UNK         0.0800 
    245 H245       -3.1054  -19.8774  -55.4046 H         1 UNK         0.0800 
    246 H246       -2.0346  -16.6887  -53.7606 H         1 UNK         0.0800 
    247 H247       -0.4420  -17.2697  -54.2011 H         1 UNK         0.0800 
@<TRIPOS>BOND
     1    1    2 1    
     2    1  127 1    
     3    1  128 1    
     4    1  129 1    
     5    2    3 2    
     6    2    4 am   BACKBONE|DICT|INTERRES
     7    4    5 1    
     8    4  130 1    
     9    5    6 1    
    10    5   65 1    
    11    5  131 1    
    12    6    7 1    
    13    6  132 1    
    14    6  133 1    
    15    7    8 1    
    16    8    9 1    
    17    8  134 1    
    18    8  135 1    
    19    9   10 ar   
    20    9   14 ar   
    21   10   11 ar   
    22   10  136 1    
    23   11   12 ar   
    24   11  126 1    
    25   12   13 ar   
    26   12  137 1    
    27   13   14 ar   
    28   13   15 1    
    29   14  138 1    
    30   15   16 1    
    31   15  139 1    
    32   15  140 1    
    33   16   17 1    
    34   17   18 1    
    35   17  141 1    
    36   17  142 1    
    37   18   19 1    
    38   18   67 1    
    39   18  143 1    
    40   19   20 am   BACKBONE|DICT|INTERRES
    41   19  144 1    
    42   20   21 2    
    43   20   22 1    
    44   22   23 1    
    45   22   24 1    
    46   22  145 1    
    47   23  146 1    
    48   23  147 1    
    49   23  148 1    
    50   24   25 am   BACKBONE|DICT|INTERRES
    51   24  149 1    
    52   25   26 2    
    53   25   27 1    
    54   27   28 1    
    55   27   29 1    
    56   27  150 1    
    57   28  151 1    
    58   28  152 1    
    59   28  153 1    
    60   29   30 am   BACKBONE|DICT|INTERRES
    61   29  154 1    
    62   30   31 2    
    63   30   32 1    
    64   32   33 1    
    65   32   34 1    
    66   32  155 1    
    67   33  156 1    
    68   33  157 1    
    69   33  158 1    
    70   34   35 am   BACKBONE|DICT|INTERRES
    71   34  159 1    
    72   35   36 2    
    73   35   37 1    
    74   37   38 1    
    75   37   39 1    
    76   37  160 1    
    77   38  161 1    
    78   38  162 1    
    79   38  163 1    
    80   39   40 am   BACKBONE|DICT|INTERRES
    81   39  164 1    
    82   40   41 2    
    83   40   42 1    
    84   42   43 1    
    85   42   44 1    
    86   42  165 1    
    87   43  166 1    
    88   43  167 1    
    89   43  168 1    
    90   44   45 am   BACKBONE|DICT|INTERRES
    91   44  169 1    
    92   45   46 2    
    93   45   47 1    
    94   47   48 1    
    95   47   49 1    
    96   47  170 1    
    97   48  171 1    
    98   48  172 1    
    99   48  173 1    
   100   49   50 am   BACKBONE|DICT|INTERRES
   101   49  174 1    
   102   50   51 2    
   103   50   52 1    
   104   52   53 1    
   105   52   54 1    
   106   52  175 1    
   107   53  176 1    
   108   53  177 1    
   109   53  178 1    
   110   54   55 am   BACKBONE|DICT|INTERRES
   111   54  179 1    
   112   55   56 2    
   113   55   57 1    
   114   57   58 1    
   115   57   59 1    
   116   57  180 1    
   117   58  181 1    
   118   58  182 1    
   119   58  183 1    
   120   59   60 am   BACKBONE|DICT|INTERRES
   121   59  184 1    
   122   60   61 2    
   123   60   62 1    
   124   62   63 1    
   125   62   64 1    
   126   62  185 1    
   127   63  186 1    
   128   63  187 1    
   129   63  188 1    
   130   64   65 am   BACKBONE|DICT|INTERRES
   131   64  189 1    
   132   65   66 2    
   133   67   68 2    
   134   67   69 am   BACKBONE|DICT|INTERRES
   135   69   70 1    
   136   69  190 1    
   137   70   71 1    
   138   70   72 1    
   139   70  191 1    
   140   71  192 1    
   141   71  193 1    
   142   71  194 1    
   143   72   73 2    
   144   72   74 am   BACKBONE|DICT|INTERRES
   145   74   75 1    
   146   74  195 1    
   147   75   76 1    
   148   75   77 1    
   149   75  196 1    
   150   76  197 1    
   151   76  198 1    
   152   76  199 1    
   153   77   78 2    
   154   77   79 am   BACKBONE|DICT|INTERRES
   155   79   80 1    
   156   79  200 1    
   157   80   81 1    
   158   80   82 1    
   159   80  201 1    
   160   81  202 1    
   161   81  203 1    
   162   81  204 1    
   163   82   83 2    
   164   82   84 am   BACKBONE|DICT|INTERRES
   165   84   85 1    
   166   84  205 1    
   167   85   86 1    
   168   85   87 1    
   169   85  206 1    
   170   86  207 1    
   171   86  208 1    
   172   86  209 1    
   173   87   88 2    
   174   87   89 am   BACKBONE|DICT|INTERRES
   175   89   90 1    
   176   89  210 1    
   177   90   91 1    
   178   90   92 1    
   179   90  211 1    
   180   91  212 1    
   181   91  213 1    
   182   91  214 1    
   183   92   93 2    
   184   92   94 am   BACKBONE|DICT|INTERRES
   185   94   95 1    
   186   94  215 1    
   187   95   96 1    
   188   95   97 1    
   189   95  216 1    
   190   96  217 1    
   191   96  218 1    
   192   96  219 1    
   193   97   98 2    
   194   97   99 am   BACKBONE|DICT|INTERRES
   195   99  100 1    
   196   99  220 1    
   197  100  101 1    
   198  100  102 1    
   199  100  221 1    
   200  101  222 1    
   201  101  223 1    
   202  101  224 1    
   203  102  103 2    
   204  102  104 am   BACKBONE|DICT|INTERRES
   205  104  105 1    
   206  104  225 1    
   207  105  106 1    
   208  105  107 1    
   209  105  226 1    
   210  106  227 1    
   211  106  228 1    
   212  106  229 1    
   213  107  108 2    
   214  107  109 am   BACKBONE|DICT|INTERRES
   215  109  110 1    
   216  109  230 1    
   217  110  111 1    
   218  110  112 1    
   219  110  231 1    
   220  111  232 1    
   221  111  233 1    
   222  111  234 1    
   223  112  113 2    
   224  112  114 am   BACKBONE|DICT|INTERRES
   225  114  115 1    
   226  114  235 1    
   227  115  116 1    
   228  115  117 1    
   229  115  236 1    
   230  116  237 1    
   231  116  238 1    
   232  116  239 1    
   233  117  118 2    
   234  117  119 am   BACKBONE|DICT|INTERRES
   235  119  120 1    
   236  119  240 1    
   237  120  121 1    
   238  120  124 1    
   239  120  241 1    
   240  121  122 am   BACKBONE|DICT|INTERRES
   241  121  123 2    
   242  122  242 1    
   243  122  243 1    
   244  124  125 1    
   245  124  244 1    
   246  124  245 1    
   247  125  126 1    
   248  126  246 1    
   249  126  247 1    
@<TRIPOS>SUBSTRUCTURE
     1 UNK         1 GROUP             0       ****    0 ROOT    
