@<TRIPOS>MOLECULE
3R540
247   249    1
SMALL
USER_CHARGES


@<TRIPOS>ATOM
      1 CA          5.3975  -10.5265  -47.4825 C.3       0 UNK        -0.1800 
      2 C           4.2643  -11.5338  -47.3554 C.2       0 UNK         0.5000 
      3 O           3.1849  -11.1889  -46.8749 O.2       0 UNK        -0.5000 
      4 N           4.5041  -12.7857  -47.7620 N.am      1 UNK        -0.5000 
      5 CA          3.5053  -13.8579  -47.8006 C.3       1 UNK         0.1400 
      6 C6          4.1646  -15.2418  -48.0413 C.3       23 UNK        -0.0398 
      7 S7          5.1849  -15.3473  -49.5556 S.3       23 UNK        -0.2404 
      8 C8          5.4952  -17.1459  -49.6660 C.3       23 UNK        -0.0205 
      9 C9          4.2601  -18.0245  -49.8774 C.ar      23 UNK        -0.0193 
     10 C10         3.0661  -17.5261  -50.4167 C.ar      23 UNK        -0.1150 
     11 C11         1.9538  -18.3552  -50.5707 C.ar      23 UNK        -0.0193 
     12 C12         2.0420  -19.7016  -50.2123 C.ar      23 UNK        -0.1150 
     13 C13         3.2302  -20.2226  -49.6967 C.ar      23 UNK        -0.0193 
     14 C14         4.3332  -19.3791  -49.5317 C.ar      23 UNK        -0.1150 
     15 C15         3.3163  -21.7000  -49.3357 C.3       23 UNK        -0.0205 
     16 S16         3.5741  -22.0053  -47.5561 S.3       23 UNK        -0.2404 
     17 C17         2.2252  -21.0687  -46.7614 C.3       23 UNK        -0.0398 
     18 CA          0.9031  -21.8675  -46.6225 C.3       11 UNK         0.1400 
     19 N           0.2003  -21.5642  -45.3725 N.am      11 UNK        -0.5000 
     20 C          -0.8821  -22.2123  -44.9177 C.2       10 UNK         0.5000 
     21 O          -1.3526  -23.2137  -45.4545 O.2       10 UNK        -0.5000 
     22 CA         -1.5914  -21.6113  -43.6886 C.3       10 UNK         0.1400 
     23 CB         -1.0116  -22.1838  -42.3872 C.3       10 UNK        -0.1800 
     24 N          -1.5296  -20.1480  -43.6602 N.am      10 UNK        -0.5000 
     25 C          -2.1032  -19.3468  -44.5697 C.2       9 UNK         0.5000 
     26 O          -2.8139  -19.7635  -45.4839 O.2       9 UNK        -0.5000 
     27 CA         -1.7745  -17.8429  -44.4860 C.3       9 UNK         0.1400 
     28 CB         -2.6673  -17.1335  -43.4587 C.3       9 UNK        -0.1800 
     29 N          -0.3651  -17.6005  -44.1703 N.am      9 UNK        -0.5000 
     30 C           0.6554  -17.9188  -44.9792 C.2       8 UNK         0.5000 
     31 O           0.5056  -18.3681  -46.1156 O.2       8 UNK        -0.5000 
     32 CA          2.0760  -17.7898  -44.3959 C.3       8 UNK         0.1400 
     33 CB          2.6549  -16.3800  -44.5843 C.3       8 UNK        -0.1800 
     34 N           2.1073  -18.1437  -42.9773 N.am      8 UNK        -0.5000 
     35 C           2.0499  -19.4003  -42.5149 C.2       7 UNK         0.5000 
     36 O           2.0045  -20.3892  -43.2449 O.2       7 UNK        -0.5000 
     37 CA          1.9989  -19.5819  -40.9855 C.3       7 UNK         0.1400 
     38 CB          3.4188  -19.6296  -40.4022 C.3       7 UNK        -0.1800 
     39 N           1.2384  -18.5265  -40.3150 N.am      7 UNK        -0.5000 
     40 C          -0.0818  -18.3355  -40.4514 C.2       6 UNK         0.5000 
     41 O          -0.8111  -19.0800  -41.1034 O.2       6 UNK        -0.5000 
     42 CA         -0.6749  -17.0690  -39.8022 C.3       6 UNK         0.1400 
     43 CB         -1.1664  -17.3728  -38.3796 C.3       6 UNK        -0.1800 
     44 N           0.2686  -15.9473  -39.7619 N.am      6 UNK        -0.5000 
     45 C           0.8135  -15.3715  -40.8416 C.2       5 UNK         0.5000 
     46 O           0.5438  -15.6960  -42.0004 O.2       5 UNK        -0.5000 
     47 CA          1.9057  -14.3320  -40.5713 C.3       5 UNK         0.1400 
     48 CB          3.1960  -15.0376  -40.1019 C.3       5 UNK        -0.1800 
     49 N           2.1721  -13.5633  -41.7843 N.am      5 UNK        -0.5000 
     50 C           2.8616  -12.4173  -41.8169 C.2       4 UNK         0.5000 
     51 O           3.2933  -11.8542  -40.8093 O.2       4 UNK        -0.5000 
     52 CA          3.1511  -11.7953  -43.1964 C.3       4 UNK         0.1400 
     53 CB          4.4460  -12.3942  -43.7697 C.3       4 UNK        -0.1800 
     54 N           2.0838  -11.9042  -44.1965 N.am      4 UNK        -0.5000 
     55 C           0.8171  -11.4904  -44.0508 C.2       3 UNK         0.5000 
     56 O           0.3528  -11.0550  -42.9965 O.2       3 UNK        -0.5000 
     57 CA         -0.0849  -11.5305  -45.3020 C.3       3 UNK         0.1400 
     58 CB         -0.1842  -10.1326  -45.9326 C.3       3 UNK        -0.1800 
     59 N           0.3370  -12.4820  -46.3352 N.am      3 UNK        -0.5000 
     60 C           0.2277  -13.8125  -46.2296 C.2       2 UNK         0.5000 
     61 O          -0.1562  -14.3758  -45.2069 O.2       2 UNK        -0.5000 
     62 CA          0.5749  -14.6667  -47.4678 C.3       2 UNK         0.1400 
     63 CB         -0.6820  -15.3920  -47.9661 C.3       2 UNK        -0.1800 
     64 N           1.1185  -13.9036  -48.5950 N.am      2 UNK        -0.5000 
     65 C           2.3863  -13.5354  -48.8287 C.2       1 UNK         0.5000 
     66 O           2.6776  -12.9288  -49.8605 O.2       1 UNK        -0.5000 
     67 C          -0.0184  -21.6544  -47.8415 C.2       11 UNK         0.5000 
     68 O          -0.1137  -22.5389  -48.6910 O.2       11 UNK        -0.5000 
     69 N          -0.7267  -20.5151  -47.8796 N.am      12 UNK        -0.5000 
     70 CA         -1.7175  -20.1853  -48.9095 C.3       12 UNK         0.1400 
     71 CB         -2.2224  -18.7506  -48.7032 C.3       12 UNK        -0.1800 
     72 C          -2.9015  -21.1655  -48.9415 C.2       12 UNK         0.5000 
     73 O          -3.3451  -21.5455  -50.0239 O.2       12 UNK        -0.5000 
     74 N          -3.3660  -21.5765  -47.7546 N.am      13 UNK        -0.5000 
     75 CA         -4.4209  -22.5728  -47.5725 C.3       13 UNK         0.1400 
     76 CB         -4.8921  -22.5461  -46.1113 C.3       13 UNK        -0.1800 
     77 C          -4.0055  -23.9994  -47.9850 C.2       13 UNK         0.5000 
     78 O          -4.8832  -24.8213  -48.2450 O.2       13 UNK        -0.5000 
     79 N          -2.6967  -24.2771  -48.0374 N.am      14 UNK        -0.5000 
     80 CA         -2.1392  -25.5325  -48.5322 C.3       14 UNK         0.1400 
     81 CB         -0.8340  -25.8482  -47.7845 C.3       14 UNK        -0.1800 
     82 C          -1.9062  -25.4727  -50.0511 C.2       14 UNK         0.5000 
     83 O          -2.2996  -26.4017  -50.7571 O.2       14 UNK        -0.5000 
     84 N          -1.2775  -24.3853  -50.5212 N.am      15 UNK        -0.5000 
     85 CA         -0.8923  -24.1179  -51.9089 C.3       15 UNK         0.1400 
     86 CB         -0.1184  -22.7910  -51.9563 C.3       15 UNK        -0.1800 
     87 C          -2.0873  -24.1176  -52.8832 C.2       15 UNK         0.5000 
     88 O          -2.7691  -23.1000  -53.0273 O.2       15 UNK        -0.5000 
     89 N          -2.3139  -25.2807  -53.5124 N.am      16 UNK        -0.5000 
     90 CA         -3.4380  -25.6266  -54.3924 C.3       16 UNK         0.1400 
     91 CB         -3.4094  -24.7895  -55.6875 C.3       16 UNK        -0.1800 
     92 C          -4.8086  -25.6029  -53.6780 C.2       16 UNK         0.5000 
     93 O          -5.8390  -25.4557  -54.3368 O.2       16 UNK        -0.5000 
     94 N          -4.7836  -25.7818  -52.3482 N.am      17 UNK        -0.5000 
     95 CA         -5.8878  -25.6957  -51.3894 C.3       17 UNK         0.1400 
     96 CB         -7.0139  -26.6919  -51.7366 C.3       17 UNK        -0.1800 
     97 C          -6.4404  -24.2655  -51.2123 C.2       17 UNK         0.5000 
     98 O          -6.2099  -23.3766  -52.0354 O.2       17 UNK        -0.5000 
     99 N          -7.2188  -24.0759  -50.1391 N.am      18 UNK        -0.5000 
    100 CA        -7.8874  -22.8181  -49.7884 C.3       18 UNK         0.1400 
    101 CB        -8.4789  -22.9471  -48.3768 C.3       18 UNK        -0.1800 
    102 C         -8.9683  -22.3790  -50.7982 C.2       18 UNK         0.5000 
    103 O         -9.3601  -21.2124  -50.7938 O.2       18 UNK        -0.5000 
    104 N         -9.4100  -23.3070  -51.6594 N.am      19 UNK        -0.5000 
    105 CA       -10.2633  -23.0398  -52.8164 C.3       19 UNK         0.1400 
    106 CB       -10.7311  -24.3757  -53.4138 C.3       19 UNK        -0.1800 
    107 C         -9.5575  -22.1837  -53.8875 C.2       19 UNK         0.5000 
    108 O        -10.2167  -21.3691  -54.5349 O.2       19 UNK        -0.5000 
    109 N         -8.2379  -22.3667  -54.0415 N.am      20 UNK        -0.5000 
    110 CA        -7.3869  -21.5294  -54.8842 C.3       20 UNK         0.1400 
    111 CB        -6.2358  -22.3670  -55.4579 C.3       20 UNK        -0.1800 
    112 C         -6.8360  -20.3422  -54.0806 C.2       20 UNK         0.5000 
    113 O         -6.8925  -19.2144  -54.5708 O.2       20 UNK        -0.5000 
    114 N         -6.3381  -20.6287  -52.8651 N.am      21 UNK        -0.5000 
    115 CA        -5.6896  -19.7152  -51.9202 C.3       21 UNK         0.1400 
    116 CB        -6.6831  -18.6610  -51.3912 C.3       21 UNK        -0.1800 
    117 C         -4.4226  -19.0904  -52.5355 C.2       21 UNK         0.5000 
    118 O         -4.4679  -17.9708  -53.0489 O.2       21 UNK        -0.5000 
    119 N         -3.3221  -19.8499  -52.4954 N.am      22 UNK        -0.5000 
    120 CA        -2.0682  -19.5782  -53.2156 C.3       22 UNK         0.1400 
    121 C         -2.1812  -19.9244  -54.7292 C.2       22 UNK         0.5000 
    122 N         -2.6723  -21.1105  -55.0628 N.am      22 UNK        -0.7600 
    123 O         -1.8359  -19.1360  -55.6056 O.2       22 UNK        -0.5000 
    124 C124       -1.4549  -18.1758  -52.9184 C.3       23 UNK        -0.0398 
    125 S125        0.3688  -18.2326  -52.8363 S.3       23 UNK        -0.2404 
    126 C126        0.6438  -17.7969  -51.0940 C.3       23 UNK        -0.0205 
    127 H127        5.6369  -10.1063  -46.5057 H         1 UNK         0.0600 
    128 H128        5.1005   -9.7114  -48.1422 H         1 UNK         0.0600 
    129 H129        6.3010  -10.9823  -47.8883 H         1 UNK         0.0600 
    130 H130        5.3944  -13.0115  -48.1827 H         1 UNK         0.3000 
    131 H131        3.0617  -13.8824  -46.8051 H         1 UNK         0.0600 
    132 H132        3.4051  -16.0234  -48.0643 H         1 UNK         0.0800 
    133 H133        4.8075  -15.4855  -47.1943 H         1 UNK         0.0800 
    134 H134        6.1845  -17.3239  -50.4922 H         1 UNK         0.0800 
    135 H135        6.0153  -17.4571  -48.7586 H         1 UNK         0.0800 
    136 H136        2.9875  -16.4890  -50.7084 H         1 UNK         0.1150 
    137 H137        1.1834  -20.3447  -50.3420 H         1 UNK         0.1150 
    138 H138        5.2518  -19.7822  -49.1283 H         1 UNK         0.1150 
    139 H139        2.4194  -22.2306  -49.6562 H         1 UNK         0.0800 
    140 H140        4.1423  -22.1486  -49.8889 H         1 UNK         0.0800 
    141 H141        2.0832  -20.1078  -47.2570 H         1 UNK         0.0800 
    142 H142        2.6054  -20.8183  -45.7715 H         1 UNK         0.0800 
    143 H143        1.1448  -22.9318  -46.5806 H         1 UNK         0.0600 
    144 H144        0.5575  -20.7902  -44.8271 H         1 UNK         0.3000 
    145 H145       -2.6437  -21.8964  -43.7406 H         1 UNK         0.0600 
    146 H146       -1.5456  -21.8033  -41.5164 H         1 UNK         0.0600 
    147 H147       -1.0941  -23.2712  -42.3700 H         1 UNK         0.0600 
    148 H148        0.0422  -21.9341  -42.2696 H         1 UNK         0.0600 
    149 H149       -1.0341  -19.7267  -42.8793 H         1 UNK         0.3000 
    150 H150       -1.9779  -17.4057  -45.4650 H         1 UNK         0.0600 
    151 H151       -3.7193  -17.2246  -43.7317 H         1 UNK         0.0600 
    152 H152       -2.4345  -16.0696  -43.4036 H         1 UNK         0.0600 
    153 H153       -2.5519  -17.5552  -42.4611 H         1 UNK         0.0600 
    154 H154       -0.1579  -17.1611  -43.2804 H         1 UNK         0.3000 
    155 H155        2.7224  -18.4838  -44.9369 H         1 UNK         0.0600 
    156 H156        2.0044  -15.6101  -44.1719 H         1 UNK         0.0600 
    157 H157        2.7967  -16.1647  -45.6405 H         1 UNK         0.0600 
    158 H158        3.6298  -16.2850  -44.1059 H         1 UNK         0.0600 
    159 H159        2.0658  -17.3775  -42.3210 H         1 UNK         0.3000 
    160 H160        1.5113  -20.5367  -40.7786 H         1 UNK         0.0600 
    161 H161        3.9509  -18.6899  -40.5567 H         1 UNK         0.0600 
    162 H162        4.0063  -20.4206  -40.8704 H         1 UNK         0.0600 
    163 H163        3.3985  -19.8323  -39.3313 H         1 UNK         0.0600 
    164 H164        1.7619  -17.8762  -39.7487 H         1 UNK         0.3000 
    165 H165       -1.5331  -16.7605  -40.4021 H         1 UNK         0.0600 
    166 H166       -1.6607  -16.5065  -37.9394 H         1 UNK         0.0600 
    167 H167       -1.8888  -18.1902  -38.3828 H         1 UNK         0.0600 
    168 H168       -0.3457  -17.6625  -37.7222 H         1 UNK         0.0600 
    169 H169        0.5471  -15.6298  -38.8443 H         1 UNK         0.3000 
    170 H170        1.5467  -13.6567  -39.7919 H         1 UNK         0.0600 
    171 H171        3.0215  -15.6356  -39.2068 H         1 UNK         0.0600 
    172 H172        3.5905  -15.7033  -40.8708 H         1 UNK         0.0600 
    173 H173        3.9780  -14.3207  -39.8522 H         1 UNK         0.0600 
    174 H174        1.7783  -13.9499  -42.6332 H         1 UNK         0.3000 
    175 H175        3.3201  -10.7296  -43.0303 H         1 UNK         0.0600 
    176 H176        4.2941  -13.4104  -44.1358 H         1 UNK         0.0600 
    177 H177        4.8288  -11.7900  -44.5897 H         1 UNK         0.0600 
    178 H178        5.2336  -12.4316  -43.0155 H         1 UNK         0.0600 
    179 H179        2.3794  -12.1289  -45.1379 H         1 UNK         0.3000 
    180 H180       -1.0836  -11.8192  -44.9671 H         1 UNK         0.0600 
    181 H181        0.7816   -9.7930  -46.3092 H         1 UNK         0.0600 
    182 H182       -0.5294   -9.3973  -45.2045 H         1 UNK         0.0600 
    183 H183       -0.8913  -10.1225  -46.7622 H         1 UNK         0.0600 
    184 H184        0.6891  -12.0862  -47.1954 H         1 UNK         0.3000 
    185 H185        1.2888  -15.4306  -47.1647 H         1 UNK         0.0600 
    186 H186       -1.0781  -16.0584  -47.1999 H         1 UNK         0.0600 
    187 H187       -1.4743  -14.6923  -48.2351 H         1 UNK         0.0600 
    188 H188       -0.4596  -15.9977  -48.8433 H         1 UNK         0.0600 
    189 H189        0.4335  -13.6433  -49.2893 H         1 UNK         0.3000 
    190 H190       -0.5727  -19.8234  -47.1534 H         1 UNK         0.3000 
    191 H191       -1.2164  -20.2382  -49.8770 H         1 UNK         0.0600 
    192 H192       -1.3932  -18.0660  -48.5451 H         1 UNK         0.0600 
    193 H193       -2.7797  -18.4053  -49.5746 H         1 UNK         0.0600 
    194 H194       -2.8828  -18.6665  -47.8406 H         1 UNK         0.0600 
    195 H195       -2.9850  -21.1524  -46.9142 H         1 UNK         0.3000 
    196 H196       -5.2618  -22.2850  -48.2054 H         1 UNK         0.0600 
    197 H197       -5.7302  -23.2270  -45.9586 H         1 UNK         0.0600 
    198 H198       -5.2244  -21.5494  -45.8202 H         1 UNK         0.0600 
    199 H199       -4.0978  -22.8485  -45.4295 H         1 UNK         0.0600 
    200 H200       -2.0369  -23.5582  -47.7707 H         1 UNK         0.3000 
    201 H201       -2.8383  -26.3472  -48.3312 H         1 UNK         0.0600 
    202 H202       -1.0072  -25.9270  -46.7110 H         1 UNK         0.0600 
    203 H203       -0.0747  -25.0822  -47.9416 H         1 UNK         0.0600 
    204 H204       -0.4147  -26.7982  -48.1178 H         1 UNK         0.0600 
    205 H205       -0.9832  -23.6807  -49.8491 H         1 UNK         0.3000 
    206 H206       -0.2048  -24.9072  -52.2187 H         1 UNK         0.0600 
    207 H207        0.8370  -22.8771  -51.4395 H         1 UNK         0.0600 
    208 H208        0.0924  -22.4871  -52.9825 H         1 UNK         0.0600 
    209 H209       -0.6805  -21.9906  -51.4772 H         1 UNK         0.0600 
    210 H210       -1.7104  -26.0569  -53.2767 H         1 UNK         0.3000 
    211 H211       -3.2801  -26.6668  -54.6799 H         1 UNK         0.0600 
    212 H212       -3.6011  -23.7362  -55.4938 H         1 UNK         0.0600 
    213 H213       -4.1657  -25.1326  -56.3942 H         1 UNK         0.0600 
    214 H214       -2.4430  -24.8673  -56.1851 H         1 UNK         0.0600 
    215 H215       -3.8699  -25.9071  -51.9244 H         1 UNK         0.3000 
    216 H216       -5.4599  -26.0024  -50.4357 H         1 UNK         0.0600 
    217 H217       -7.7318  -26.7727  -50.9199 H         1 UNK         0.0600 
    218 H218       -6.6158  -27.6912  -51.9132 H         1 UNK         0.0600 
    219 H219       -7.5697  -26.3905  -52.6249 H         1 UNK         0.0600 
    220 H220       -7.3390  -24.8398  -49.4889 H         1 UNK         0.3000 
    221 H221       -7.1303  -22.0316  -49.7724 H         1 UNK         0.0600 
    222 H222       -9.2409  -23.7261  -48.3306 H         1 UNK         0.0600 
    223 H223       -7.7075  -23.1879  -47.6454 H         1 UNK         0.0600 
    224 H224       -8.9443  -22.0127  -48.0604 H         1 UNK         0.0600 
    225 H225       -9.0481  -24.2442  -51.5701 H         1 UNK         0.3000 
    226 H226      -11.1415  -22.4895  -52.4723 H         1 UNK         0.0600 
    227 H227      -11.2899  -24.9609  -52.6833 H         1 UNK         0.0600 
    228 H228      -11.3883  -24.2114  -54.2687 H         1 UNK         0.0600 
    229 H229       -9.8903  -24.9800  -53.7573 H         1 UNK         0.0600 
    230 H230       -7.7568  -23.0291  -53.4448 H         1 UNK         0.3000 
    231 H231       -7.9658  -21.1392  -55.7242 H         1 UNK         0.0600 
    232 H232       -6.6087  -23.2203  -56.0245 H         1 UNK         0.0600 
    233 H233       -5.5874  -22.7463  -54.6680 H         1 UNK         0.0600 
    234 H234       -5.6169  -21.7714  -56.1298 H         1 UNK         0.0600 
    235 H235       -6.3048  -21.6101  -52.5960 H         1 UNK         0.3000 
    236 H236       -5.3834  -20.3217  -51.0680 H         1 UNK         0.0600 
    237 H237       -6.2079  -18.0238  -50.6446 H         1 UNK         0.0600 
    238 H238       -7.0565  -18.0114  -52.1830 H         1 UNK         0.0600 
    239 H239       -7.5416  -19.1343  -50.9156 H         1 UNK         0.0600 
    240 H240       -3.3764  -20.7563  -52.0411 H         1 UNK         0.3000 
    241 H241       -1.3765  -20.3181  -52.8187 H         1 UNK         0.0600 
    242 H242       -2.7536  -21.3546  -56.0359 H         1 UNK         0.3800 
    243 H243       -2.8900  -21.7973  -54.3435 H         1 UNK         0.3800 
    244 H244       -1.8363  -17.7920  -51.9720 H         1 UNK         0.0800 
    245 H245       -1.7590  -17.4365  -53.6609 H         1 UNK         0.0800 
    246 H246        0.6108  -16.7118  -50.9859 H         1 UNK         0.0800 
    247 H247       -0.1627  -18.1921  -50.4823 H         1 UNK         0.0800 
@<TRIPOS>BOND
     1    1    2 1    
     2    1  127 1    
     3    1  128 1    
     4    1  129 1    
     5    2    3 2    
     6    2    4 am   BACKBONE|DICT|INTERRES
     7    4    5 1    
     8    4  130 1    
     9    5    6 1    
    10    5   65 1    
    11    5  131 1    
    12    6    7 1    
    13    6  132 1    
    14    6  133 1    
    15    7    8 1    
    16    8    9 1    
    17    8  134 1    
    18    8  135 1    
    19    9   10 ar   
    20    9   14 ar   
    21   10   11 ar   
    22   10  136 1    
    23   11   12 ar   
    24   11  126 1    
    25   12   13 ar   
    26   12  137 1    
    27   13   14 ar   
    28   13   15 1    
    29   14  138 1    
    30   15   16 1    
    31   15  139 1    
    32   15  140 1    
    33   16   17 1    
    34   17   18 1    
    35   17  141 1    
    36   17  142 1    
    37   18   19 1    
    38   18   67 1    
    39   18  143 1    
    40   19   20 am   BACKBONE|DICT|INTERRES
    41   19  144 1    
    42   20   21 2    
    43   20   22 1    
    44   22   23 1    
    45   22   24 1    
    46   22  145 1    
    47   23  146 1    
    48   23  147 1    
    49   23  148 1    
    50   24   25 am   BACKBONE|DICT|INTERRES
    51   24  149 1    
    52   25   26 2    
    53   25   27 1    
    54   27   28 1    
    55   27   29 1    
    56   27  150 1    
    57   28  151 1    
    58   28  152 1    
    59   28  153 1    
    60   29   30 am   BACKBONE|DICT|INTERRES
    61   29  154 1    
    62   30   31 2    
    63   30   32 1    
    64   32   33 1    
    65   32   34 1    
    66   32  155 1    
    67   33  156 1    
    68   33  157 1    
    69   33  158 1    
    70   34   35 am   BACKBONE|DICT|INTERRES
    71   34  159 1    
    72   35   36 2    
    73   35   37 1    
    74   37   38 1    
    75   37   39 1    
    76   37  160 1    
    77   38  161 1    
    78   38  162 1    
    79   38  163 1    
    80   39   40 am   BACKBONE|DICT|INTERRES
    81   39  164 1    
    82   40   41 2    
    83   40   42 1    
    84   42   43 1    
    85   42   44 1    
    86   42  165 1    
    87   43  166 1    
    88   43  167 1    
    89   43  168 1    
    90   44   45 am   BACKBONE|DICT|INTERRES
    91   44  169 1    
    92   45   46 2    
    93   45   47 1    
    94   47   48 1    
    95   47   49 1    
    96   47  170 1    
    97   48  171 1    
    98   48  172 1    
    99   48  173 1    
   100   49   50 am   BACKBONE|DICT|INTERRES
   101   49  174 1    
   102   50   51 2    
   103   50   52 1    
   104   52   53 1    
   105   52   54 1    
   106   52  175 1    
   107   53  176 1    
   108   53  177 1    
   109   53  178 1    
   110   54   55 am   BACKBONE|DICT|INTERRES
   111   54  179 1    
   112   55   56 2    
   113   55   57 1    
   114   57   58 1    
   115   57   59 1    
   116   57  180 1    
   117   58  181 1    
   118   58  182 1    
   119   58  183 1    
   120   59   60 am   BACKBONE|DICT|INTERRES
   121   59  184 1    
   122   60   61 2    
   123   60   62 1    
   124   62   63 1    
   125   62   64 1    
   126   62  185 1    
   127   63  186 1    
   128   63  187 1    
   129   63  188 1    
   130   64   65 am   BACKBONE|DICT|INTERRES
   131   64  189 1    
   132   65   66 2    
   133   67   68 2    
   134   67   69 am   BACKBONE|DICT|INTERRES
   135   69   70 1    
   136   69  190 1    
   137   70   71 1    
   138   70   72 1    
   139   70  191 1    
   140   71  192 1    
   141   71  193 1    
   142   71  194 1    
   143   72   73 2    
   144   72   74 am   BACKBONE|DICT|INTERRES
   145   74   75 1    
   146   74  195 1    
   147   75   76 1    
   148   75   77 1    
   149   75  196 1    
   150   76  197 1    
   151   76  198 1    
   152   76  199 1    
   153   77   78 2    
   154   77   79 am   BACKBONE|DICT|INTERRES
   155   79   80 1    
   156   79  200 1    
   157   80   81 1    
   158   80   82 1    
   159   80  201 1    
   160   81  202 1    
   161   81  203 1    
   162   81  204 1    
   163   82   83 2    
   164   82   84 am   BACKBONE|DICT|INTERRES
   165   84   85 1    
   166   84  205 1    
   167   85   86 1    
   168   85   87 1    
   169   85  206 1    
   170   86  207 1    
   171   86  208 1    
   172   86  209 1    
   173   87   88 2    
   174   87   89 am   BACKBONE|DICT|INTERRES
   175   89   90 1    
   176   89  210 1    
   177   90   91 1    
   178   90   92 1    
   179   90  211 1    
   180   91  212 1    
   181   91  213 1    
   182   91  214 1    
   183   92   93 2    
   184   92   94 am   BACKBONE|DICT|INTERRES
   185   94   95 1    
   186   94  215 1    
   187   95   96 1    
   188   95   97 1    
   189   95  216 1    
   190   96  217 1    
   191   96  218 1    
   192   96  219 1    
   193   97   98 2    
   194   97   99 am   BACKBONE|DICT|INTERRES
   195   99  100 1    
   196   99  220 1    
   197  100  101 1    
   198  100  102 1    
   199  100  221 1    
   200  101  222 1    
   201  101  223 1    
   202  101  224 1    
   203  102  103 2    
   204  102  104 am   BACKBONE|DICT|INTERRES
   205  104  105 1    
   206  104  225 1    
   207  105  106 1    
   208  105  107 1    
   209  105  226 1    
   210  106  227 1    
   211  106  228 1    
   212  106  229 1    
   213  107  108 2    
   214  107  109 am   BACKBONE|DICT|INTERRES
   215  109  110 1    
   216  109  230 1    
   217  110  111 1    
   218  110  112 1    
   219  110  231 1    
   220  111  232 1    
   221  111  233 1    
   222  111  234 1    
   223  112  113 2    
   224  112  114 am   BACKBONE|DICT|INTERRES
   225  114  115 1    
   226  114  235 1    
   227  115  116 1    
   228  115  117 1    
   229  115  236 1    
   230  116  237 1    
   231  116  238 1    
   232  116  239 1    
   233  117  118 2    
   234  117  119 am   BACKBONE|DICT|INTERRES
   235  119  120 1    
   236  119  240 1    
   237  120  121 1    
   238  120  124 1    
   239  120  241 1    
   240  121  122 am   BACKBONE|DICT|INTERRES
   241  121  123 2    
   242  122  242 1    
   243  122  243 1    
   244  124  125 1    
   245  124  244 1    
   246  124  245 1    
   247  125  126 1    
   248  126  246 1    
   249  126  247 1    
@<TRIPOS>SUBSTRUCTURE
     1 UNK         1 GROUP             0       ****    0 ROOT    
