@<TRIPOS>MOLECULE
3R540
247   249    1
SMALL
USER_CHARGES


@<TRIPOS>ATOM
      1 CA          1.6262  -11.2723  -42.5816 C.3       0 UNK        -0.1800 
      2 C           1.0770  -11.0407  -43.9807 C.2       0 UNK         0.5000 
      3 O           1.4612  -11.7500  -44.9115 O.2       0 UNK        -0.5000 
      4 N           0.1882  -10.0462  -44.1144 N.am      1 UNK        -0.5000 
      5 CA         -0.4222   -9.5330  -45.3493 C.3       1 UNK         0.1400 
      6 C6         -1.6421  -10.3573  -45.8652 C.3       23 UNK        -0.0398 
      7 S7         -1.3242  -12.0609  -46.4419 S.3       23 UNK        -0.2404 
      8 C8         -2.9813  -12.5405  -47.0085 C.3       23 UNK        -0.0205 
      9 C9         -2.9709  -13.9495  -47.5768 C.ar      23 UNK        -0.0193 
     10 C10        -2.4905  -14.1760  -48.8683 C.ar      23 UNK        -0.1150 
     11 C11        -2.4553  -15.4681  -49.3983 C.ar      23 UNK        -0.0193 
     12 C12        -2.9250  -16.5397  -48.6324 C.ar      23 UNK        -0.1150 
     13 C13        -3.4121  -16.3243  -47.3389 C.ar      23 UNK        -0.0193 
     14 C14        -3.4301  -15.0276  -46.8156 C.ar      23 UNK        -0.1150 
     15 C15        -3.9112  -17.4886  -46.4987 C.3       23 UNK        -0.0205 
     16 S16        -2.5810  -18.1439  -45.4493 S.3       23 UNK        -0.2404 
     17 C17        -3.4822  -19.3538  -44.4281 C.3       23 UNK        -0.0398 
     18 CA         -3.4079  -20.7909  -44.9929 C.3       11 UNK         0.1400 
     19 N          -2.0263  -21.2524  -45.1879 N.am      11 UNK        -0.5000 
     20 C          -1.6500  -22.4102  -45.7480 C.2       10 UNK         0.5000 
     21 O          -2.4478  -23.2601  -46.1514 O.2       10 UNK        -0.5000 
     22 CA         -0.1317  -22.6280  -45.8706 C.3       10 UNK         0.1400 
     23 CB          0.2470  -23.9874  -46.4961 C.3       10 UNK        -0.1800 
     24 N           0.4970  -21.4959  -46.5585 N.am      10 UNK        -0.5000 
     25 C           0.4031  -21.1696  -47.8570 C.2       9 UNK         0.5000 
     26 O          -0.1276  -21.8781  -48.7086 O.2       9 UNK        -0.5000 
     27 CA          0.9805  -19.8080  -48.2859 C.3       9 UNK         0.1400 
     28 CB         -0.1642  -18.8233  -48.5674 C.3       9 UNK        -0.1800 
     29 N           1.8881  -19.2410  -47.2822 N.am      9 UNK        -0.5000 
     30 C           3.1875  -19.5600  -47.1984 C.2       8 UNK         0.5000 
     31 O           3.7699  -20.2640  -48.0245 O.2       8 UNK        -0.5000 
     32 CA          3.9594  -19.0603  -45.9615 C.3       8 UNK         0.1400 
     33 CB          4.1509  -17.5375  -45.9608 C.3       8 UNK        -0.1800 
     34 N           3.3449  -19.4865  -44.7023 N.am      8 UNK        -0.5000 
     35 C           3.2746  -20.7615  -44.2911 C.2       7 UNK         0.5000 
     36 O           3.7180  -21.7094  -44.9392 O.2       7 UNK        -0.5000 
     37 CA          2.6180  -21.0490  -42.9261 C.3       7 UNK         0.1400 
     38 CB          3.6865  -21.4207  -41.8858 C.3       7 UNK        -0.1800 
     39 N           1.8021  -19.9614  -42.3847 N.am      7 UNK        -0.5000 
     40 C           0.6457  -19.5249  -42.8968 C.2       6 UNK         0.5000 
     41 O           0.1750  -19.9381  -43.9582 O.2       6 UNK        -0.5000 
     42 CA         -0.1385  -18.4760  -42.0807 C.3       6 UNK         0.1400 
     43 CB          0.5183  -18.0820  -40.7375 C.3       6 UNK        -0.1800 
     44 N          -0.4453  -17.2857  -42.8734 N.am      6 UNK        -0.5000 
     45 C           0.4293  -16.4505  -43.4485 C.2       5 UNK         0.5000 
     46 O           1.6559  -16.5592  -43.3584 O.2       5 UNK        -0.5000 
     47 CA         -0.1978  -15.2662  -44.2121 C.3       5 UNK         0.1400 
     48 CB         -0.5613  -14.1421  -43.2316 C.3       5 UNK        -0.1800 
     49 N           0.6669  -14.7352  -45.2679 N.am      5 UNK        -0.5000 
     50 C           1.0205  -15.4405  -46.3525 C.2       4 UNK         0.5000 
     51 O           0.6795  -16.6081  -46.5339 O.2       4 UNK        -0.5000 
     52 CA          1.9176  -14.7749  -47.4086 C.3       4 UNK         0.1400 
     53 CB          1.1217  -14.4617  -48.6848 C.3       4 UNK        -0.1800 
     54 N           2.5489  -13.5459  -46.9358 N.am      4 UNK        -0.5000 
     55 C           3.8430  -13.2375  -47.0825 C.2       3 UNK         0.5000 
     56 O           4.6896  -14.0073  -47.5409 O.2       3 UNK        -0.5000 
     57 CA          4.2283  -11.7991  -46.6789 C.3       3 UNK         0.1400 
     58 CB          5.6559  -11.3958  -47.1042 C.3       3 UNK        -0.1800 
     59 N           3.2297  -10.8330  -47.1530 N.am      3 UNK        -0.5000 
     60 C           2.8945  -10.5502  -48.4218 C.2       2 UNK         0.5000 
     61 O           3.5180  -10.9656  -49.3997 O.2       2 UNK        -0.5000 
     62 CA          1.6267   -9.6899  -48.6379 C.3       2 UNK         0.1400 
     63 CB          0.9190  -10.0315  -49.9620 C.3       2 UNK        -0.1800 
     64 N           0.6538   -9.8386  -47.5528 N.am      2 UNK        -0.5000 
     65 C           0.6453   -9.1559  -46.4034 C.2       1 UNK         0.5000 
     66 O           1.4625   -8.2726  -46.1378 O.2       1 UNK        -0.5000 
     67 C          -4.2399  -21.7476  -44.1132 C.2       11 UNK         0.5000 
     68 O          -5.4402  -21.8916  -44.3436 O.2       11 UNK        -0.5000 
     69 N          -3.5781  -22.4328  -43.1687 N.am      12 UNK        -0.5000 
     70 CA         -4.1541  -23.4818  -42.3215 C.3       12 UNK         0.1400 
     71 CB         -3.1258  -23.8698  -41.2481 C.3       12 UNK        -0.1800 
     72 C          -4.6120  -24.7307  -43.1057 C.2       12 UNK         0.5000 
     73 O          -5.4855  -25.4557  -42.6296 O.2       12 UNK        -0.5000 
     74 N          -4.0377  -24.9405  -44.2977 N.am      13 UNK        -0.5000 
     75 CA         -4.4057  -25.9806  -45.2566 C.3       13 UNK         0.1400 
     76 CB         -3.1197  -26.6756  -45.7405 C.3       13 UNK        -0.1800 
     77 C          -5.2115  -25.3914  -46.4335 C.2       13 UNK         0.5000 
     78 O          -5.2393  -25.9943  -47.5064 O.2       13 UNK        -0.5000 
     79 N          -5.8264  -24.2139  -46.2349 N.am      14 UNK        -0.5000 
     80 CA         -6.5989  -23.4396  -47.2133 C.3       14 UNK         0.1400 
     81 CB         -7.8845  -24.1915  -47.6188 C.3       14 UNK        -0.1800 
     82 C          -5.7461  -23.0037  -48.4218 C.2       14 UNK         0.5000 
     83 O          -6.1821  -23.1326  -49.5652 O.2       14 UNK        -0.5000 
     84 N          -4.5231  -22.5335  -48.1376 N.am      15 UNK        -0.5000 
     85 CA         -3.4710  -22.1701  -49.0942 C.3       15 UNK         0.1400 
     86 CB         -3.8820  -20.9563  -49.9531 C.3       15 UNK        -0.1800 
     87 C          -3.0025  -23.3963  -49.9065 C.2       15 UNK         0.5000 
     88 O          -2.8747  -23.3299  -51.1302 O.2       15 UNK        -0.5000 
     89 N          -2.8235  -24.5181  -49.1892 N.am      16 UNK        -0.5000 
     90 CA         -2.5431  -25.8672  -49.6931 C.3       16 UNK         0.1400 
     91 CB         -1.1100  -25.9455  -50.2559 C.3       16 UNK        -0.1800 
     92 C          -3.6100  -26.3335  -50.7060 C.2       16 UNK         0.5000 
     93 O          -3.2788  -26.6783  -51.8401 O.2       16 UNK        -0.5000 
     94 N          -4.8840  -26.2719  -50.2911 N.am      17 UNK        -0.5000 
     95 CA         -6.0876  -26.5051  -51.1010 C.3       17 UNK         0.1400 
     96 CB         -6.2253  -28.0018  -51.4476 C.3       17 UNK        -0.1800 
     97 C          -6.1491  -25.5859  -52.3427 C.2       17 UNK         0.5000 
     98 O          -6.4747  -26.0363  -53.4424 O.2       17 UNK        -0.5000 
     99 N          -5.7907  -24.3133  -52.1279 N.am      18 UNK        -0.5000 
    100 CA        -5.6507  -23.2188  -53.0900 C.3       18 UNK         0.1400 
    101 CB        -7.0148  -22.8687  -53.7185 C.3       18 UNK        -0.1800 
    102 C         -4.5481  -23.4126  -54.1545 C.2       18 UNK         0.5000 
    103 O         -4.4985  -22.6224  -55.0992 O.2       18 UNK        -0.5000 
    104 N         -3.6784  -24.4218  -54.0045 N.am      19 UNK        -0.5000 
    105 CA        -2.6230  -24.7358  -54.9680 C.3       19 UNK         0.1400 
    106 CB        -2.2950  -26.2349  -54.8971 C.3       19 UNK        -0.1800 
    107 C         -1.3431  -23.9035  -54.7716 C.2       19 UNK         0.5000 
    108 O         -0.5929  -23.7425  -55.7359 O.2       19 UNK        -0.5000 
    109 N         -1.0930  -23.4083  -53.5523 N.am      20 UNK        -0.5000 
    110 CA         0.0930  -22.6225  -53.2154 C.3       20 UNK         0.1400 
    111 CB         0.6712  -23.1250  -51.8848 C.3       20 UNK        -0.1800 
    112 C         -0.2788  -21.1394  -53.1069 C.2       20 UNK         0.5000 
    113 O         -1.3283  -20.8185  -52.5476 O.2       20 UNK        -0.5000 
    114 N          0.6004  -20.2655  -53.6190 N.am      21 UNK        -0.5000 
    115 CA         0.5168  -18.8000  -53.5989 C.3       21 UNK         0.1400 
    116 CB         0.8160  -18.2725  -52.1782 C.3       21 UNK        -0.1800 
    117 C         -0.8108  -18.2695  -54.1830 C.2       21 UNK         0.5000 
    118 O         -0.9234  -18.1267  -55.4014 O.2       21 UNK        -0.5000 
    119 N         -1.7837  -18.0070  -53.3037 N.am      22 UNK        -0.5000 
    120 CA        -3.1617  -17.6165  -53.6360 C.3       22 UNK         0.1400 
    121 C         -4.0459  -18.7909  -54.1505 C.2       22 UNK         0.5000 
    122 N         -3.6398  -20.0449  -54.0002 N.am      22 UNK        -0.7600 
    123 O         -5.1069  -18.5544  -54.7214 O.2       22 UNK        -0.5000 
    124 C124       -3.8362  -16.8782  -52.4501 C.3       23 UNK        -0.0398 
    125 S125       -3.0339  -15.2741  -52.1088 S.3       23 UNK        -0.2404 
    126 C126       -1.8644  -15.6963  -50.7794 C.3       23 UNK        -0.0205 
    127 H127        2.2997  -10.4624  -42.3017 H         1 UNK         0.0600 
    128 H128        2.1843  -12.2077  -42.5367 H         1 UNK         0.0600 
    129 H129        0.8183  -11.3222  -41.8513 H         1 UNK         0.0600 
    130 H130       -0.0484   -9.5167  -43.2873 H         1 UNK         0.3000 
    131 H131       -0.8393   -8.5696  -45.0514 H         1 UNK         0.0600 
    132 H132       -2.3832  -10.4187  -45.0673 H         1 UNK         0.0800 
    133 H133       -2.1338   -9.8112  -46.6722 H         1 UNK         0.0800 
    134 H134       -3.6843  -12.4683  -46.1772 H         1 UNK         0.0800 
    135 H135       -3.3255  -11.8401  -47.7710 H         1 UNK         0.0800 
    136 H136       -2.1235  -13.3459  -49.4557 H         1 UNK         0.1150 
    137 H137       -2.8956  -17.5428  -49.0335 H         1 UNK         0.1150 
    138 H138       -3.7946  -14.8601  -45.8118 H         1 UNK         0.1150 
    139 H139       -4.7451  -17.1611  -45.8762 H         1 UNK         0.0800 
    140 H140       -4.2931  -18.2842  -47.1403 H         1 UNK         0.0800 
    141 H141       -4.5200  -19.0303  -44.3277 H         1 UNK         0.0800 
    142 H142       -3.0575  -19.3199  -43.4237 H         1 UNK         0.0800 
    143 H143       -3.8774  -20.7789  -45.9779 H         1 UNK         0.0600 
    144 H144       -1.2967  -20.6158  -44.8734 H         1 UNK         0.3000 
    145 H145        0.2629  -22.6219  -44.8541 H         1 UNK         0.0600 
    146 H146        1.3274  -24.0857  -46.6008 H         1 UNK         0.0600 
    147 H147       -0.0962  -24.8092  -45.8669 H         1 UNK         0.0600 
    148 H148       -0.2012  -24.1298  -47.4794 H         1 UNK         0.0600 
    149 H149        0.9162  -20.8079  -45.9469 H         1 UNK         0.3000 
    150 H150        1.5207  -19.9622  -49.2224 H         1 UNK         0.0600 
    151 H151       -0.8598  -19.2269  -49.3044 H         1 UNK         0.0600 
    152 H152        0.2132  -17.8780  -48.9568 H         1 UNK         0.0600 
    153 H153       -0.7368  -18.6094  -47.6659 H         1 UNK         0.0600 
    154 H154        1.4803  -18.5877  -46.6215 H         1 UNK         0.3000 
    155 H155        4.9550  -19.5071  -46.0099 H         1 UNK         0.0600 
    156 H156        4.4722  -17.1744  -46.9380 H         1 UNK         0.0600 
    157 H157        4.9117  -17.2413  -45.2386 H         1 UNK         0.0600 
    158 H158        3.2328  -17.0198  -45.6944 H         1 UNK         0.0600 
    159 H159        2.9409  -18.7650  -44.1202 H         1 UNK         0.3000 
    160 H160        1.9660  -21.9140  -43.0634 H         1 UNK         0.0600 
    161 H161        4.3593  -20.5857  -41.6858 H         1 UNK         0.0600 
    162 H162        4.2958  -22.2577  -42.2296 H         1 UNK         0.0600 
    163 H163        3.2318  -21.7206  -40.9415 H         1 UNK         0.0600 
    164 H164        2.1256  -19.5484  -41.5220 H         1 UNK         0.3000 
    165 H165       -1.0970  -18.9409  -41.8474 H         1 UNK         0.0600 
    166 H166       -0.1055  -17.3702  -40.1965 H         1 UNK         0.0600 
    167 H167        0.6434  -18.9495  -40.0883 H         1 UNK         0.0600 
    168 H168        1.4970  -17.6207  -40.8735 H         1 UNK         0.0600 
    169 H169       -1.4275  -17.1304  -43.0497 H         1 UNK         0.3000 
    170 H170       -1.1164  -15.6100  -44.6916 H         1 UNK         0.0600 
    171 H171       -1.2816  -14.4879  -42.4894 H         1 UNK         0.0600 
    172 H172        0.3165  -13.7893  -42.6915 H         1 UNK         0.0600 
    173 H173       -1.0123  -13.2934  -43.7445 H         1 UNK         0.0600 
    174 H174        0.9940  -13.7847  -45.1521 H         1 UNK         0.3000 
    175 H175        2.6802  -15.5125  -47.6643 H         1 UNK         0.0600 
    176 H176        1.7725  -14.0841  -49.4735 H         1 UNK         0.0600 
    177 H177        0.6318  -15.3577  -49.0664 H         1 UNK         0.0600 
    178 H178        0.3504  -13.7139  -48.5007 H         1 UNK         0.0600 
    179 H179        1.9467  -12.8568  -46.4967 H         1 UNK         0.3000 
    180 H180        4.1916  -11.7679  -45.5891 H         1 UNK         0.0600 
    181 H181        5.8007  -11.4756  -48.1817 H         1 UNK         0.0600 
    182 H182        6.3974  -12.0391  -46.6293 H         1 UNK         0.0600 
    183 H183        5.8797  -10.3706  -46.8099 H         1 UNK         0.0600 
    184 H184        2.6242  -10.4673  -46.4299 H         1 UNK         0.3000 
    185 H185        1.9514   -8.6488  -48.6895 H         1 UNK         0.0600 
    186 H186        1.5720   -9.8530  -50.8172 H         1 UNK         0.0600 
    187 H187        0.6121  -11.0779  -49.9935 H         1 UNK         0.0600 
    188 H188        0.0300   -9.4169  -50.1042 H         1 UNK         0.0600 
    189 H189       -0.0110  -10.5955  -47.6503 H         1 UNK         0.3000 
    190 H190       -2.5907  -22.2565  -43.0560 H         1 UNK         0.3000 
    191 H191       -5.0330  -23.0674  -41.8233 H         1 UNK         0.0600 
    192 H192       -2.2146  -24.2737  -41.6912 H         1 UNK         0.0600 
    193 H193       -2.8506  -23.0109  -40.6357 H         1 UNK         0.0600 
    194 H194       -3.5289  -24.6293  -40.5769 H         1 UNK         0.0600 
    195 H195       -3.3537  -24.2728  -44.6357 H         1 UNK         0.3000 
    196 H196       -5.0387  -26.7320  -44.7810 H         1 UNK         0.0600 
    197 H197       -2.5542  -27.0820  -44.9020 H         1 UNK         0.0600 
    198 H198       -2.4675  -25.9886  -46.2803 H         1 UNK         0.0600 
    199 H199       -3.3475  -27.5076  -46.4079 H         1 UNK         0.0600 
    200 H200       -5.7256  -23.7721  -45.3289 H         1 UNK         0.3000 
    201 H201       -6.9021  -22.5210  -46.7089 H         1 UNK         0.0600 
    202 H202       -8.5193  -23.5662  -48.2477 H         1 UNK         0.0600 
    203 H203       -8.4704  -24.4699  -46.7431 H         1 UNK         0.0600 
    204 H204       -7.6668  -25.1007  -48.1795 H         1 UNK         0.0600 
    205 H205       -4.2188  -22.5751  -47.1739 H         1 UNK         0.3000 
    206 H206       -2.6216  -21.8532  -48.4942 H         1 UNK         0.0600 
    207 H207       -4.1618  -20.1096  -49.3266 H         1 UNK         0.0600 
    208 H208       -4.7221  -21.1797  -50.6084 H         1 UNK         0.0600 
    209 H209       -3.0542  -20.6307  -50.5823 H         1 UNK         0.0600 
    210 H210       -2.9589  -24.4460  -48.1899 H         1 UNK         0.3000 
    211 H211       -2.6040  -26.5411  -48.8379 H         1 UNK         0.0600 
    212 H212       -0.3788  -25.5772  -49.5367 H         1 UNK         0.0600 
    213 H213       -0.8433  -26.9749  -50.4969 H         1 UNK         0.0600 
    214 H214       -1.0064  -25.3616  -51.1700 H         1 UNK         0.0600 
    215 H215       -5.0528  -26.0121  -49.3204 H         1 UNK         0.3000 
    216 H216       -6.9366  -26.2296  -50.4737 H         1 UNK         0.0600 
    217 H217       -7.1739  -28.2012  -51.9472 H         1 UNK         0.0600 
    218 H218       -5.4286  -28.3391  -52.1113 H         1 UNK         0.0600 
    219 H219       -6.1966  -28.6177  -50.5488 H         1 UNK         0.0600 
    220 H220       -5.5997  -24.0427  -51.1669 H         1 UNK         0.3000 
    221 H221       -5.3351  -22.3568  -52.5031 H         1 UNK         0.0600 
    222 H222       -7.3695  -23.6577  -54.3820 H         1 UNK         0.0600 
    223 H223       -7.7719  -22.7080  -52.9509 H         1 UNK         0.0600 
    224 H224       -6.9531  -21.9517  -54.3058 H         1 UNK         0.0600 
    225 H225       -3.7418  -25.0157  -53.1856 H         1 UNK         0.3000 
    226 H226       -2.9969  -24.5317  -55.9737 H         1 UNK         0.0600 
    227 H227       -3.1953  -26.8443  -54.9797 H         1 UNK         0.0600 
    228 H228       -1.6285  -26.5243  -55.7103 H         1 UNK         0.0600 
    229 H229       -1.7959  -26.4941  -53.9631 H         1 UNK         0.0600 
    230 H230       -1.7925  -23.4907  -52.8184 H         1 UNK         0.3000 
    231 H231        0.8645  -22.7391  -53.9792 H         1 UNK         0.0600 
    232 H232        1.5332  -22.5305  -51.5796 H         1 UNK         0.0600 
    233 H233        1.0011  -24.1606  -51.9646 H         1 UNK         0.0600 
    234 H234       -0.0650  -23.0675  -51.0828 H         1 UNK         0.0600 
    235 H235        1.4166  -20.6360  -54.0852 H         1 UNK         0.3000 
    236 H236        1.3077  -18.4335  -54.2552 H         1 UNK         0.0600 
    237 H237        1.8255  -18.5421  -51.8679 H         1 UNK         0.0600 
    238 H238        0.7469  -17.1847  -52.1380 H         1 UNK         0.0600 
    239 H239        0.1290  -18.6791  -51.4374 H         1 UNK         0.0600 
    240 H240       -1.6127  -18.2422  -52.3386 H         1 UNK         0.3000 
    241 H241       -3.1074  -16.9133  -54.4695 H         1 UNK         0.0600 
    242 H242       -4.1703  -20.8024  -54.4126 H         1 UNK         0.3800 
    243 H243       -2.7817  -20.2557  -53.4942 H         1 UNK         0.3800 
    244 H244       -4.8830  -16.6674  -52.6761 H         1 UNK         0.0800 
    245 H245       -3.8398  -17.4977  -51.5518 H         1 UNK         0.0800 
    246 H246       -1.5203  -16.7249  -50.8792 H         1 UNK         0.0800 
    247 H247       -0.9773  -15.0726  -50.8966 H         1 UNK         0.0800 
@<TRIPOS>BOND
     1    1    2 1    
     2    1  127 1    
     3    1  128 1    
     4    1  129 1    
     5    2    3 2    
     6    2    4 am   BACKBONE|DICT|INTERRES
     7    4    5 1    
     8    4  130 1    
     9    5    6 1    
    10    5   65 1    
    11    5  131 1    
    12    6    7 1    
    13    6  132 1    
    14    6  133 1    
    15    7    8 1    
    16    8    9 1    
    17    8  134 1    
    18    8  135 1    
    19    9   10 ar   
    20    9   14 ar   
    21   10   11 ar   
    22   10  136 1    
    23   11   12 ar   
    24   11  126 1    
    25   12   13 ar   
    26   12  137 1    
    27   13   14 ar   
    28   13   15 1    
    29   14  138 1    
    30   15   16 1    
    31   15  139 1    
    32   15  140 1    
    33   16   17 1    
    34   17   18 1    
    35   17  141 1    
    36   17  142 1    
    37   18   19 1    
    38   18   67 1    
    39   18  143 1    
    40   19   20 am   BACKBONE|DICT|INTERRES
    41   19  144 1    
    42   20   21 2    
    43   20   22 1    
    44   22   23 1    
    45   22   24 1    
    46   22  145 1    
    47   23  146 1    
    48   23  147 1    
    49   23  148 1    
    50   24   25 am   BACKBONE|DICT|INTERRES
    51   24  149 1    
    52   25   26 2    
    53   25   27 1    
    54   27   28 1    
    55   27   29 1    
    56   27  150 1    
    57   28  151 1    
    58   28  152 1    
    59   28  153 1    
    60   29   30 am   BACKBONE|DICT|INTERRES
    61   29  154 1    
    62   30   31 2    
    63   30   32 1    
    64   32   33 1    
    65   32   34 1    
    66   32  155 1    
    67   33  156 1    
    68   33  157 1    
    69   33  158 1    
    70   34   35 am   BACKBONE|DICT|INTERRES
    71   34  159 1    
    72   35   36 2    
    73   35   37 1    
    74   37   38 1    
    75   37   39 1    
    76   37  160 1    
    77   38  161 1    
    78   38  162 1    
    79   38  163 1    
    80   39   40 am   BACKBONE|DICT|INTERRES
    81   39  164 1    
    82   40   41 2    
    83   40   42 1    
    84   42   43 1    
    85   42   44 1    
    86   42  165 1    
    87   43  166 1    
    88   43  167 1    
    89   43  168 1    
    90   44   45 am   BACKBONE|DICT|INTERRES
    91   44  169 1    
    92   45   46 2    
    93   45   47 1    
    94   47   48 1    
    95   47   49 1    
    96   47  170 1    
    97   48  171 1    
    98   48  172 1    
    99   48  173 1    
   100   49   50 am   BACKBONE|DICT|INTERRES
   101   49  174 1    
   102   50   51 2    
   103   50   52 1    
   104   52   53 1    
   105   52   54 1    
   106   52  175 1    
   107   53  176 1    
   108   53  177 1    
   109   53  178 1    
   110   54   55 am   BACKBONE|DICT|INTERRES
   111   54  179 1    
   112   55   56 2    
   113   55   57 1    
   114   57   58 1    
   115   57   59 1    
   116   57  180 1    
   117   58  181 1    
   118   58  182 1    
   119   58  183 1    
   120   59   60 am   BACKBONE|DICT|INTERRES
   121   59  184 1    
   122   60   61 2    
   123   60   62 1    
   124   62   63 1    
   125   62   64 1    
   126   62  185 1    
   127   63  186 1    
   128   63  187 1    
   129   63  188 1    
   130   64   65 am   BACKBONE|DICT|INTERRES
   131   64  189 1    
   132   65   66 2    
   133   67   68 2    
   134   67   69 am   BACKBONE|DICT|INTERRES
   135   69   70 1    
   136   69  190 1    
   137   70   71 1    
   138   70   72 1    
   139   70  191 1    
   140   71  192 1    
   141   71  193 1    
   142   71  194 1    
   143   72   73 2    
   144   72   74 am   BACKBONE|DICT|INTERRES
   145   74   75 1    
   146   74  195 1    
   147   75   76 1    
   148   75   77 1    
   149   75  196 1    
   150   76  197 1    
   151   76  198 1    
   152   76  199 1    
   153   77   78 2    
   154   77   79 am   BACKBONE|DICT|INTERRES
   155   79   80 1    
   156   79  200 1    
   157   80   81 1    
   158   80   82 1    
   159   80  201 1    
   160   81  202 1    
   161   81  203 1    
   162   81  204 1    
   163   82   83 2    
   164   82   84 am   BACKBONE|DICT|INTERRES
   165   84   85 1    
   166   84  205 1    
   167   85   86 1    
   168   85   87 1    
   169   85  206 1    
   170   86  207 1    
   171   86  208 1    
   172   86  209 1    
   173   87   88 2    
   174   87   89 am   BACKBONE|DICT|INTERRES
   175   89   90 1    
   176   89  210 1    
   177   90   91 1    
   178   90   92 1    
   179   90  211 1    
   180   91  212 1    
   181   91  213 1    
   182   91  214 1    
   183   92   93 2    
   184   92   94 am   BACKBONE|DICT|INTERRES
   185   94   95 1    
   186   94  215 1    
   187   95   96 1    
   188   95   97 1    
   189   95  216 1    
   190   96  217 1    
   191   96  218 1    
   192   96  219 1    
   193   97   98 2    
   194   97   99 am   BACKBONE|DICT|INTERRES
   195   99  100 1    
   196   99  220 1    
   197  100  101 1    
   198  100  102 1    
   199  100  221 1    
   200  101  222 1    
   201  101  223 1    
   202  101  224 1    
   203  102  103 2    
   204  102  104 am   BACKBONE|DICT|INTERRES
   205  104  105 1    
   206  104  225 1    
   207  105  106 1    
   208  105  107 1    
   209  105  226 1    
   210  106  227 1    
   211  106  228 1    
   212  106  229 1    
   213  107  108 2    
   214  107  109 am   BACKBONE|DICT|INTERRES
   215  109  110 1    
   216  109  230 1    
   217  110  111 1    
   218  110  112 1    
   219  110  231 1    
   220  111  232 1    
   221  111  233 1    
   222  111  234 1    
   223  112  113 2    
   224  112  114 am   BACKBONE|DICT|INTERRES
   225  114  115 1    
   226  114  235 1    
   227  115  116 1    
   228  115  117 1    
   229  115  236 1    
   230  116  237 1    
   231  116  238 1    
   232  116  239 1    
   233  117  118 2    
   234  117  119 am   BACKBONE|DICT|INTERRES
   235  119  120 1    
   236  119  240 1    
   237  120  121 1    
   238  120  124 1    
   239  120  241 1    
   240  121  122 am   BACKBONE|DICT|INTERRES
   241  121  123 2    
   242  122  242 1    
   243  122  243 1    
   244  124  125 1    
   245  124  244 1    
   246  124  245 1    
   247  125  126 1    
   248  126  246 1    
   249  126  247 1    
@<TRIPOS>SUBSTRUCTURE
     1 UNK         1 GROUP             0       ****    0 ROOT    
