@<TRIPOS>MOLECULE
3R540
247   249    1
SMALL
USER_CHARGES


@<TRIPOS>ATOM
      1 CA         -1.6330  -11.7700  -51.0632 C.3       0 UNK        -0.1800 
      2 C          -0.8139  -12.4578  -49.9819 C.2       0 UNK         0.5000 
      3 O          -0.8957  -12.0719  -48.8157 O.2       0 UNK        -0.5000 
      4 N          -0.0348  -13.4831  -50.3601 N.am      1 UNK        -0.5000 
      5 CA          0.8772  -14.2331  -49.4814 C.3       1 UNK         0.1400 
      6 C6          1.6709  -15.3111  -50.2662 C.3       23 UNK        -0.0398 
      7 S7          3.3692  -15.5429  -49.6344 S.3       23 UNK        -0.2404 
      8 C8          3.1670  -16.9208  -48.4550 C.3       23 UNK        -0.0205 
      9 C9          3.4320  -18.3065  -49.0313 C.ar      23 UNK        -0.0193 
     10 C10         2.9316  -18.6904  -50.2781 C.ar      23 UNK        -0.1150 
     11 C11         3.1129  -19.9905  -50.7556 C.ar      23 UNK        -0.0193 
     12 C12         3.8319  -20.9090  -49.9840 C.ar      23 UNK        -0.1150 
     13 C13         4.3584  -20.5341  -48.7439 C.ar      23 UNK        -0.0193 
     14 C14         4.1483  -19.2356  -48.2726 C.ar      23 UNK        -0.1150 
     15 C15         5.1716  -21.5198  -47.9168 C.3       23 UNK        -0.0205 
     16 S16         4.1548  -22.8428  -47.1907 S.3       23 UNK        -0.2404 
     17 C17         3.0609  -21.9220  -46.0536 C.3       23 UNK        -0.0398 
     18 CA          1.6933  -22.6216  -45.8772 C.3       11 UNK         0.1400 
     19 N           0.9903  -22.1600  -44.6797 N.am      11 UNK        -0.5000 
     20 C          -0.0549  -22.7923  -44.1286 C.2       10 UNK         0.5000 
     21 O          -0.4845  -23.8759  -44.5250 O.2       10 UNK        -0.5000 
     22 CA         -0.7606  -22.0824  -42.9581 C.3       10 UNK         0.1400 
     23 CB         -0.0542  -22.3878  -41.6290 C.3       10 UNK        -0.1800 
     24 N          -0.8568  -20.6331  -43.1414 N.am      10 UNK        -0.5000 
     25 C          -1.5409  -20.0364  -44.1283 C.2       9 UNK         0.5000 
     26 O          -2.1863  -20.6461  -44.9793 O.2       9 UNK        -0.5000 
     27 CA         -1.4550  -18.5033  -44.2033 C.3       9 UNK         0.1400 
     28 CB         -2.3545  -17.8632  -43.1341 C.3       9 UNK        -0.1800 
     29 N          -0.0842  -18.0139  -44.0566 N.am      9 UNK        -0.5000 
     30 C           0.9370  -18.3075  -44.8752 C.2       8 UNK         0.5000 
     31 O           0.8262  -18.9829  -45.8968 O.2       8 UNK        -0.5000 
     32 CA          2.3329  -17.8317  -44.4357 C.3       8 UNK         0.1400 
     33 CB          2.5599  -16.3528  -44.7731 C.3       8 UNK        -0.1800 
     34 N           2.5480  -18.0358  -43.0052 N.am      8 UNK        -0.5000 
     35 C           2.6541  -19.2332  -42.4140 C.2       7 UNK         0.5000 
     36 O           2.6298  -20.3023  -43.0237 O.2       7 UNK        -0.5000 
     37 CA          2.7642  -19.2269  -40.8783 C.3       7 UNK         0.1400 
     38 CB          4.2242  -19.0376  -40.4413 C.3       7 UNK        -0.1800 
     39 N           1.9349  -18.1847  -40.2676 N.am      7 UNK        -0.5000 
     40 C           0.5942  -18.1991  -40.2607 C.2       6 UNK         0.5000 
     41 O          -0.0780  -19.1184  -40.7271 O.2       6 UNK        -0.5000 
     42 CA         -0.1089  -16.9554  -39.6822 C.3       6 UNK         0.1400 
     43 CB         -0.2218  -17.0583  -38.1540 C.3       6 UNK        -0.1800 
     44 N           0.5614  -15.7003  -40.0408 N.am      6 UNK        -0.5000 
     45 C           0.6677  -15.2377  -41.2931 C.2       5 UNK         0.5000 
     46 O           0.1948  -15.8169  -42.2731 O.2       5 UNK        -0.5000 
     47 CA          1.4822  -13.9530  -41.4950 C.3       5 UNK         0.1400 
     48 CB          2.9868  -14.2511  -41.3223 C.3       5 UNK        -0.1800 
     49 N           1.2122  -13.4387  -42.8365 N.am      5 UNK        -0.5000 
     50 C           1.6122  -12.2629  -43.3331 C.2       4 UNK         0.5000 
     51 O           2.2372  -11.4230  -42.6839 O.2       4 UNK        -0.5000 
     52 CA          1.2621  -11.9678  -44.8046 C.3       4 UNK         0.1400 
     53 CB          2.3831  -12.4601  -45.7329 C.3       4 UNK        -0.1800 
     54 N          -0.0174  -12.5345  -45.2426 N.am      4 UNK        -0.5000 
     55 C          -1.2142  -12.0701  -44.8486 C.2       3 UNK         0.5000 
     56 O          -1.3440  -11.1855  -44.0008 O.2       3 UNK        -0.5000 
     57 CA         -2.4809  -12.6467  -45.5140 C.3       3 UNK         0.1400 
     58 CB         -3.2865  -11.5336  -46.2060 C.3       3 UNK        -0.1800 
     59 N          -2.1746  -13.6744  -46.5085 N.am      3 UNK        -0.5000 
     60 C          -2.3700  -14.9887  -46.3364 C.2       2 UNK         0.5000 
     61 O          -2.8803  -15.4697  -45.3269 O.2       2 UNK        -0.5000 
     62 CA         -1.9422  -15.9389  -47.4765 C.3       2 UNK         0.1400 
     63 CB         -3.1773  -16.5162  -48.1848 C.3       2 UNK        -0.1800 
     64 N          -1.0734  -15.3322  -48.4853 N.am      2 UNK        -0.5000 
     65 C           0.1595  -14.8583  -48.2657 C.2       1 UNK         0.5000 
     66 O           0.6956  -14.8502  -47.1595 O.2       1 UNK        -0.5000 
     67 C           0.8035  -22.5059  -47.1341 C.2       11 UNK         0.5000 
     68 O           0.7178  -23.4650  -47.9009 O.2       11 UNK        -0.5000 
     69 N           0.1182  -21.3644  -47.2996 N.am      12 UNK        -0.5000 
     70 CA         -0.8110  -21.1119  -48.4023 C.3       12 UNK         0.1400 
     71 CB         -1.2812  -19.6507  -48.3660 C.3       12 UNK        -0.1800 
     72 C          -2.0125  -22.0741  -48.4141 C.2       12 UNK         0.5000 
     73 O          -2.3981  -22.5440  -49.4832 O.2       12 UNK        -0.5000 
     74 N          -2.5463  -22.3974  -47.2265 N.am      13 UNK        -0.5000 
     75 CA         -3.6597  -23.3278  -47.0117 C.3       13 UNK         0.1400 
     76 CB         -3.9897  -23.3935  -45.5133 C.3       13 UNK        -0.1800 
     77 C          -3.4336  -24.7449  -47.5751 C.2       13 UNK         0.5000 
     78 O          -4.4067  -25.4128  -47.9276 O.2       13 UNK        -0.5000 
     79 N          -2.1665  -25.1665  -47.7019 N.am      14 UNK        -0.5000 
     80 CA         -1.7678  -26.4380  -48.3106 C.3       14 UNK         0.1400 
     81 CB         -0.2728  -26.6790  -48.0546 C.3       14 UNK        -0.1800 
     82 C          -2.0835  -26.5319  -49.8189 C.2       14 UNK         0.5000 
     83 O          -2.1603  -27.6433  -50.3438 O.2       14 UNK        -0.5000 
     84 N          -2.2903  -25.3856  -50.4861 N.am      15 UNK        -0.5000 
     85 CA         -2.7257  -25.3041  -51.8822 C.3       15 UNK         0.1400 
     86 CB         -2.2720  -23.9600  -52.4717 C.3       15 UNK        -0.1800 
     87 C          -4.2465  -25.5174  -52.0591 C.2       15 UNK         0.5000 
     88 O          -4.7118  -25.5584  -53.1994 O.2       15 UNK        -0.5000 
     89 N          -4.9909  -25.6650  -50.9495 N.am      16 UNK        -0.5000 
     90 CA         -6.4132  -26.0093  -50.8620 C.3       16 UNK         0.1400 
     91 CB         -6.6277  -27.4841  -51.2683 C.3       16 UNK        -0.1800 
     92 C          -7.3068  -25.0154  -51.6296 C.2       16 UNK         0.5000 
     93 O          -7.4810  -23.8864  -51.1731 O.2       16 UNK        -0.5000 
     94 N          -7.8354  -25.4254  -52.7902 N.am      17 UNK        -0.5000 
     95 CA         -8.6515  -24.5947  -53.6798 C.3       17 UNK         0.1400 
     96 CB         -9.2113  -25.4748  -54.8075 C.3       17 UNK        -0.1800 
     97 C          -7.8968  -23.3829  -54.2657 C.2       17 UNK         0.5000 
     98 O          -8.5330  -22.3878  -54.6137 O.2       17 UNK        -0.5000 
     99 N          -6.5630  -23.4782  -54.3466 N.am      18 UNK        -0.5000 
    100 CA        -5.6710  -22.4262  -54.8304 C.3       18 UNK         0.1400 
    101 CB        -4.6235  -23.0621  -55.7605 C.3       18 UNK        -0.1800 
    102 C         -5.0119  -21.6351  -53.6817 C.2       18 UNK         0.5000 
    103 O         -4.0723  -20.8828  -53.9395 O.2       18 UNK        -0.5000 
    104 N         -5.4907  -21.7954  -52.4372 N.am      19 UNK        -0.5000 
    105 CA        -4.9477  -21.1229  -51.2506 C.3       19 UNK         0.1400 
    106 CB        -5.5474  -21.7401  -49.9812 C.3       19 UNK        -0.1800 
    107 C         -5.1336  -19.5961  -51.2322 C.2       19 UNK         0.5000 
    108 O         -4.3925  -18.9200  -50.5197 O.2       19 UNK        -0.5000 
    109 N         -6.0909  -19.0757  -52.0135 N.am      20 UNK        -0.5000 
    110 CA        -6.3670  -17.6501  -52.2019 C.3       20 UNK         0.1400 
    111 CB        -7.5916  -17.4987  -53.1195 C.3       20 UNK        -0.1800 
    112 C         -5.1382  -16.9044  -52.7616 C.2       20 UNK         0.5000 
    113 O         -4.8808  -16.9653  -53.9644 O.2       20 UNK        -0.5000 
    114 N         -4.3762  -16.2786  -51.8519 N.am      21 UNK        -0.5000 
    115 CA        -3.0784  -15.6185  -52.0530 C.3       21 UNK         0.1400 
    116 CB        -3.1926  -14.4565  -53.0617 C.3       21 UNK        -0.1800 
    117 C         -1.9149  -16.5776  -52.4004 C.2       21 UNK         0.5000 
    118 O         -0.8186  -16.0979  -52.6896 O.2       21 UNK        -0.5000 
    119 N         -2.1566  -17.8941  -52.3260 N.am      22 UNK        -0.5000 
    120 CA        -1.2848  -18.9889  -52.7774 C.3       22 UNK         0.1400 
    121 C         -1.0488  -18.9476  -54.3162 C.2       22 UNK         0.5000 
    122 N         -1.9497  -19.5223  -55.0992 N.am      22 UNK        -0.7600 
    123 O         -0.0612  -18.4075  -54.8086 O.2       22 UNK        -0.5000 
    124 C124        0.0285  -19.0867  -51.9588 C.3       23 UNK        -0.0398 
    125 S125        0.7570  -20.7623  -52.0070 S.3       23 UNK        -0.2404 
    126 C126        2.5388  -20.3943  -52.1070 C.3       23 UNK        -0.0205 
    127 H127       -1.2503  -11.9914  -52.0593 H         1 UNK         0.0600 
    128 H128       -1.6029  -10.6890  -50.9263 H         1 UNK         0.0600 
    129 H129       -2.6727  -12.0922  -51.0095 H         1 UNK         0.0600 
    130 H130       -0.0209  -13.7531  -51.3342 H         1 UNK         0.3000 
    131 H131        1.5809  -13.4953  -49.0898 H         1 UNK         0.0600 
    132 H132        1.7832  -15.0075  -51.3081 H         1 UNK         0.0800 
    133 H133        1.1322  -16.2591  -50.3035 H         1 UNK         0.0800 
    134 H134        2.1638  -16.9179  -48.0310 H         1 UNK         0.0800 
    135 H135        3.8536  -16.7329  -47.6289 H         1 UNK         0.0800 
    136 H136        2.3929  -17.9789  -50.8801 H         1 UNK         0.1150 
    137 H137        3.9839  -21.9162  -50.3461 H         1 UNK         0.1150 
    138 H138        4.5402  -18.9497  -47.3065 H         1 UNK         0.1150 
    139 H139        5.9330  -21.9729  -48.5532 H         1 UNK         0.0800 
    140 H140        5.7104  -21.0066  -47.1186 H         1 UNK         0.0800 
    141 H141        2.9256  -20.8924  -46.3852 H         1 UNK         0.0800 
    142 H142        3.5759  -21.8630  -45.0939 H         1 UNK         0.0800 
    143 H143        1.8907  -23.6854  -45.7244 H         1 UNK         0.0600 
    144 H144        1.3217  -21.3002  -44.2556 H         1 UNK         0.3000 
    145 H145       -1.7776  -22.4756  -42.8997 H         1 UNK         0.0600 
    146 H146       -0.5906  -21.9488  -40.7876 H         1 UNK         0.0600 
    147 H147        0.9642  -21.9996  -41.6154 H         1 UNK         0.0600 
    148 H148        0.0014  -23.4630  -41.4544 H         1 UNK         0.0600 
    149 H149       -0.3961  -20.0538  -42.4461 H         1 UNK         0.3000 
    150 H150       -1.8159  -18.1929  -45.1846 H         1 UNK         0.0600 
    151 H151       -3.4017  -18.1094  -43.3127 H         1 UNK         0.0600 
    152 H152       -2.2703  -16.7770  -43.1396 H         1 UNK         0.0600 
    153 H153       -2.1052  -18.2055  -42.1306 H         1 UNK         0.0600 
    154 H154        0.0868  -17.3912  -43.2715 H         1 UNK         0.3000 
    155 H155        3.0743  -18.4218  -44.9789 H         1 UNK         0.0600 
    156 H156        2.4819  -16.1823  -45.8428 H         1 UNK         0.0600 
    157 H157        3.5507  -16.0195  -44.4646 H         1 UNK         0.0600 
    158 H158        1.8229  -15.7090  -44.2987 H         1 UNK         0.0600 
    159 H159        2.5395  -17.2131  -42.4233 H         1 UNK         0.3000 
    160 H160        2.4211  -20.1976  -40.5143 H         1 UNK         0.0600 
    161 H161        4.6198  -18.0718  -40.7585 H         1 UNK         0.0600 
    162 H162        4.8626  -19.8111  -40.8704 H         1 UNK         0.0600 
    163 H163        4.3223  -19.1014  -39.3575 H         1 UNK         0.0600 
    164 H164        2.4138  -17.3980  -39.8553 H         1 UNK         0.3000 
    165 H165       -1.1192  -16.9266  -40.0960 H         1 UNK         0.0600 
    166 H166       -0.7936  -16.2255  -37.7442 H         1 UNK         0.0600 
    167 H167       -0.7330  -17.9766  -37.8618 H         1 UNK         0.0600 
    168 H168        0.7582  -17.0614  -37.6752 H         1 UNK         0.0600 
    169 H169        0.9750  -15.1756  -39.2833 H         1 UNK         0.3000 
    170 H170        1.1584  -13.2149  -40.7588 H         1 UNK         0.0600 
    171 H171        3.3469  -14.9510  -42.0769 H         1 UNK         0.0600 
    172 H172        3.5876  -13.3453  -41.3982 H         1 UNK         0.0600 
    173 H173        3.1970  -14.6852  -40.3443 H         1 UNK         0.0600 
    174 H174        0.6619  -14.0636  -43.4129 H         1 UNK         0.3000 
    175 H175        1.1984  -10.8828  -44.9119 H         1 UNK         0.0600 
    176 H176        2.5193  -13.5393  -45.6635 H         1 UNK         0.0600 
    177 H177        2.1709  -12.2153  -46.7739 H         1 UNK         0.0600 
    178 H178        3.3352  -11.9942  -45.4762 H         1 UNK         0.0600 
    179 H179        0.0276  -13.2855  -45.9222 H         1 UNK         0.3000 
    180 H180       -3.0990  -13.0582  -44.7138 H         1 UNK         0.0600 
    181 H181       -4.1947  -11.9295  -46.6607 H         1 UNK         0.0600 
    182 H182       -2.7060  -11.0437  -46.9887 H         1 UNK         0.0600 
    183 H183       -3.5906  -10.7658  -45.4935 H         1 UNK         0.0600 
    184 H184       -1.7439  -13.3435  -47.3652 H         1 UNK         0.3000 
    185 H185       -1.3865  -16.7616  -47.0226 H         1 UNK         0.0600 
    186 H186       -3.7963  -15.7295  -48.6174 H         1 UNK         0.0600 
    187 H187       -2.8937  -17.1990  -48.9850 H         1 UNK         0.0600 
    188 H188       -3.8003  -17.0784  -47.4879 H         1 UNK         0.0600 
    189 H189       -1.4503  -15.2498  -49.4155 H         1 UNK         0.3000 
    190 H190        0.2675  -20.5958  -46.6500 H         1 UNK         0.3000 
    191 H191       -0.2601  -21.2674  -49.3303 H         1 UNK         0.0600 
    192 H192       -0.4387  -18.9619  -48.4323 H         1 UNK         0.0600 
    193 H193       -1.8266  -19.4251  -47.4496 H         1 UNK         0.0600 
    194 H194       -1.9453  -19.4385  -49.2046 H         1 UNK         0.0600 
    195 H195       -2.2026  -21.9138  -46.4005 H         1 UNK         0.3000 
    196 H196       -4.5294  -22.9171  -47.5244 H         1 UNK         0.0600 
    197 H197       -4.2714  -22.4137  -45.1276 H         1 UNK         0.0600 
    198 H198       -3.1420  -23.7532  -44.9305 H         1 UNK         0.0600 
    199 H199       -4.8268  -24.0669  -45.3252 H         1 UNK         0.0600 
    200 H200       -1.4193  -24.5443  -47.4217 H         1 UNK         0.3000 
    201 H201       -2.3279  -27.2311  -47.8111 H         1 UNK         0.0600 
    202 H202       -0.0313  -26.5964  -46.9946 H         1 UNK         0.0600 
    203 H203        0.3476  -25.9666  -48.5987 H         1 UNK         0.0600 
    204 H204        0.0204  -27.6781  -48.3791 H         1 UNK         0.0600 
    205 H205       -2.2193  -24.5022  -49.9896 H         1 UNK         0.3000 
    206 H206       -2.2266  -26.0938  -52.4473 H         1 UNK         0.0600 
    207 H207       -2.8069  -23.1254  -52.0247 H         1 UNK         0.0600 
    208 H208       -1.2060  -23.7954  -52.3135 H         1 UNK         0.0600 
    209 H209       -2.4471  -23.9230  -53.5462 H         1 UNK         0.0600 
    210 H210       -4.5262  -25.5706  -50.0541 H         1 UNK         0.3000 
    211 H211       -6.6880  -25.9149  -49.8104 H         1 UNK         0.0600 
    212 H212       -6.3087  -27.6844  -52.2917 H         1 UNK         0.0600 
    213 H213       -7.6775  -27.7677  -51.1832 H         1 UNK         0.0600 
    214 H214       -6.0630  -28.1495  -50.6150 H         1 UNK         0.0600 
    215 H215       -7.6183  -26.3572  -53.1130 H         1 UNK         0.3000 
    216 H216       -9.4905  -24.2067  -53.0986 H         1 UNK         0.0600 
    217 H217       -9.8493  -24.8951  -55.4760 H         1 UNK         0.0600 
    218 H218       -9.8162  -26.2898  -54.4095 H         1 UNK         0.0600 
    219 H219       -8.4137  -25.9104  -55.4107 H         1 UNK         0.0600 
    220 H220       -6.1096  -24.3224  -54.0086 H         1 UNK         0.3000 
    221 H221       -6.2334  -21.7001  -55.4206 H         1 UNK         0.0600 
    222 H222       -4.0277  -23.8136  -55.2439 H         1 UNK         0.0600 
    223 H223       -5.1014  -23.5473  -56.6116 H         1 UNK         0.0600 
    224 H224       -3.9382  -22.3141  -56.1610 H         1 UNK         0.0600 
    225 H225       -6.2600  -22.4356  -52.2803 H         1 UNK         0.3000 
    226 H226       -3.8713  -21.2936  -51.2342 H         1 UNK         0.0600 
    227 H227       -5.3033  -22.7999  -49.9076 H         1 UNK         0.0600 
    228 H228       -5.1515  -21.2532  -49.0893 H         1 UNK         0.0600 
    229 H229       -6.6325  -21.6360  -49.9558 H         1 UNK         0.0600 
    230 H230       -6.6336  -19.7138  -52.5759 H         1 UNK         0.3000 
    231 H231       -6.6220  -17.2239  -51.2294 H         1 UNK         0.0600 
    232 H232       -7.8218  -16.4466  -53.2918 H         1 UNK         0.0600 
    233 H233       -8.4761  -17.9557  -52.6753 H         1 UNK         0.0600 
    234 H234       -7.4282  -17.9631  -54.0930 H         1 UNK         0.0600 
    235 H235       -4.6631  -16.3622  -50.8861 H         1 UNK         0.3000 
    236 H236       -2.8198  -15.1801  -51.0891 H         1 UNK         0.0600 
    237 H237       -3.4098  -14.8099  -54.0695 H         1 UNK         0.0600 
    238 H238       -3.9782  -13.7583  -52.7730 H         1 UNK         0.0600 
    239 H239       -2.2622  -13.8922  -53.1185 H         1 UNK         0.0600 
    240 H240       -3.0764  -18.1773  -52.0125 H         1 UNK         0.3000 
    241 H241       -1.8581  -19.8936  -52.5677 H         1 UNK         0.0600 
    242 H242       -1.8211  -19.5074  -56.0978 H         1 UNK         0.3800 
    243 H243       -2.7668  -19.9872  -54.7016 H         1 UNK         0.3800 
    244 H244       -0.1605  -18.8463  -50.9131 H         1 UNK         0.0800 
    245 H245        0.7459  -18.3460  -52.3121 H         1 UNK         0.0800 
    246 H246        2.7184  -19.6100  -52.8440 H         1 UNK         0.0800 
    247 H247        3.0540  -21.2808  -52.4798 H         1 UNK         0.0800 
@<TRIPOS>BOND
     1    1    2 1    
     2    1  127 1    
     3    1  128 1    
     4    1  129 1    
     5    2    3 2    
     6    2    4 am   BACKBONE|DICT|INTERRES
     7    4    5 1    
     8    4  130 1    
     9    5    6 1    
    10    5   65 1    
    11    5  131 1    
    12    6    7 1    
    13    6  132 1    
    14    6  133 1    
    15    7    8 1    
    16    8    9 1    
    17    8  134 1    
    18    8  135 1    
    19    9   10 ar   
    20    9   14 ar   
    21   10   11 ar   
    22   10  136 1    
    23   11   12 ar   
    24   11  126 1    
    25   12   13 ar   
    26   12  137 1    
    27   13   14 ar   
    28   13   15 1    
    29   14  138 1    
    30   15   16 1    
    31   15  139 1    
    32   15  140 1    
    33   16   17 1    
    34   17   18 1    
    35   17  141 1    
    36   17  142 1    
    37   18   19 1    
    38   18   67 1    
    39   18  143 1    
    40   19   20 am   BACKBONE|DICT|INTERRES
    41   19  144 1    
    42   20   21 2    
    43   20   22 1    
    44   22   23 1    
    45   22   24 1    
    46   22  145 1    
    47   23  146 1    
    48   23  147 1    
    49   23  148 1    
    50   24   25 am   BACKBONE|DICT|INTERRES
    51   24  149 1    
    52   25   26 2    
    53   25   27 1    
    54   27   28 1    
    55   27   29 1    
    56   27  150 1    
    57   28  151 1    
    58   28  152 1    
    59   28  153 1    
    60   29   30 am   BACKBONE|DICT|INTERRES
    61   29  154 1    
    62   30   31 2    
    63   30   32 1    
    64   32   33 1    
    65   32   34 1    
    66   32  155 1    
    67   33  156 1    
    68   33  157 1    
    69   33  158 1    
    70   34   35 am   BACKBONE|DICT|INTERRES
    71   34  159 1    
    72   35   36 2    
    73   35   37 1    
    74   37   38 1    
    75   37   39 1    
    76   37  160 1    
    77   38  161 1    
    78   38  162 1    
    79   38  163 1    
    80   39   40 am   BACKBONE|DICT|INTERRES
    81   39  164 1    
    82   40   41 2    
    83   40   42 1    
    84   42   43 1    
    85   42   44 1    
    86   42  165 1    
    87   43  166 1    
    88   43  167 1    
    89   43  168 1    
    90   44   45 am   BACKBONE|DICT|INTERRES
    91   44  169 1    
    92   45   46 2    
    93   45   47 1    
    94   47   48 1    
    95   47   49 1    
    96   47  170 1    
    97   48  171 1    
    98   48  172 1    
    99   48  173 1    
   100   49   50 am   BACKBONE|DICT|INTERRES
   101   49  174 1    
   102   50   51 2    
   103   50   52 1    
   104   52   53 1    
   105   52   54 1    
   106   52  175 1    
   107   53  176 1    
   108   53  177 1    
   109   53  178 1    
   110   54   55 am   BACKBONE|DICT|INTERRES
   111   54  179 1    
   112   55   56 2    
   113   55   57 1    
   114   57   58 1    
   115   57   59 1    
   116   57  180 1    
   117   58  181 1    
   118   58  182 1    
   119   58  183 1    
   120   59   60 am   BACKBONE|DICT|INTERRES
   121   59  184 1    
   122   60   61 2    
   123   60   62 1    
   124   62   63 1    
   125   62   64 1    
   126   62  185 1    
   127   63  186 1    
   128   63  187 1    
   129   63  188 1    
   130   64   65 am   BACKBONE|DICT|INTERRES
   131   64  189 1    
   132   65   66 2    
   133   67   68 2    
   134   67   69 am   BACKBONE|DICT|INTERRES
   135   69   70 1    
   136   69  190 1    
   137   70   71 1    
   138   70   72 1    
   139   70  191 1    
   140   71  192 1    
   141   71  193 1    
   142   71  194 1    
   143   72   73 2    
   144   72   74 am   BACKBONE|DICT|INTERRES
   145   74   75 1    
   146   74  195 1    
   147   75   76 1    
   148   75   77 1    
   149   75  196 1    
   150   76  197 1    
   151   76  198 1    
   152   76  199 1    
   153   77   78 2    
   154   77   79 am   BACKBONE|DICT|INTERRES
   155   79   80 1    
   156   79  200 1    
   157   80   81 1    
   158   80   82 1    
   159   80  201 1    
   160   81  202 1    
   161   81  203 1    
   162   81  204 1    
   163   82   83 2    
   164   82   84 am   BACKBONE|DICT|INTERRES
   165   84   85 1    
   166   84  205 1    
   167   85   86 1    
   168   85   87 1    
   169   85  206 1    
   170   86  207 1    
   171   86  208 1    
   172   86  209 1    
   173   87   88 2    
   174   87   89 am   BACKBONE|DICT|INTERRES
   175   89   90 1    
   176   89  210 1    
   177   90   91 1    
   178   90   92 1    
   179   90  211 1    
   180   91  212 1    
   181   91  213 1    
   182   91  214 1    
   183   92   93 2    
   184   92   94 am   BACKBONE|DICT|INTERRES
   185   94   95 1    
   186   94  215 1    
   187   95   96 1    
   188   95   97 1    
   189   95  216 1    
   190   96  217 1    
   191   96  218 1    
   192   96  219 1    
   193   97   98 2    
   194   97   99 am   BACKBONE|DICT|INTERRES
   195   99  100 1    
   196   99  220 1    
   197  100  101 1    
   198  100  102 1    
   199  100  221 1    
   200  101  222 1    
   201  101  223 1    
   202  101  224 1    
   203  102  103 2    
   204  102  104 am   BACKBONE|DICT|INTERRES
   205  104  105 1    
   206  104  225 1    
   207  105  106 1    
   208  105  107 1    
   209  105  226 1    
   210  106  227 1    
   211  106  228 1    
   212  106  229 1    
   213  107  108 2    
   214  107  109 am   BACKBONE|DICT|INTERRES
   215  109  110 1    
   216  109  230 1    
   217  110  111 1    
   218  110  112 1    
   219  110  231 1    
   220  111  232 1    
   221  111  233 1    
   222  111  234 1    
   223  112  113 2    
   224  112  114 am   BACKBONE|DICT|INTERRES
   225  114  115 1    
   226  114  235 1    
   227  115  116 1    
   228  115  117 1    
   229  115  236 1    
   230  116  237 1    
   231  116  238 1    
   232  116  239 1    
   233  117  118 2    
   234  117  119 am   BACKBONE|DICT|INTERRES
   235  119  120 1    
   236  119  240 1    
   237  120  121 1    
   238  120  124 1    
   239  120  241 1    
   240  121  122 am   BACKBONE|DICT|INTERRES
   241  121  123 2    
   242  122  242 1    
   243  122  243 1    
   244  124  125 1    
   245  124  244 1    
   246  124  245 1    
   247  125  126 1    
   248  126  246 1    
   249  126  247 1    
@<TRIPOS>SUBSTRUCTURE
     1 UNK         1 GROUP             0       ****    0 ROOT    
