@<TRIPOS>MOLECULE
3R540
247   249    1
SMALL
USER_CHARGES


@<TRIPOS>ATOM
      1 CA         -1.2889  -13.6088  -50.7538 C.3       0 UNK        -0.1800 
      2 C           0.0418  -13.3907  -50.0507 C.2       0 UNK         0.5000 
      3 O           0.4177  -12.2490  -49.7864 O.2       0 UNK        -0.5000 
      4 N           0.7570  -14.4816  -49.7461 N.am      1 UNK        -0.5000 
      5 CA          2.0808  -14.4629  -49.1100 C.3       1 UNK         0.1400 
      6 C6          2.9044  -15.7355  -49.4576 C.3       23 UNK        -0.0398 
      7 S7          2.4600  -17.2627  -48.5481 S.3       23 UNK        -0.2404 
      8 C8          1.6469  -18.2817  -49.8234 C.3       23 UNK        -0.0205 
      9 C9          0.2527  -17.7944  -50.1987 C.ar      23 UNK        -0.0193 
     10 C10        -0.1478  -17.7890  -51.5391 C.ar      23 UNK        -0.1150 
     11 C11        -1.4388  -17.3860  -51.8935 C.ar      23 UNK        -0.0193 
     12 C12        -2.3262  -16.9735  -50.8970 C.ar      23 UNK        -0.1150 
     13 C13        -1.9382  -16.9661  -49.5558 C.ar      23 UNK        -0.0193 
     14 C14        -0.6520  -17.3868  -49.2124 C.ar      23 UNK        -0.1150 
     15 C15        -2.9013  -16.4775  -48.4870 C.3       23 UNK        -0.0205 
     16 S16        -3.8300  -17.8438  -47.7305 S.3       23 UNK        -0.2404 
     17 C17        -2.6135  -18.5504  -46.5619 C.3       23 UNK        -0.0398 
     18 CA         -2.0827  -19.9400  -46.9928 C.3       11 UNK         0.1400 
     19 N          -0.9060  -20.3581  -46.2243 N.am      11 UNK        -0.5000 
     20 C          -0.2363  -21.5079  -46.3975 C.2       10 UNK         0.5000 
     21 O          -0.4925  -22.3191  -47.2871 O.2       10 UNK        -0.5000 
     22 CA          0.8659  -21.8482  -45.3771 C.3       10 UNK         0.1400 
     23 CB          2.2257  -21.3262  -45.8612 C.3       10 UNK        -0.1800 
     24 N           0.5829  -21.3542  -44.0254 N.am      10 UNK        -0.5000 
     25 C          -0.4675  -21.7323  -43.2792 C.2       9 UNK         0.5000 
     26 O          -1.2997  -22.5636  -43.6439 O.2       9 UNK        -0.5000 
     27 CA         -0.6603  -21.0149  -41.9299 C.3       9 UNK         0.1400 
     28 CB          0.2725  -21.5867  -40.8524 C.3       9 UNK        -0.1800 
     29 N          -0.4642  -19.5697  -42.0502 N.am      9 UNK        -0.5000 
     30 C          -1.2752  -18.7617  -42.7480 C.2       8 UNK         0.5000 
     31 O          -2.3298  -19.1380  -43.2582 O.2       8 UNK        -0.5000 
     32 CA         -0.8064  -17.3106  -42.9658 C.3       8 UNK         0.1400 
     33 CB         -1.2255  -16.4077  -41.7975 C.3       8 UNK        -0.1800 
     34 N           0.6402  -17.2176  -43.1707 N.am      8 UNK        -0.5000 
     35 C           1.2893  -17.7175  -44.2311 C.2       7 UNK         0.5000 
     36 O           0.7137  -18.2101  -45.1990 O.2       7 UNK        -0.5000 
     37 CA          2.8294  -17.7172  -44.1804 C.3       7 UNK         0.1400 
     38 CB          3.4237  -16.4364  -44.7728 C.3       7 UNK        -0.1800 
     39 N           3.3355  -17.8942  -42.8227 N.am      7 UNK        -0.5000 
     40 C           3.3426  -19.0628  -42.1707 C.2       6 UNK         0.5000 
     41 O           2.9496  -20.1197  -42.6639 O.2       6 UNK        -0.5000 
     42 CA          3.8313  -19.0288  -40.7109 C.3       6 UNK         0.1400 
     43 CB          5.3617  -19.1401  -40.6493 C.3       6 UNK        -0.1800 
     44 N           3.4032  -17.8168  -40.0070 N.am      6 UNK        -0.5000 
     45 C           2.1282  -17.5394  -39.7014 C.2       5 UNK         0.5000 
     46 O           1.1904  -18.2964  -39.9509 O.2       5 UNK        -0.5000 
     47 CA          1.8472  -16.1711  -39.0508 C.3       5 UNK         0.1400 
     48 CB          2.0057  -16.2595  -37.5257 C.3       5 UNK        -0.1800 
     49 N           2.6811  -15.0773  -39.5630 N.am      5 UNK        -0.5000 
     50 C           2.7152  -14.6672  -40.8377 C.2       4 UNK         0.5000 
     51 O           2.1003  -15.2217  -41.7521 O.2       4 UNK        -0.5000 
     52 CA          3.6079  -13.4581  -41.1486 C.3       4 UNK         0.1400 
     53 CB          5.0912  -13.8642  -41.1759 C.3       4 UNK        -0.1800 
     54 N           3.2337  -12.9196  -42.4522 N.am      4 UNK        -0.5000 
     55 C           3.2462  -11.6308  -42.8107 C.2       3 UNK         0.5000 
     56 O           3.6055  -10.7216  -42.0611 O.2       3 UNK        -0.5000 
     57 CA          2.7982  -11.2903  -44.2486 C.3       3 UNK         0.1400 
     58 CB          3.9955  -10.8108  -45.0846 C.3       3 UNK        -0.1800 
     59 N           2.1804  -12.4237  -44.9394 N.am      3 UNK        -0.5000 
     60 C           0.9010  -12.7959  -44.8458 C.2       2 UNK         0.5000 
     61 O           0.0622  -12.1625  -44.2031 O.2       2 UNK        -0.5000 
     62 CA          0.5083  -14.1072  -45.5674 C.3       2 UNK         0.1400 
     63 CB         -0.9792  -14.4575  -45.3907 C.3       2 UNK        -0.1800 
     64 N           0.8275  -14.1718  -46.9984 N.am      2 UNK        -0.5000 
     65 C           2.0338  -14.1796  -47.5882 C.2       1 UNK         0.5000 
     66 O           3.0927  -14.0051  -46.9839 O.2       1 UNK        -0.5000 
     67 C          -3.1998  -21.0027  -46.9494 C.2       11 UNK         0.5000 
     68 O          -3.7435  -21.3549  -47.9934 O.2       11 UNK        -0.5000 
     69 N          -3.4933  -21.5247  -45.7527 N.am      12 UNK        -0.5000 
     70 CA         -4.4628  -22.5978  -45.5592 C.3       12 UNK         0.1400 
     71 CB         -4.9212  -22.6106  -44.0927 C.3       12 UNK        -0.1800 
     72 C          -3.8952  -23.9665  -45.9738 C.2       12 UNK         0.5000 
     73 O          -4.5518  -24.6966  -46.7168 O.2       12 UNK        -0.5000 
     74 N          -2.6999  -24.2938  -45.4649 N.am      13 UNK        -0.5000 
     75 CA         -2.1061  -25.6276  -45.5472 C.3       13 UNK         0.1400 
     76 CB         -0.9695  -25.7380  -44.5191 C.3       13 UNK        -0.1800 
     77 C          -1.6013  -26.0211  -46.9458 C.2       13 UNK         0.5000 
     78 O          -1.7813  -27.1739  -47.3412 O.2       13 UNK        -0.5000 
     79 N          -0.9581  -25.0834  -47.6515 N.am      14 UNK        -0.5000 
     80 CA         -0.2927  -25.3266  -48.9321 C.3       14 UNK         0.1400 
     81 CB          1.1800  -24.8961  -48.8281 C.3       14 UNK        -0.1800 
     82 C          -0.9899  -24.5896  -50.0832 C.2       14 UNK         0.5000 
     83 O          -1.1535  -25.1710  -51.1561 O.2       14 UNK        -0.5000 
     84 N          -1.4010  -23.3358  -49.8482 N.am      15 UNK        -0.5000 
     85 CA         -2.0324  -22.4758  -50.8552 C.3       15 UNK         0.1400 
     86 CB         -1.6425  -21.0084  -50.6022 C.3       15 UNK        -0.1800 
     87 C          -3.5618  -22.6616  -50.9450 C.2       15 UNK         0.5000 
     88 O          -4.2124  -21.8981  -51.6549 O.2       15 UNK        -0.5000 
     89 N          -4.1141  -23.6547  -50.2304 N.am      16 UNK        -0.5000 
     90 CA         -5.5066  -24.1188  -50.2800 C.3       16 UNK         0.1400 
     91 CB         -5.7756  -24.8143  -51.6318 C.3       16 UNK        -0.1800 
     92 C          -6.5577  -23.0335  -49.9535 C.2       16 UNK         0.5000 
     93 O          -7.6489  -23.0464  -50.5249 O.2       16 UNK        -0.5000 
     94 N          -6.2060  -22.1189  -49.0391 N.am      17 UNK        -0.5000 
     95 CA         -6.9539  -20.9248  -48.6363 C.3       17 UNK         0.1400 
     96 CB         -8.3056  -21.2904  -47.9876 C.3       17 UNK        -0.1800 
     97 C          -7.0661  -19.9103  -49.7918 C.2       17 UNK         0.5000 
     98 O          -8.1566  -19.4164  -50.0844 O.2       17 UNK        -0.5000 
     99 N          -5.9131  -19.6290  -50.4159 N.am      18 UNK        -0.5000 
    100 CA        -5.7043  -18.7355  -51.5578 C.3       18 UNK         0.1400 
    101 CB        -6.0664  -17.2784  -51.1984 C.3       18 UNK        -0.1800 
    102 C         -6.4095  -19.2447  -52.8314 C.2       18 UNK         0.5000 
    103 O         -7.1972  -18.5210  -53.4447 O.2       18 UNK        -0.5000 
    104 N         -6.1103  -20.4925  -53.2009 N.am      19 UNK        -0.5000 
    105 CA        -6.6244  -21.1851  -54.3773 C.3       19 UNK         0.1400 
    106 CB        -7.9158  -21.9381  -54.0004 C.3       19 UNK        -0.1800 
    107 C         -5.5256  -22.1040  -54.9426 C.2       19 UNK         0.5000 
    108 O         -4.3451  -21.8860  -54.6644 O.2       19 UNK        -0.5000 
    109 N         -5.9226  -23.1113  -55.7339 N.am      20 UNK        -0.5000 
    110 CA        -5.0770  -24.1483  -56.3363 C.3       20 UNK         0.1400 
    111 CB        -4.5658  -25.1208  -55.2489 C.3       20 UNK        -0.1800 
    112 C         -3.9506  -23.5598  -57.2129 C.2       20 UNK         0.5000 
    113 O         -4.1916  -23.2523  -58.3810 O.2       20 UNK        -0.5000 
    114 N         -2.7522  -23.4109  -56.6342 N.am      21 UNK        -0.5000 
    115 CA        -1.5777  -22.8083  -57.2615 C.3       21 UNK         0.1400 
    116 CB        -0.3351  -23.1798  -56.4370 C.3       21 UNK        -0.1800 
    117 C         -1.6785  -21.2776  -57.4193 C.2       21 UNK         0.5000 
    118 O         -1.0106  -20.7261  -58.2957 O.2       21 UNK        -0.5000 
    119 N         -2.4824  -20.6157  -56.5756 N.am      22 UNK        -0.5000 
    120 CA        -2.7228  -19.1650  -56.6194 C.3       22 UNK         0.1400 
    121 C         -3.5161  -18.7420  -57.8866 C.2       22 UNK         0.5000 
    122 N         -3.1007  -17.6806  -58.5644 N.am      22 UNK        -0.7600 
    123 O         -4.5333  -19.3393  -58.2315 O.2       22 UNK        -0.5000 
    124 C124       -3.4487  -18.6557  -55.3500 C.3       23 UNK        -0.0398 
    125 S125       -2.5474  -19.0249  -53.8078 S.3       23 UNK        -0.2404 
    126 C126       -1.8848  -17.3955  -53.3474 C.3       23 UNK        -0.0205 
    127 H127       -1.5927  -12.7083  -51.2879 H         1 UNK         0.0600 
    128 H128       -2.0654  -13.8551  -50.0301 H         1 UNK         0.0600 
    129 H129       -1.2165  -14.4178  -51.4801 H         1 UNK         0.0600 
    130 H130        0.3932  -15.3987  -49.9716 H         1 UNK         0.3000 
    131 H131        2.6275  -13.6224  -49.5432 H         1 UNK         0.0600 
    132 H132        2.8604  -15.9247  -50.5309 H         1 UNK         0.0800 
    133 H133        3.9576  -15.5425  -49.2475 H         1 UNK         0.0800 
    134 H134        1.5569  -19.3000  -49.4429 H         1 UNK         0.0800 
    135 H135        2.2924  -18.3368  -50.7013 H         1 UNK         0.0800 
    136 H136        0.5369  -18.1168  -52.3087 H         1 UNK         0.1150 
    137 H137       -3.3190  -16.6483  -51.1689 H         1 UNK         0.1150 
    138 H138       -0.3499  -17.3940  -48.1748 H         1 UNK         0.1150 
    139 H139       -2.3688  -15.9134  -47.7224 H         1 UNK         0.0800 
    140 H140       -3.6152  -15.7796  -48.9267 H         1 UNK         0.0800 
    141 H141       -3.0974  -18.6069  -45.5878 H         1 UNK         0.0800 
    142 H142       -1.7850  -17.8541  -46.4354 H         1 UNK         0.0800 
    143 H143       -1.7420  -19.8539  -48.0231 H         1 UNK         0.0600 
    144 H144       -0.5544  -19.7031  -45.5340 H         1 UNK         0.3000 
    145 H145        0.9300  -22.9359  -45.3158 H         1 UNK         0.0600 
    146 H146        3.0146  -21.5361  -45.1389 H         1 UNK         0.0600 
    147 H147        2.5086  -21.8031  -46.8005 H         1 UNK         0.0600 
    148 H148        2.2054  -20.2521  -46.0404 H         1 UNK         0.0600 
    149 H149        1.2529  -20.7039  -43.6286 H         1 UNK         0.3000 
    150 H150       -1.6889  -21.1888  -41.6067 H         1 UNK         0.0600 
    151 H151        0.1023  -22.6558  -40.7194 H         1 UNK         0.0600 
    152 H152        0.1004  -21.1068  -39.8888 H         1 UNK         0.0600 
    153 H153        1.3229  -21.4527  -41.1076 H         1 UNK         0.0600 
    154 H154        0.3451  -19.1715  -41.5862 H         1 UNK         0.3000 
    155 H155       -1.2971  -16.9436  -43.8682 H         1 UNK         0.0600 
    156 H156       -0.8198  -16.7594  -40.8498 H         1 UNK         0.0600 
    157 H157       -2.3112  -16.3825  -41.6979 H         1 UNK         0.0600 
    158 H158       -0.8870  -15.3822  -41.9477 H         1 UNK         0.0600 
    159 H159        1.1781  -16.7447  -42.4506 H         1 UNK         0.3000 
    160 H160        3.1804  -18.5512  -44.7902 H         1 UNK         0.0600 
    161 H161        3.1448  -15.5499  -44.2050 H         1 UNK         0.0600 
    162 H162        3.0806  -16.3040  -45.7966 H         1 UNK         0.0600 
    163 H163        4.5122  -16.4838  -44.8031 H         1 UNK         0.0600 
    164 H164        3.6180  -17.0601  -42.3298 H         1 UNK         0.3000 
    165 H165        3.4042  -19.8927  -40.1970 H         1 UNK         0.0600 
    166 H166        5.7119  -19.1907  -39.6182 H         1 UNK         0.0600 
    167 H167        5.7073  -20.0436  -41.1535 H         1 UNK         0.0600 
    168 H168        5.8487  -18.2898  -41.1285 H         1 UNK         0.0600 
    169 H169        4.1171  -17.1452  -39.7664 H         1 UNK         0.3000 
    170 H170        0.8081  -15.9159  -39.2666 H         1 UNK         0.0600 
    171 H171        1.3797  -17.0520  -37.1131 H         1 UNK         0.0600 
    172 H172        3.0363  -16.4722  -37.2390 H         1 UNK         0.0600 
    173 H173        1.7075  -15.3286  -37.0432 H         1 UNK         0.0600 
    174 H174        3.2280  -14.5770  -38.8770 H         1 UNK         0.3000 
    175 H175        3.4440  -12.7069  -40.3731 H         1 UNK         0.0600 
    176 H176        5.2853  -14.6257  -41.9325 H         1 UNK         0.0600 
    177 H177        5.7287  -13.0074  -41.3949 H         1 UNK         0.0600 
    178 H178        5.4101  -14.2657  -40.2135 H         1 UNK         0.0600 
    179 H179        2.8503  -13.6009  -43.0923 H         1 UNK         0.3000 
    180 H180        2.0771  -10.4729  -44.1838 H         1 UNK         0.0600 
    181 H181        4.7535  -11.5892  -45.1831 H         1 UNK         0.0600 
    182 H182        4.4721   -9.9426  -44.6276 H         1 UNK         0.0600 
    183 H183        3.6835  -10.5187  -46.0875 H         1 UNK         0.0600 
    184 H184        2.7820  -12.9752  -45.5493 H         1 UNK         0.3000 
    185 H185        1.0748  -14.8956  -45.0756 H         1 UNK         0.0600 
    186 H186       -1.2673  -14.4456  -44.3389 H         1 UNK         0.0600 
    187 H187       -1.6246  -13.7537  -45.9174 H         1 UNK         0.0600 
    188 H188       -1.1893  -15.4581  -45.7660 H         1 UNK         0.0600 
    189 H189        0.0354  -14.2833  -47.6124 H         1 UNK         0.3000 
    190 H190       -2.9718  -21.2216  -44.9408 H         1 UNK         0.3000 
    191 H191       -5.3402  -22.3969  -46.1778 H         1 UNK         0.0600 
    192 H192       -4.0889  -22.7753  -43.4075 H         1 UNK         0.0600 
    193 H193       -5.6516  -23.4019  -43.9194 H         1 UNK         0.0600 
    194 H194       -5.3942  -21.6666  -43.8214 H         1 UNK         0.0600 
    195 H195       -2.2262  -23.6265  -44.8597 H         1 UNK         0.3000 
    196 H196       -2.8763  -26.3491  -45.2657 H         1 UNK         0.0600 
    197 H197       -0.5306  -26.7365  -44.5254 H         1 UNK         0.0600 
    198 H198       -1.3320  -25.5487  -43.5085 H         1 UNK         0.0600 
    199 H199       -0.1698  -25.0263  -44.7252 H         1 UNK         0.0600 
    200 H200       -0.8828  -24.1401  -47.2808 H         1 UNK         0.3000 
    201 H201       -0.3046  -26.3909  -49.1760 H         1 UNK         0.0600 
    202 H202        1.6954  -25.4475  -48.0417 H         1 UNK         0.0600 
    203 H203        1.2808  -23.8324  -48.6107 H         1 UNK         0.0600 
    204 H204        1.7093  -25.0904  -49.7618 H         1 UNK         0.0600 
    205 H205       -1.2171  -22.9174  -48.9403 H         1 UNK         0.3000 
    206 H206       -1.6301  -22.7437  -51.8345 H         1 UNK         0.0600 
    207 H207       -0.7011  -20.9137  -50.0608 H         1 UNK         0.0600 
    208 H208       -1.5169  -20.4873  -51.5493 H         1 UNK         0.0600 
    209 H209       -2.4094  -20.4644  -50.0531 H         1 UNK         0.0600 
    210 H210       -3.4990  -24.1803  -49.6268 H         1 UNK         0.3000 
    211 H211       -5.6020  -24.8716  -49.4963 H         1 UNK         0.0600 
    212 H212       -5.7379  -24.1073  -52.4611 H         1 UNK         0.0600 
    213 H213       -6.7593  -25.2847  -51.6462 H         1 UNK         0.0600 
    214 H214       -5.0414  -25.5960  -51.8268 H         1 UNK         0.0600 
    215 H215       -5.2533  -22.1529  -48.6814 H         1 UNK         0.3000 
    216 H216       -6.3528  -20.4374  -47.8673 H         1 UNK         0.0600 
    217 H217       -8.7837  -20.4053  -47.5666 H         1 UNK         0.0600 
    218 H218       -8.1719  -22.0046  -47.1752 H         1 UNK         0.0600 
    219 H219       -9.0022  -21.7235  -48.7055 H         1 UNK         0.0600 
    220 H220       -5.0952  -20.1507  -50.1297 H         1 UNK         0.3000 
    221 H221       -4.6342  -18.7648  -51.7624 H         1 UNK         0.0600 
    222 H222       -7.1384  -17.1480  -51.0492 H         1 UNK         0.0600 
    223 H223       -5.5630  -16.9596  -50.2861 H         1 UNK         0.0600 
    224 H224       -5.7640  -16.5975  -51.9947 H         1 UNK         0.0600 
    225 H225       -5.3944  -21.0051  -52.6822 H         1 UNK         0.3000 
    226 H226       -6.8526  -20.4554  -55.1566 H         1 UNK         0.0600 
    227 H227       -8.6359  -21.2712  -53.5257 H         1 UNK         0.0600 
    228 H228       -8.4059  -22.3606  -54.8777 H         1 UNK         0.0600 
    229 H229       -7.7141  -22.7532  -53.3046 H         1 UNK         0.0600 
    230 H230       -6.9079  -23.1886  -55.9413 H         1 UNK         0.3000 
    231 H231       -5.7188  -24.7209  -57.0075 H         1 UNK         0.0600 
    232 H232       -5.3986  -25.6269  -54.7606 H         1 UNK         0.0600 
    233 H233       -3.9917  -24.6155  -54.4715 H         1 UNK         0.0600 
    234 H234       -3.9296  -25.8940  -55.6815 H         1 UNK         0.0600 
    235 H235       -2.6734  -23.6352  -55.6528 H         1 UNK         0.3000 
    236 H236       -1.4657  -23.2358  -58.2601 H         1 UNK         0.0600 
    237 H237        0.5703  -22.7733  -56.8897 H         1 UNK         0.0600 
    238 H238       -0.3971  -22.7903  -55.4199 H         1 UNK         0.0600 
    239 H239       -0.2097  -24.2610  -56.3765 H         1 UNK         0.0600 
    240 H240       -3.0166  -21.1355  -55.8846 H         1 UNK         0.3000 
    241 H241       -1.7453  -18.6798  -56.6540 H         1 UNK         0.0600 
    242 H242       -3.6177  -17.3873  -59.3790 H         1 UNK         0.3800 
    243 H243       -2.2707  -17.1730  -58.2986 H         1 UNK         0.3800 
    244 H244       -3.6214  -17.5804  -55.4153 H         1 UNK         0.0800 
    245 H245       -4.4370  -19.1108  -55.2748 H         1 UNK         0.0800 
    246 H246       -1.0500  -17.1436  -54.0029 H         1 UNK         0.0800 
    247 H247       -2.6448  -16.6280  -53.5013 H         1 UNK         0.0800 
@<TRIPOS>BOND
     1    1    2 1    
     2    1  127 1    
     3    1  128 1    
     4    1  129 1    
     5    2    3 2    
     6    2    4 am   BACKBONE|DICT|INTERRES
     7    4    5 1    
     8    4  130 1    
     9    5    6 1    
    10    5   65 1    
    11    5  131 1    
    12    6    7 1    
    13    6  132 1    
    14    6  133 1    
    15    7    8 1    
    16    8    9 1    
    17    8  134 1    
    18    8  135 1    
    19    9   10 ar   
    20    9   14 ar   
    21   10   11 ar   
    22   10  136 1    
    23   11   12 ar   
    24   11  126 1    
    25   12   13 ar   
    26   12  137 1    
    27   13   14 ar   
    28   13   15 1    
    29   14  138 1    
    30   15   16 1    
    31   15  139 1    
    32   15  140 1    
    33   16   17 1    
    34   17   18 1    
    35   17  141 1    
    36   17  142 1    
    37   18   19 1    
    38   18   67 1    
    39   18  143 1    
    40   19   20 am   BACKBONE|DICT|INTERRES
    41   19  144 1    
    42   20   21 2    
    43   20   22 1    
    44   22   23 1    
    45   22   24 1    
    46   22  145 1    
    47   23  146 1    
    48   23  147 1    
    49   23  148 1    
    50   24   25 am   BACKBONE|DICT|INTERRES
    51   24  149 1    
    52   25   26 2    
    53   25   27 1    
    54   27   28 1    
    55   27   29 1    
    56   27  150 1    
    57   28  151 1    
    58   28  152 1    
    59   28  153 1    
    60   29   30 am   BACKBONE|DICT|INTERRES
    61   29  154 1    
    62   30   31 2    
    63   30   32 1    
    64   32   33 1    
    65   32   34 1    
    66   32  155 1    
    67   33  156 1    
    68   33  157 1    
    69   33  158 1    
    70   34   35 am   BACKBONE|DICT|INTERRES
    71   34  159 1    
    72   35   36 2    
    73   35   37 1    
    74   37   38 1    
    75   37   39 1    
    76   37  160 1    
    77   38  161 1    
    78   38  162 1    
    79   38  163 1    
    80   39   40 am   BACKBONE|DICT|INTERRES
    81   39  164 1    
    82   40   41 2    
    83   40   42 1    
    84   42   43 1    
    85   42   44 1    
    86   42  165 1    
    87   43  166 1    
    88   43  167 1    
    89   43  168 1    
    90   44   45 am   BACKBONE|DICT|INTERRES
    91   44  169 1    
    92   45   46 2    
    93   45   47 1    
    94   47   48 1    
    95   47   49 1    
    96   47  170 1    
    97   48  171 1    
    98   48  172 1    
    99   48  173 1    
   100   49   50 am   BACKBONE|DICT|INTERRES
   101   49  174 1    
   102   50   51 2    
   103   50   52 1    
   104   52   53 1    
   105   52   54 1    
   106   52  175 1    
   107   53  176 1    
   108   53  177 1    
   109   53  178 1    
   110   54   55 am   BACKBONE|DICT|INTERRES
   111   54  179 1    
   112   55   56 2    
   113   55   57 1    
   114   57   58 1    
   115   57   59 1    
   116   57  180 1    
   117   58  181 1    
   118   58  182 1    
   119   58  183 1    
   120   59   60 am   BACKBONE|DICT|INTERRES
   121   59  184 1    
   122   60   61 2    
   123   60   62 1    
   124   62   63 1    
   125   62   64 1    
   126   62  185 1    
   127   63  186 1    
   128   63  187 1    
   129   63  188 1    
   130   64   65 am   BACKBONE|DICT|INTERRES
   131   64  189 1    
   132   65   66 2    
   133   67   68 2    
   134   67   69 am   BACKBONE|DICT|INTERRES
   135   69   70 1    
   136   69  190 1    
   137   70   71 1    
   138   70   72 1    
   139   70  191 1    
   140   71  192 1    
   141   71  193 1    
   142   71  194 1    
   143   72   73 2    
   144   72   74 am   BACKBONE|DICT|INTERRES
   145   74   75 1    
   146   74  195 1    
   147   75   76 1    
   148   75   77 1    
   149   75  196 1    
   150   76  197 1    
   151   76  198 1    
   152   76  199 1    
   153   77   78 2    
   154   77   79 am   BACKBONE|DICT|INTERRES
   155   79   80 1    
   156   79  200 1    
   157   80   81 1    
   158   80   82 1    
   159   80  201 1    
   160   81  202 1    
   161   81  203 1    
   162   81  204 1    
   163   82   83 2    
   164   82   84 am   BACKBONE|DICT|INTERRES
   165   84   85 1    
   166   84  205 1    
   167   85   86 1    
   168   85   87 1    
   169   85  206 1    
   170   86  207 1    
   171   86  208 1    
   172   86  209 1    
   173   87   88 2    
   174   87   89 am   BACKBONE|DICT|INTERRES
   175   89   90 1    
   176   89  210 1    
   177   90   91 1    
   178   90   92 1    
   179   90  211 1    
   180   91  212 1    
   181   91  213 1    
   182   91  214 1    
   183   92   93 2    
   184   92   94 am   BACKBONE|DICT|INTERRES
   185   94   95 1    
   186   94  215 1    
   187   95   96 1    
   188   95   97 1    
   189   95  216 1    
   190   96  217 1    
   191   96  218 1    
   192   96  219 1    
   193   97   98 2    
   194   97   99 am   BACKBONE|DICT|INTERRES
   195   99  100 1    
   196   99  220 1    
   197  100  101 1    
   198  100  102 1    
   199  100  221 1    
   200  101  222 1    
   201  101  223 1    
   202  101  224 1    
   203  102  103 2    
   204  102  104 am   BACKBONE|DICT|INTERRES
   205  104  105 1    
   206  104  225 1    
   207  105  106 1    
   208  105  107 1    
   209  105  226 1    
   210  106  227 1    
   211  106  228 1    
   212  106  229 1    
   213  107  108 2    
   214  107  109 am   BACKBONE|DICT|INTERRES
   215  109  110 1    
   216  109  230 1    
   217  110  111 1    
   218  110  112 1    
   219  110  231 1    
   220  111  232 1    
   221  111  233 1    
   222  111  234 1    
   223  112  113 2    
   224  112  114 am   BACKBONE|DICT|INTERRES
   225  114  115 1    
   226  114  235 1    
   227  115  116 1    
   228  115  117 1    
   229  115  236 1    
   230  116  237 1    
   231  116  238 1    
   232  116  239 1    
   233  117  118 2    
   234  117  119 am   BACKBONE|DICT|INTERRES
   235  119  120 1    
   236  119  240 1    
   237  120  121 1    
   238  120  124 1    
   239  120  241 1    
   240  121  122 am   BACKBONE|DICT|INTERRES
   241  121  123 2    
   242  122  242 1    
   243  122  243 1    
   244  124  125 1    
   245  124  244 1    
   246  124  245 1    
   247  125  126 1    
   248  126  246 1    
   249  126  247 1    
@<TRIPOS>SUBSTRUCTURE
     1 UNK         1 GROUP             0       ****    0 ROOT    
