@<TRIPOS>MOLECULE
3R540
247   249    1
SMALL
USER_CHARGES


@<TRIPOS>ATOM
      1 CA          1.3656  -10.7439  -48.3896 C.3       0 UNK        -0.1800 
      2 C           1.7797  -12.1374  -47.9433 C.2       0 UNK         0.5000 
      3 O           1.4084  -12.5705  -46.8523 O.2       0 UNK        -0.5000 
      4 N           2.5231  -12.8524  -48.7958 N.am      1 UNK        -0.5000 
      5 CA          3.1071  -14.1814  -48.5528 C.3       1 UNK         0.1400 
      6 C6          4.0916  -14.5970  -49.6768 C.3       23 UNK        -0.0398 
      7 S7          3.4348  -14.3869  -51.3709 S.3       23 UNK        -0.2404 
      8 C8          3.8345  -15.9829  -52.1494 C.3       23 UNK        -0.0205 
      9 C9          2.7033  -16.9895  -52.0090 C.ar      23 UNK        -0.0193 
     10 C10         1.5574  -16.8556  -52.7970 C.ar      23 UNK        -0.1150 
     11 C11         0.5263  -17.7948  -52.7218 C.ar      23 UNK        -0.0193 
     12 C12         0.6503  -18.8813  -51.8509 C.ar      23 UNK        -0.1150 
     13 C13         1.7847  -19.0199  -51.0428 C.ar      23 UNK        -0.0193 
     14 C14         2.8085  -18.0696  -51.1281 C.ar      23 UNK        -0.1150 
     15 C15         1.9195  -20.1963  -50.0850 C.3       23 UNK        -0.0205 
     16 S16         1.6009  -19.7102  -48.3556 S.3       23 UNK        -0.2404 
     17 C17        -0.0699  -20.3806  -48.0560 C.3       23 UNK        -0.0398 
     18 CA         -0.0027  -21.7433  -47.3253 C.3       11 UNK         0.1400 
     19 N           0.4735  -21.6138  -45.9442 N.am      11 UNK        -0.5000 
     20 C           0.8719  -22.6444  -45.1862 C.2       10 UNK         0.5000 
     21 O           0.9092  -23.8090  -45.5834 O.2       10 UNK        -0.5000 
     22 CA          1.2486  -22.3319  -43.7267 C.3       10 UNK         0.1400 
     23 CB          2.6620  -21.7370  -43.6374 C.3       10 UNK        -0.1800 
     24 N           0.2924  -21.4350  -43.0766 N.am      10 UNK        -0.5000 
     25 C          -0.9955  -21.7306  -42.8528 C.2       9 UNK         0.5000 
     26 O          -1.5080  -22.8093  -43.1420 O.2       9 UNK        -0.5000 
     27 CA         -1.8762  -20.6238  -42.2500 C.3       9 UNK         0.1400 
     28 CB         -1.7003  -20.5428  -40.7264 C.3       9 UNK        -0.1800 
     29 N          -1.6175  -19.3174  -42.8521 N.am      9 UNK        -0.5000 
     30 C          -1.8702  -19.0091  -44.1320 C.2       8 UNK         0.5000 
     31 O          -2.3593  -19.7910  -44.9470 O.2       8 UNK        -0.5000 
     32 CA         -1.4634  -17.5980  -44.5853 C.3       8 UNK         0.1400 
     33 CB         -2.5211  -16.5732  -44.1505 C.3       8 UNK        -0.1800 
     34 N          -0.1529  -17.1935  -44.0738 N.am      8 UNK        -0.5000 
     35 C           0.9962  -17.8381  -44.3265 C.2       7 UNK         0.5000 
     36 O           1.0779  -18.8265  -45.0554 O.2       7 UNK        -0.5000 
     37 CA          2.2430  -17.3428  -43.5712 C.3       7 UNK         0.1400 
     38 CB          2.7844  -16.0401  -44.1781 C.3       7 UNK        -0.1800 
     39 N           1.9807  -17.1369  -42.1465 N.am      7 UNK        -0.5000 
     40 C           1.6364  -18.0914  -41.2733 C.2       6 UNK         0.5000 
     41 O           1.5161  -19.2757  -41.5832 O.2       6 UNK        -0.5000 
     42 CA          1.3296  -17.6643  -39.8226 C.3       6 UNK         0.1400 
     43 CB          2.6063  -17.6490  -38.9608 C.3       6 UNK        -0.1800 
     44 N           0.5731  -16.4080  -39.7121 N.am      6 UNK        -0.5000 
     45 C           0.9723  -15.1639  -40.0064 C.2       5 UNK         0.5000 
     46 O           2.1178  -14.8666  -40.3541 O.2       5 UNK        -0.5000 
     47 CA         -0.1132  -14.0731  -39.9477 C.3       5 UNK         0.1400 
     48 CB         -0.0248  -13.2936  -38.6271 C.3       5 UNK        -0.1800 
     49 N          -0.0133  -13.1349  -41.0678 N.am      5 UNK        -0.5000 
     50 C          -0.0642  -13.4691  -42.3646 C.2       4 UNK         0.5000 
     51 O          -0.2332  -14.6224  -42.7727 O.2       4 UNK        -0.5000 
     52 CA          0.1476  -12.3151  -43.3628 C.3       4 UNK         0.1400 
     53 CB          1.6463  -12.0227  -43.5378 C.3       4 UNK        -0.1800 
     54 N          -0.4284  -12.5985  -44.6760 N.am      4 UNK        -0.5000 
     55 C          -1.7404  -12.6813  -44.9370 C.2       3 UNK         0.5000 
     56 O          -2.6158  -12.4672  -44.0973 O.2       3 UNK        -0.5000 
     57 CA         -2.1550  -13.0649  -46.3677 C.3       3 UNK         0.1400 
     58 CB         -2.3277  -11.8056  -47.2308 C.3       3 UNK        -0.1800 
     59 N          -1.1769  -13.9520  -47.0030 N.am      3 UNK        -0.5000 
     60 C          -1.4464  -15.1824  -47.4612 C.2       2 UNK         0.5000 
     61 O          -2.5607  -15.7026  -47.3975 O.2       2 UNK        -0.5000 
     62 CA         -0.2906  -15.9701  -48.1056 C.3       2 UNK         0.1400 
     63 CB         -0.7524  -16.7862  -49.3203 C.3       2 UNK        -0.1800 
     64 N           0.8078  -15.0919  -48.5068 N.am      2 UNK        -0.5000 
     65 C           2.0982  -15.3060  -48.2244 C.2       1 UNK         0.5000 
     66 O           2.5158  -16.3292  -47.6852 O.2       1 UNK        -0.5000 
     67 C          -1.3366  -22.5185  -47.4022 C.2       11 UNK         0.5000 
     68 O          -1.4851  -23.3713  -48.2760 O.2       11 UNK        -0.5000 
     69 N          -2.2606  -22.2698  -46.4621 N.am      12 UNK        -0.5000 
     70 CA         -3.5122  -23.0200  -46.3317 C.3       12 UNK         0.1400 
     71 CB         -4.4385  -22.3162  -45.3302 C.3       12 UNK        -0.1800 
     72 C          -3.2945  -24.4948  -45.9370 C.2       12 UNK         0.5000 
     73 O          -3.9600  -25.3726  -46.4865 O.2       12 UNK        -0.5000 
     74 N          -2.3512  -24.7540  -45.0205 N.am      13 UNK        -0.5000 
     75 CA         -1.9572  -26.0988  -44.5905 C.3       13 UNK         0.1400 
     76 CB         -1.0159  -26.0033  -43.3808 C.3       13 UNK        -0.1800 
     77 C          -1.3113  -26.9300  -45.7146 C.2       13 UNK         0.5000 
     78 O          -1.4732  -28.1513  -45.7347 O.2       13 UNK        -0.5000 
     79 N          -0.6321  -26.2598  -46.6546 N.am      14 UNK        -0.5000 
     80 CA         -0.0511  -26.8343  -47.8675 C.3       14 UNK         0.1400 
     81 CB          1.0455  -25.8885  -48.3903 C.3       14 UNK        -0.1800 
     82 C          -1.1265  -27.1509  -48.9311 C.2       14 UNK         0.5000 
     83 O          -1.0822  -26.6151  -50.0381 O.2       14 UNK        -0.5000 
     84 N          -2.0770  -28.0236  -48.5689 N.am      15 UNK        -0.5000 
     85 CA         -3.1566  -28.5682  -49.4001 C.3       15 UNK         0.1400 
     86 CB         -2.5771  -29.5114  -50.4755 C.3       15 UNK        -0.1800 
     87 C          -4.0961  -27.4918  -49.9870 C.2       15 UNK         0.5000 
     88 O          -4.4746  -27.5753  -51.1570 O.2       15 UNK        -0.5000 
     89 N          -4.4592  -26.5031  -49.1559 N.am      16 UNK        -0.5000 
     90 CA         -5.3667  -25.3868  -49.4497 C.3       16 UNK         0.1400 
     91 CB         -6.7870  -25.8934  -49.7796 C.3       16 UNK        -0.1800 
     92 C          -4.8314  -24.3902  -50.4984 C.2       16 UNK         0.5000 
     93 O          -5.6153  -23.6243  -51.0622 O.2       16 UNK        -0.5000 
     94 N          -3.5098  -24.3646  -50.7172 N.am      17 UNK        -0.5000 
     95 CA         -2.8205  -23.4580  -51.6380 C.3       17 UNK         0.1400 
     96 CB         -1.4864  -24.0960  -52.0624 C.3       17 UNK        -0.1800 
     97 C          -2.6354  -22.0430  -51.0466 C.2       17 UNK         0.5000 
     98 O          -1.5294  -21.5062  -51.0746 O.2       17 UNK        -0.5000 
     99 N          -3.7186  -21.4685  -50.5090 N.am      18 UNK        -0.5000 
    100 CA        -3.7912  -20.1162  -49.9553 C.3       18 UNK         0.1400 
    101 CB        -5.0509  -20.0278  -49.0766 C.3       18 UNK        -0.1800 
    102 C         -3.7894  -19.0366  -51.0587 C.2       18 UNK         0.5000 
    103 O         -3.7198  -19.3628  -52.2446 O.2       18 UNK        -0.5000 
    104 N         -3.9010  -17.7605  -50.6588 N.am      19 UNK        -0.5000 
    105 CA        -3.8721  -16.5801  -51.5360 C.3       19 UNK         0.1400 
    106 CB        -4.1284  -15.3194  -50.6959 C.3       19 UNK        -0.1800 
    107 C         -4.8501  -16.6268  -52.7282 C.2       19 UNK         0.5000 
    108 O         -4.5161  -16.1380  -53.8072 O.2       19 UNK        -0.5000 
    109 N         -6.0197  -17.2441  -52.5170 N.am      20 UNK        -0.5000 
    110 CA        -7.0592  -17.4457  -53.5260 C.3       20 UNK         0.1400 
    111 CB        -8.3684  -17.8149  -52.8106 C.3       20 UNK        -0.1800 
    112 C         -6.7117  -18.5081  -54.5904 C.2       20 UNK         0.5000 
    113 O         -7.3428  -18.5131  -55.6483 O.2       20 UNK        -0.5000 
    114 N         -5.7470  -19.3965  -54.3059 N.am      21 UNK        -0.5000 
    115 CA        -5.3090  -20.4493  -55.2258 C.3       21 UNK         0.1400 
    116 CB        -4.6609  -21.5927  -54.4300 C.3       21 UNK        -0.1800 
    117 C         -4.3403  -19.9236  -56.3007 C.2       21 UNK         0.5000 
    118 O         -4.2846  -20.4938  -57.3914 O.2       21 UNK        -0.5000 
    119 N         -3.6009  -18.8535  -55.9827 N.am      22 UNK        -0.5000 
    120 CA        -2.7325  -18.1340  -56.9239 C.3       22 UNK         0.1400 
    121 C         -3.5526  -17.3173  -57.9619 C.2       22 UNK         0.5000 
    122 N         -3.0920  -17.2430  -59.2034 N.am      22 UNK        -0.7600 
    123 O         -4.5769  -16.7164  -57.6462 O.2       22 UNK        -0.5000 
    124 C124       -1.7260  -17.2175  -56.1863 C.3       23 UNK        -0.0398 
    125 S125       -0.4466  -18.1589  -55.2840 S.3       23 UNK        -0.2404 
    126 C126       -0.7214  -17.6133  -53.5719 C.3       23 UNK        -0.0205 
    127 H127        1.3325  -10.0672  -47.5356 H         1 UNK         0.0600 
    128 H128        0.3763  -10.7720  -48.8454 H         1 UNK         0.0600 
    129 H129        2.0668  -10.3350  -49.1174 H         1 UNK         0.0600 
    130 H130        2.7541  -12.4538  -49.6954 H         1 UNK         0.3000 
    131 H131        3.7029  -14.0751  -47.6435 H         1 UNK         0.0600 
    132 H132        4.4389  -15.6215  -49.5299 H         1 UNK         0.0800 
    133 H133        4.9883  -13.9801  -49.6059 H         1 UNK         0.0800 
    134 H134        4.7674  -16.3797  -51.7463 H         1 UNK         0.0800 
    135 H135        4.0196  -15.8107  -53.2107 H         1 UNK         0.0800 
    136 H136        1.4707  -16.0192  -53.4765 H         1 UNK         0.1150 
    137 H137       -0.1451  -19.6076  -51.7927 H         1 UNK         0.1150 
    138 H138        3.6883  -18.1762  -50.5092 H         1 UNK         0.1150 
    139 H139        1.2600  -21.0141  -50.3804 H         1 UNK         0.0800 
    140 H140        2.9337  -20.5925  -50.1508 H         1 UNK         0.0800 
    141 H141       -0.5847  -20.4621  -49.0107 H         1 UNK         0.0800 
    142 H142       -0.6368  -19.6575  -47.4671 H         1 UNK         0.0800 
    143 H143        0.7266  -22.3590  -47.8572 H         1 UNK         0.0600 
    144 H144        0.5248  -20.6725  -45.5641 H         1 UNK         0.3000 
    145 H145        1.2449  -23.2743  -43.1754 H         1 UNK         0.0600 
    146 H146        2.9606  -21.5865  -42.5998 H         1 UNK         0.0600 
    147 H147        3.3951  -22.4026  -44.0946 H         1 UNK         0.0600 
    148 H148        2.7291  -20.7752  -44.1462 H         1 UNK         0.0600 
    149 H149        0.6520  -20.5379  -42.7630 H         1 UNK         0.3000 
    150 H150       -2.9176  -20.8817  -42.4539 H         1 UNK         0.0600 
    151 H151       -1.9528  -21.4946  -40.2573 H         1 UNK         0.0600 
    152 H152       -2.3521  -19.7845  -40.2924 H         1 UNK         0.0600 
    153 H153       -0.6743  -20.3056  -40.4468 H         1 UNK         0.0600 
    154 H154       -1.1762  -18.6232  -42.2691 H         1 UNK         0.3000 
    155 H155       -1.4130  -17.6077  -45.6745 H         1 UNK         0.0600 
    156 H156       -2.6079  -16.5156  -43.0648 H         1 UNK         0.0600 
    157 H157       -3.5027  -16.8310  -44.5499 H         1 UNK         0.0600 
    158 H158       -2.2761  -15.5770  -44.5147 H         1 UNK         0.0600 
    159 H159       -0.1307  -16.3624  -43.4859 H         1 UNK         0.3000 
    160 H160        3.0168  -18.1083  -43.6579 H         1 UNK         0.0600 
    161 H161        2.0183  -15.2664  -44.2297 H         1 UNK         0.0600 
    162 H162        3.1484  -16.2108  -45.1900 H         1 UNK         0.0600 
    163 H163        3.6201  -15.6478  -43.5985 H         1 UNK         0.0600 
    164 H164        2.0590  -16.1883  -41.7938 H         1 UNK         0.3000 
    165 H165        0.6744  -18.4322  -39.4084 H         1 UNK         0.0600 
    166 H166        3.3487  -16.9447  -39.3366 H         1 UNK         0.0600 
    167 H167        2.3822  -17.3827  -37.9279 H         1 UNK         0.0600 
    168 H168        3.0747  -18.6340  -38.9484 H         1 UNK         0.0600 
    169 H169       -0.3952  -16.5304  -39.4495 H         1 UNK         0.3000 
    170 H170       -1.0946  -14.5482  -40.0064 H         1 UNK         0.0600 
    171 H171        0.9289  -12.7728  -38.5312 H         1 UNK         0.0600 
    172 H172       -0.8217  -12.5537  -38.5501 H         1 UNK         0.0600 
    173 H173       -0.1204  -13.9629  -37.7710 H         1 UNK         0.0600 
    174 H174        0.1653  -12.1722  -40.8228 H         1 UNK         0.3000 
    175 H175       -0.3380  -11.4217  -42.9650 H         1 UNK         0.0600 
    176 H176        2.1180  -11.7868  -42.5831 H         1 UNK         0.0600 
    177 H177        1.8059  -11.1701  -44.1983 H         1 UNK         0.0600 
    178 H178        2.1758  -12.8754  -43.9635 H         1 UNK         0.0600 
    179 H179        0.2403  -12.7426  -45.4264 H         1 UNK         0.3000 
    180 H180       -3.1270  -13.5570  -46.2943 H         1 UNK         0.0600 
    181 H181       -2.6341  -12.0610  -48.2453 H         1 UNK         0.0600 
    182 H182       -1.4040  -11.2305  -47.2913 H         1 UNK         0.0600 
    183 H183       -3.0938  -11.1505  -46.8141 H         1 UNK         0.0600 
    184 H184       -0.2208  -13.6145  -47.0385 H         1 UNK         0.3000 
    185 H185        0.0524  -16.6707  -47.3416 H         1 UNK         0.0600 
    186 H186        0.0760  -17.3720  -49.7064 H         1 UNK         0.0600 
    187 H187       -1.5435  -17.4873  -49.0555 H         1 UNK         0.0600 
    188 H188       -1.1142  -16.1480  -50.1261 H         1 UNK         0.0600 
    189 H189        0.5542  -14.2329  -48.9733 H         1 UNK         0.3000 
    190 H190       -2.1039  -21.5243  -45.7893 H         1 UNK         0.3000 
    191 H191       -4.0051  -23.0112  -47.3061 H         1 UNK         0.0600 
    192 H192       -5.3865  -22.8471  -45.2346 H         1 UNK         0.0600 
    193 H193       -4.6657  -21.2996  -45.6516 H         1 UNK         0.0600 
    194 H194       -3.9904  -22.2608  -44.3380 H         1 UNK         0.0600 
    195 H195       -1.8935  -23.9770  -44.5498 H         1 UNK         0.3000 
    196 H196       -2.8608  -26.6241  -44.2747 H         1 UNK         0.0600 
    197 H197       -0.1082  -25.4491  -43.6203 H         1 UNK         0.0600 
    198 H198       -1.5017  -25.5049  -42.5420 H         1 UNK         0.0600 
    199 H199       -0.7156  -26.9944  -43.0388 H         1 UNK         0.0600 
    200 H200       -0.5324  -25.2580  -46.5447 H         1 UNK         0.3000 
    201 H201        0.4297  -27.7793  -47.6066 H         1 UNK         0.0600 
    202 H202        1.5434  -26.3119  -49.2634 H         1 UNK         0.0600 
    203 H203        0.6394  -24.9201  -48.6821 H         1 UNK         0.0600 
    204 H204        1.8100  -25.7143  -47.6328 H         1 UNK         0.0600 
    205 H205       -2.0388  -28.3642  -47.6125 H         1 UNK         0.3000 
    206 H206       -3.7746  -29.1729  -48.7351 H         1 UNK         0.0600 
    207 H207       -1.9466  -30.2797  -50.0279 H         1 UNK         0.0600 
    208 H208       -3.3725  -30.0231  -51.0185 H         1 UNK         0.0600 
    209 H209       -1.9770  -28.9696  -51.2074 H         1 UNK         0.0600 
    210 H210       -4.0766  -26.4912  -48.2156 H         1 UNK         0.3000 
    211 H211       -5.4471  -24.8130  -48.5271 H         1 UNK         0.0600 
    212 H212       -7.1452  -26.5866  -49.0186 H         1 UNK         0.0600 
    213 H213       -6.8251  -26.4017  -50.7433 H         1 UNK         0.0600 
    214 H214       -7.4972  -25.0669  -49.8215 H         1 UNK         0.0600 
    215 H215       -2.9165  -24.9937  -50.1913 H         1 UNK         0.3000 
    216 H216       -3.4293  -23.3535  -52.5370 H         1 UNK         0.0600 
    217 H217       -0.9899  -23.4957  -52.8257 H         1 UNK         0.0600 
    218 H218       -1.6379  -25.0919  -52.4791 H         1 UNK         0.0600 
    219 H219       -0.8019  -24.1859  -51.2176 H         1 UNK         0.0600 
    220 H220       -4.5920  -21.9775  -50.5865 H         1 UNK         0.3000 
    221 H221       -2.9157  -19.9508  -49.3254 H         1 UNK         0.0600 
    222 H222       -5.0504  -20.8049  -48.3119 H         1 UNK         0.0600 
    223 H223       -5.9612  -20.1418  -49.6671 H         1 UNK         0.0600 
    224 H224       -5.1118  -19.0721  -48.5552 H         1 UNK         0.0600 
    225 H225       -3.9741  -17.5667  -49.6704 H         1 UNK         0.3000 
    226 H226       -2.8652  -16.5087  -51.9474 H         1 UNK         0.0600 
    227 H227       -3.3670  -15.1904  -49.9285 H         1 UNK         0.0600 
    228 H228       -4.1105  -14.4233  -51.3177 H         1 UNK         0.0600 
    229 H229       -5.0996  -15.3563  -50.2009 H         1 UNK         0.0600 
    230 H230       -6.1989  -17.6257  -51.6002 H         1 UNK         0.3000 
    231 H231       -7.2127  -16.5000  -54.0503 H         1 UNK         0.0600 
    232 H232       -8.2731  -18.7488  -52.2550 H         1 UNK         0.0600 
    233 H233       -9.1835  -17.9398  -53.5247 H         1 UNK         0.0600 
    234 H234       -8.6696  -17.0355  -52.1104 H         1 UNK         0.0600 
    235 H235       -5.2259  -19.3157  -53.4374 H         1 UNK         0.3000 
    236 H236       -6.1856  -20.8550  -55.7355 H         1 UNK         0.0600 
    237 H237       -5.3121  -21.9381  -53.6265 H         1 UNK         0.0600 
    238 H238       -4.4579  -22.4474  -55.0761 H         1 UNK         0.0600 
    239 H239       -3.7114  -21.2888  -53.9891 H         1 UNK         0.0600 
    240 H240       -3.7365  -18.4265  -55.0780 H         1 UNK         0.3000 
    241 H241       -2.1591  -18.8812  -57.4767 H         1 UNK         0.0600 
    242 H242       -2.2500  -17.7211  -59.4863 H         1 UNK         0.3800 
    243 H243       -3.6053  -16.7046  -59.8844 H         1 UNK         0.3800 
    244 H244       -2.2535  -16.5390  -55.5139 H         1 UNK         0.0800 
    245 H245       -1.1973  -16.5806  -56.8979 H         1 UNK         0.0800 
    246 H246       -1.5571  -18.1731  -53.1528 H         1 UNK         0.0800 
    247 H247       -1.0067  -16.5606  -53.5561 H         1 UNK         0.0800 
@<TRIPOS>BOND
     1    1    2 1    
     2    1  127 1    
     3    1  128 1    
     4    1  129 1    
     5    2    3 2    
     6    2    4 am   BACKBONE|DICT|INTERRES
     7    4    5 1    
     8    4  130 1    
     9    5    6 1    
    10    5   65 1    
    11    5  131 1    
    12    6    7 1    
    13    6  132 1    
    14    6  133 1    
    15    7    8 1    
    16    8    9 1    
    17    8  134 1    
    18    8  135 1    
    19    9   10 ar   
    20    9   14 ar   
    21   10   11 ar   
    22   10  136 1    
    23   11   12 ar   
    24   11  126 1    
    25   12   13 ar   
    26   12  137 1    
    27   13   14 ar   
    28   13   15 1    
    29   14  138 1    
    30   15   16 1    
    31   15  139 1    
    32   15  140 1    
    33   16   17 1    
    34   17   18 1    
    35   17  141 1    
    36   17  142 1    
    37   18   19 1    
    38   18   67 1    
    39   18  143 1    
    40   19   20 am   BACKBONE|DICT|INTERRES
    41   19  144 1    
    42   20   21 2    
    43   20   22 1    
    44   22   23 1    
    45   22   24 1    
    46   22  145 1    
    47   23  146 1    
    48   23  147 1    
    49   23  148 1    
    50   24   25 am   BACKBONE|DICT|INTERRES
    51   24  149 1    
    52   25   26 2    
    53   25   27 1    
    54   27   28 1    
    55   27   29 1    
    56   27  150 1    
    57   28  151 1    
    58   28  152 1    
    59   28  153 1    
    60   29   30 am   BACKBONE|DICT|INTERRES
    61   29  154 1    
    62   30   31 2    
    63   30   32 1    
    64   32   33 1    
    65   32   34 1    
    66   32  155 1    
    67   33  156 1    
    68   33  157 1    
    69   33  158 1    
    70   34   35 am   BACKBONE|DICT|INTERRES
    71   34  159 1    
    72   35   36 2    
    73   35   37 1    
    74   37   38 1    
    75   37   39 1    
    76   37  160 1    
    77   38  161 1    
    78   38  162 1    
    79   38  163 1    
    80   39   40 am   BACKBONE|DICT|INTERRES
    81   39  164 1    
    82   40   41 2    
    83   40   42 1    
    84   42   43 1    
    85   42   44 1    
    86   42  165 1    
    87   43  166 1    
    88   43  167 1    
    89   43  168 1    
    90   44   45 am   BACKBONE|DICT|INTERRES
    91   44  169 1    
    92   45   46 2    
    93   45   47 1    
    94   47   48 1    
    95   47   49 1    
    96   47  170 1    
    97   48  171 1    
    98   48  172 1    
    99   48  173 1    
   100   49   50 am   BACKBONE|DICT|INTERRES
   101   49  174 1    
   102   50   51 2    
   103   50   52 1    
   104   52   53 1    
   105   52   54 1    
   106   52  175 1    
   107   53  176 1    
   108   53  177 1    
   109   53  178 1    
   110   54   55 am   BACKBONE|DICT|INTERRES
   111   54  179 1    
   112   55   56 2    
   113   55   57 1    
   114   57   58 1    
   115   57   59 1    
   116   57  180 1    
   117   58  181 1    
   118   58  182 1    
   119   58  183 1    
   120   59   60 am   BACKBONE|DICT|INTERRES
   121   59  184 1    
   122   60   61 2    
   123   60   62 1    
   124   62   63 1    
   125   62   64 1    
   126   62  185 1    
   127   63  186 1    
   128   63  187 1    
   129   63  188 1    
   130   64   65 am   BACKBONE|DICT|INTERRES
   131   64  189 1    
   132   65   66 2    
   133   67   68 2    
   134   67   69 am   BACKBONE|DICT|INTERRES
   135   69   70 1    
   136   69  190 1    
   137   70   71 1    
   138   70   72 1    
   139   70  191 1    
   140   71  192 1    
   141   71  193 1    
   142   71  194 1    
   143   72   73 2    
   144   72   74 am   BACKBONE|DICT|INTERRES
   145   74   75 1    
   146   74  195 1    
   147   75   76 1    
   148   75   77 1    
   149   75  196 1    
   150   76  197 1    
   151   76  198 1    
   152   76  199 1    
   153   77   78 2    
   154   77   79 am   BACKBONE|DICT|INTERRES
   155   79   80 1    
   156   79  200 1    
   157   80   81 1    
   158   80   82 1    
   159   80  201 1    
   160   81  202 1    
   161   81  203 1    
   162   81  204 1    
   163   82   83 2    
   164   82   84 am   BACKBONE|DICT|INTERRES
   165   84   85 1    
   166   84  205 1    
   167   85   86 1    
   168   85   87 1    
   169   85  206 1    
   170   86  207 1    
   171   86  208 1    
   172   86  209 1    
   173   87   88 2    
   174   87   89 am   BACKBONE|DICT|INTERRES
   175   89   90 1    
   176   89  210 1    
   177   90   91 1    
   178   90   92 1    
   179   90  211 1    
   180   91  212 1    
   181   91  213 1    
   182   91  214 1    
   183   92   93 2    
   184   92   94 am   BACKBONE|DICT|INTERRES
   185   94   95 1    
   186   94  215 1    
   187   95   96 1    
   188   95   97 1    
   189   95  216 1    
   190   96  217 1    
   191   96  218 1    
   192   96  219 1    
   193   97   98 2    
   194   97   99 am   BACKBONE|DICT|INTERRES
   195   99  100 1    
   196   99  220 1    
   197  100  101 1    
   198  100  102 1    
   199  100  221 1    
   200  101  222 1    
   201  101  223 1    
   202  101  224 1    
   203  102  103 2    
   204  102  104 am   BACKBONE|DICT|INTERRES
   205  104  105 1    
   206  104  225 1    
   207  105  106 1    
   208  105  107 1    
   209  105  226 1    
   210  106  227 1    
   211  106  228 1    
   212  106  229 1    
   213  107  108 2    
   214  107  109 am   BACKBONE|DICT|INTERRES
   215  109  110 1    
   216  109  230 1    
   217  110  111 1    
   218  110  112 1    
   219  110  231 1    
   220  111  232 1    
   221  111  233 1    
   222  111  234 1    
   223  112  113 2    
   224  112  114 am   BACKBONE|DICT|INTERRES
   225  114  115 1    
   226  114  235 1    
   227  115  116 1    
   228  115  117 1    
   229  115  236 1    
   230  116  237 1    
   231  116  238 1    
   232  116  239 1    
   233  117  118 2    
   234  117  119 am   BACKBONE|DICT|INTERRES
   235  119  120 1    
   236  119  240 1    
   237  120  121 1    
   238  120  124 1    
   239  120  241 1    
   240  121  122 am   BACKBONE|DICT|INTERRES
   241  121  123 2    
   242  122  242 1    
   243  122  243 1    
   244  124  125 1    
   245  124  244 1    
   246  124  245 1    
   247  125  126 1    
   248  126  246 1    
   249  126  247 1    
@<TRIPOS>SUBSTRUCTURE
     1 UNK         1 GROUP             0       ****    0 ROOT    
