@<TRIPOS>MOLECULE
3R540
247   249    1
SMALL
USER_CHARGES


@<TRIPOS>ATOM
      1 CA         -1.1355  -11.1506  -47.8276 C.3       0 UNK        -0.1800 
      2 C           0.3743  -11.0756  -48.0035 C.2       0 UNK         0.5000 
      3 O           0.9622  -10.0096  -47.8216 O.2       0 UNK        -0.5000 
      4 N           1.0045  -12.2050  -48.3494 N.am      1 UNK        -0.5000 
      5 CA          2.4564  -12.3503  -48.5287 C.3       1 UNK         0.1400 
      6 C6          2.8140  -13.5457  -49.4488 C.3       23 UNK        -0.0398 
      7 S7          1.9784  -15.1178  -49.0367 S.3       23 UNK        -0.2404 
      8 C8          2.6056  -16.1532  -50.3949 C.3       23 UNK        -0.0205 
      9 C9          1.7097  -17.3510  -50.6701 C.ar      23 UNK        -0.0193 
     10 C10         0.5049  -17.1746  -51.3563 C.ar      23 UNK        -0.1150 
     11 C11        -0.2927  -18.2726  -51.6897 C.ar      23 UNK        -0.0193 
     12 C12         0.1110  -19.5531  -51.3012 C.ar      23 UNK        -0.1150 
     13 C13         1.3140  -19.7495  -50.6156 C.ar      23 UNK        -0.0193 
     14 C14         2.1096  -18.6394  -50.3029 C.ar      23 UNK        -0.1150 
     15 C15         1.7527  -21.1783  -50.2977 C.3       23 UNK        -0.0205 
     16 S16         2.7276  -21.3837  -48.7677 S.3       23 UNK        -0.2404 
     17 C17         1.5817  -20.7887  -47.4822 C.3       23 UNK        -0.0398 
     18 CA          0.6231  -21.8906  -46.9658 C.3       11 UNK         0.1400 
     19 N           0.3886  -21.7738  -45.5263 N.am      11 UNK        -0.5000 
     20 C          -0.3162  -22.6355  -44.7805 C.2       10 UNK         0.5000 
     21 O          -0.7900  -23.6882  -45.2056 O.2       10 UNK        -0.5000 
     22 CA         -0.5870  -22.2158  -43.3265 C.3       10 UNK         0.1400 
     23 CB          0.5123  -22.7300  -42.3852 C.3       10 UNK        -0.1800 
     24 N          -0.7255  -20.7624  -43.2027 N.am      10 UNK        -0.5000 
     25 C          -1.7903  -20.0812  -43.6468 C.2       9 UNK         0.5000 
     26 O          -2.7603  -20.6113  -44.1908 O.2       9 UNK        -0.5000 
     27 CA         -1.7513  -18.5538  -43.4751 C.3       9 UNK         0.1400 
     28 CB         -1.8626  -18.1604  -41.9933 C.3       9 UNK        -0.1800 
     29 N          -0.5643  -17.9229  -44.0549 N.am      9 UNK        -0.5000 
     30 C          -0.2816  -17.8797  -45.3643 C.2       8 UNK         0.5000 
     31 O          -0.8916  -18.5239  -46.2135 O.2       8 UNK        -0.5000 
     32 CA          0.8643  -16.9587  -45.8043 C.3       8 UNK         0.1400 
     33 CB          0.4925  -15.4845  -45.5807 C.3       8 UNK        -0.1800 
     34 N           2.0817  -17.2765  -45.0669 N.am      8 UNK        -0.5000 
     35 C           3.1875  -17.8028  -45.6101 C.2       7 UNK         0.5000 
     36 O           3.3575  -17.9471  -46.8202 O.2       7 UNK        -0.5000 
     37 CA          4.2923  -18.2829  -44.6441 C.3       7 UNK         0.1400 
     38 CB          5.4252  -17.2481  -44.5664 C.3       7 UNK        -0.1800 
     39 N           3.8296  -18.5736  -43.2847 N.am      7 UNK        -0.5000 
     40 C           2.8876  -19.4657  -42.9477 C.2       6 UNK         0.5000 
     41 O           2.3061  -20.1915  -43.7546 O.2       6 UNK        -0.5000 
     42 CA          2.4627  -19.4908  -41.4653 C.3       6 UNK         0.1400 
     43 CB          3.2927  -20.5225  -40.6879 C.3       6 UNK        -0.1800 
     44 N           2.5430  -18.1927  -40.7823 N.am      6 UNK        -0.5000 
     45 C           1.9635  -17.0544  -41.1889 C.2       5 UNK         0.5000 
     46 O           1.3336  -16.9471  -42.2455 O.2       5 UNK        -0.5000 
     47 CA          2.1721  -15.8226  -40.2914 C.3       5 UNK         0.1400 
     48 CB          3.6055  -15.2888  -40.4382 C.3       5 UNK        -0.1800 
     49 N           1.2390  -14.7569  -40.6479 N.am      5 UNK        -0.5000 
     50 C          -0.0608  -14.7313  -40.3269 C.2       4 UNK         0.5000 
     51 O          -0.5929  -15.5652  -39.5919 O.2       4 UNK        -0.5000 
     52 CA         -0.9132  -13.6046  -40.9534 C.3       4 UNK         0.1400 
     53 CB         -2.0090  -13.0906  -39.9966 C.3       4 UNK        -0.1800 
     54 N          -0.1298  -12.4900  -41.5059 N.am      4 UNK        -0.5000 
     55 C           0.6516  -11.6222  -40.8478 C.2       3 UNK         0.5000 
     56 O           0.8300  -11.6469  -39.6290 O.2       3 UNK        -0.5000 
     57 CA          1.3833  -10.5794  -41.7207 C.3       3 UNK         0.1400 
     58 CB          2.1775   -9.5590  -40.8850 C.3       3 UNK        -0.1800 
     59 N           2.2947  -11.2021  -42.6863 N.am      3 UNK        -0.5000 
     60 C           1.9312  -11.7968  -43.8284 C.2       2 UNK         0.5000 
     61 O           0.7558  -11.9399  -44.1810 O.2       2 UNK        -0.5000 
     62 CA          3.0636  -12.3359  -44.7129 C.3       2 UNK         0.1400 
     63 CB          3.5770  -13.6953  -44.2083 C.3       2 UNK        -0.1800 
     64 N           2.5432  -12.4663  -46.0664 N.am      2 UNK        -0.5000 
     65 C           3.2471  -12.3715  -47.1988 C.2       1 UNK         0.5000 
     66 O           4.4747  -12.2690  -47.2253 O.2       1 UNK        -0.5000 
     67 C          -0.7038  -21.9093  -47.7530 C.2       11 UNK         0.5000 
     68 O          -0.9272  -22.8223  -48.5470 O.2       11 UNK        -0.5000 
     69 N          -1.5850  -20.9366  -47.4764 N.am      12 UNK        -0.5000 
     70 CA         -2.9251  -20.8448  -48.0500 C.3       12 UNK         0.1400 
     71 CB         -3.5828  -19.5154  -47.6557 C.3       12 UNK        -0.1800 
     72 C          -3.8212  -22.0298  -47.6593 C.2       12 UNK         0.5000 
     73 O          -4.5384  -22.5388  -48.5190 O.2       12 UNK        -0.5000 
     74 N          -3.7479  -22.4725  -46.3960 N.am      13 UNK        -0.5000 
     75 CA         -4.4670  -23.6472  -45.8972 C.3       13 UNK         0.1400 
     76 CB         -4.2797  -23.7724  -44.3782 C.3       13 UNK        -0.1800 
     77 C          -4.0511  -24.9439  -46.6181 C.2       13 UNK         0.5000 
     78 O          -4.9206  -25.6984  -47.0568 O.2       13 UNK        -0.5000 
     79 N          -2.7355  -25.1468  -46.7830 N.am      14 UNK        -0.5000 
     80 CA         -2.1471  -26.2538  -47.5422 C.3       14 UNK         0.1400 
     81 CB         -0.6237  -26.2547  -47.3454 C.3       14 UNK        -0.1800 
     82 C          -2.5026  -26.2115  -49.0415 C.2       14 UNK         0.5000 
     83 O          -2.7013  -27.2626  -49.6506 O.2       14 UNK        -0.5000 
     84 N          -2.6258  -24.9978  -49.5929 N.am      15 UNK        -0.5000 
     85 CA         -3.0592  -24.7148  -50.9611 C.3       15 UNK         0.1400 
     86 CB         -2.4275  -23.3886  -51.4159 C.3       15 UNK        -0.1800 
     87 C          -4.5947  -24.7120  -51.1429 C.2       15 UNK         0.5000 
     88 O          -5.0720  -24.1896  -52.1506 O.2       15 UNK        -0.5000 
     89 N          -5.3417  -25.2936  -50.1913 N.am      16 UNK        -0.5000 
     90 CA         -6.7952  -25.4914  -50.2041 C.3       16 UNK         0.1400 
     91 CB         -7.1991  -26.4718  -51.3261 C.3       16 UNK        -0.1800 
     92 C          -7.5708  -24.1604  -50.2556 C.2       16 UNK         0.5000 
     93 O          -8.3904  -23.9485  -51.1510 O.2       16 UNK        -0.5000 
     94 N          -7.2651  -23.2828  -49.2898 N.am      17 UNK        -0.5000 
     95 CA         -7.7377  -21.9001  -49.1641 C.3       17 UNK         0.1400 
     96 CB         -9.2692  -21.8304  -48.9861 C.3       17 UNK        -0.1800 
     97 C          -7.2060  -21.0290  -50.3182 C.2       17 UNK         0.5000 
     98 O          -7.9720  -20.3415  -50.9941 O.2       17 UNK        -0.5000 
     99 N          -5.8864  -21.1235  -50.5329 N.am      18 UNK        -0.5000 
    100 CA        -5.0442  -20.4453  -51.5253 C.3       18 UNK         0.1400 
    101 CB        -5.1513  -18.9142  -51.3902 C.3       18 UNK        -0.1800 
    102 C         -5.2514  -20.8866  -52.9869 C.2       18 UNK         0.5000 
    103 O         -4.3436  -20.6845  -53.7930 O.2       18 UNK        -0.5000 
    104 N         -6.4095  -21.4746  -53.3075 N.am      19 UNK        -0.5000 
    105 CA        -6.8927  -21.7942  -54.6513 C.3       19 UNK         0.1400 
    106 CB        -8.2511  -22.5007  -54.5308 C.3       19 UNK        -0.1800 
    107 C         -5.9380  -22.6217  -55.5315 C.2       19 UNK         0.5000 
    108 O         -5.8598  -22.3626  -56.7331 O.2       19 UNK        -0.5000 
    109 N         -5.2199  -23.5836  -54.9378 N.am      20 UNK        -0.5000 
    110 CA        -4.2938  -24.4616  -55.6576 C.3       20 UNK         0.1400 
    111 CB        -4.0175  -25.7140  -54.8119 C.3       20 UNK        -0.1800 
    112 C         -2.9694  -23.7748  -56.0451 C.2       20 UNK         0.5000 
    113 O         -2.2859  -24.2659  -56.9447 O.2       20 UNK        -0.5000 
    114 N         -2.6217  -22.6769  -55.3615 N.am      21 UNK        -0.5000 
    115 CA        -1.3753  -21.9372  -55.5582 C.3       21 UNK         0.1400 
    116 CB        -0.7075  -21.7198  -54.1919 C.3       21 UNK        -0.1800 
    117 C         -1.6160  -20.5872  -56.2496 C.2       21 UNK         0.5000 
    118 O         -0.8590  -20.2264  -57.1520 O.2       21 UNK        -0.5000 
    119 N         -2.6495  -19.8660  -55.8036 N.am      22 UNK        -0.5000 
    120 CA        -2.9561  -18.4798  -56.1863 C.3       22 UNK         0.1400 
    121 C         -4.3194  -18.3288  -56.9210 C.2       22 UNK         0.5000 
    122 N         -5.0427  -19.3988  -57.2271 N.am      22 UNK        -0.7600 
    123 O         -4.7255  -17.2155  -57.2434 O.2       22 UNK        -0.5000 
    124 C124       -2.8636  -17.5278  -54.9618 C.3       23 UNK        -0.0398 
    125 S125       -1.2060  -17.5205  -54.1905 S.3       23 UNK        -0.2404 
    126 C126       -1.5711  -18.0752  -52.4934 C.3       23 UNK        -0.0205 
    127 H127       -1.6277  -10.4457  -48.4977 H         1 UNK         0.0600 
    128 H128       -1.4051  -10.8952  -46.8026 H         1 UNK         0.0600 
    129 H129       -1.5195  -12.1485  -48.0413 H         1 UNK         0.0600 
    130 H130        0.4733  -13.0538  -48.4878 H         1 UNK         0.3000 
    131 H131        2.8042  -11.4534  -49.0462 H         1 UNK         0.0600 
    132 H132        2.5330  -13.2864  -50.4705 H         1 UNK         0.0800 
    133 H133        3.8926  -13.7116  -49.4782 H         1 UNK         0.0800 
    134 H134        3.6196  -16.4761  -50.1539 H         1 UNK         0.0800 
    135 H135        2.6818  -15.5610  -51.3081 H         1 UNK         0.0800 
    136 H136        0.2023  -16.1821  -51.6599 H         1 UNK         0.1150 
    137 H137       -0.5006  -20.4066  -51.5534 H         1 UNK         0.1150 
    138 H138        3.0515  -18.7755  -49.7906 H         1 UNK         0.1150 
    139 H139        0.8871  -21.8395  -50.2514 H         1 UNK         0.0800 
    140 H140        2.3561  -21.5358  -51.1328 H         1 UNK         0.0800 
    141 H141        1.0549  -19.8936  -47.8182 H         1 UNK         0.0800 
    142 H142        2.2204  -20.4503  -46.6659 H         1 UNK         0.0800 
    143 H143        1.0976  -22.8638  -47.1095 H         1 UNK         0.0600 
    144 H144        0.7858  -20.9658  -45.0626 H         1 UNK         0.3000 
    145 H145       -1.5284  -22.6726  -43.0152 H         1 UNK         0.0600 
    146 H146        0.3500  -22.3931  -41.3613 H         1 UNK         0.0600 
    147 H147        0.5238  -23.8205  -42.3701 H         1 UNK         0.0600 
    148 H148        1.5037  -22.4043  -42.6966 H         1 UNK         0.0600 
    149 H149        0.0643  -20.2530  -42.8384 H         1 UNK         0.3000 
    150 H150       -2.6231  -18.1483  -43.9930 H         1 UNK         0.0600 
    151 H151       -2.7465  -18.6055  -41.5348 H         1 UNK         0.0600 
    152 H152       -1.9474  -17.0796  -41.8790 H         1 UNK         0.0600 
    153 H153       -0.9945  -18.4861  -41.4192 H         1 UNK         0.0600 
    154 H154        0.0310  -17.4115  -43.4074 H         1 UNK         0.3000 
    155 H155        1.0081  -17.1099  -46.8763 H         1 UNK         0.0600 
    156 H156        1.2567  -14.8336  -45.9998 H         1 UNK         0.0600 
    157 H157        0.3867  -15.2415  -44.5226 H         1 UNK         0.0600 
    158 H158       -0.4478  -15.2369  -46.0746 H         1 UNK         0.0600 
    159 H159        2.0205  -17.2121  -44.0562 H         1 UNK         0.3000 
    160 H160        4.6987  -19.2082  -45.0576 H         1 UNK         0.0600 
    161 H161        5.0920  -16.3243  -44.0929 H         1 UNK         0.0600 
    162 H162        5.7948  -16.9937  -45.5608 H         1 UNK         0.0600 
    163 H163        6.2710  -17.6315  -43.9955 H         1 UNK         0.0600 
    164 H164        4.2335  -18.0161  -42.5470 H         1 UNK         0.3000 
    165 H165        1.4183  -19.8042  -41.4326 H         1 UNK         0.0600 
    166 H166        2.9220  -20.6410  -39.6696 H         1 UNK         0.0600 
    167 H167        3.2482  -21.5033  -41.1630 H         1 UNK         0.0600 
    168 H168        4.3430  -20.2336  -40.6321 H         1 UNK         0.0600 
    169 H169        3.0574  -18.1853  -39.9131 H         1 UNK         0.3000 
    170 H170        2.0032  -16.1108  -39.2518 H         1 UNK         0.0600 
    171 H171        4.3349  -16.0157  -40.0790 H         1 UNK         0.0600 
    172 H172        3.8493  -15.0700  -41.4774 H         1 UNK         0.0600 
    173 H173        3.7492  -14.3761  -39.8593 H         1 UNK         0.0600 
    174 H174        1.5804  -14.0499  -41.2797 H         1 UNK         0.3000 
    175 H175       -1.4162  -14.0614  -41.8069 H         1 UNK         0.0600 
    176 H176       -2.6062  -12.3082  -40.4648 H         1 UNK         0.0600 
    177 H177       -2.6923  -13.8930  -39.7163 H         1 UNK         0.0600 
    178 H178       -1.5874  -12.6866  -39.0759 H         1 UNK         0.0600 
    179 H179       -0.1512  -12.3978  -42.5184 H         1 UNK         0.3000 
    180 H180        0.6169  -10.0278  -42.2696 H         1 UNK         0.0600 
    181 H181        2.9774  -10.0365  -40.3177 H         1 UNK         0.0600 
    182 H182        1.5291   -9.0465  -40.1730 H         1 UNK         0.0600 
    183 H183        2.6265   -8.7944  -41.5193 H         1 UNK         0.0600 
    184 H184        3.2769  -11.1541  -42.4558 H         1 UNK         0.3000 
    185 H185        3.8799  -11.6104  -44.7105 H         1 UNK         0.0600 
    186 H186        4.0900  -13.5801  -43.2541 H         1 UNK         0.0600 
    187 H187        2.7680  -14.4120  -44.0653 H         1 UNK         0.0600 
    188 H188        4.2908  -14.1322  -44.9067 H         1 UNK         0.0600 
    189 H189        1.5323  -12.4865  -46.1167 H         1 UNK         0.3000 
    190 H190       -1.3200  -20.1851  -46.8426 H         1 UNK         0.3000 
    191 H191       -2.8171  -20.8533  -49.1353 H         1 UNK         0.0600 
    192 H192       -3.6474  -19.4038  -46.5728 H         1 UNK         0.0600 
    193 H193       -4.5953  -19.4440  -48.0549 H         1 UNK         0.0600 
    194 H194       -3.0187  -18.6682  -48.0461 H         1 UNK         0.0600 
    195 H195       -3.1714  -21.9671  -45.7320 H         1 UNK         0.3000 
    196 H196       -5.5296  -23.4868  -46.0910 H         1 UNK         0.0600 
    197 H197       -4.8752  -24.5950  -43.9805 H         1 UNK         0.0600 
    198 H198       -4.5948  -22.8639  -43.8646 H         1 UNK         0.0600 
    199 H199       -3.2410  -23.9648  -44.1127 H         1 UNK         0.0600 
    200 H200       -2.0817  -24.4911  -46.3618 H         1 UNK         0.3000 
    201 H201       -2.5442  -27.1856  -47.1345 H         1 UNK         0.0600 
    202 H202       -0.3630  -26.3630  -46.2924 H         1 UNK         0.0600 
    203 H203       -0.1706  -25.3313  -47.7075 H         1 UNK         0.0600 
    204 H204       -0.1597  -27.0824  -47.8830 H         1 UNK         0.0600 
    205 H205       -2.3842  -24.1907  -49.0277 H         1 UNK         0.3000 
    206 H206       -2.6740  -25.5005  -51.6132 H         1 UNK         0.0600 
    207 H207       -1.3392  -23.4400  -51.3807 H         1 UNK         0.0600 
    208 H208       -2.7066  -23.1422  -52.4403 H         1 UNK         0.0600 
    209 H209       -2.7392  -22.5641  -50.7783 H         1 UNK         0.0600 
    210 H210       -4.8659  -25.6409  -49.3688 H         1 UNK         0.3000 
    211 H211       -7.0496  -25.9601  -49.2523 H         1 UNK         0.0600 
    212 H212       -7.0047  -26.0606  -52.3174 H         1 UNK         0.0600 
    213 H213       -8.2630  -26.7058  -51.2738 H         1 UNK         0.0600 
    214 H214       -6.6552  -27.4125  -51.2415 H         1 UNK         0.0600 
    215 H215       -6.5027  -23.5278  -48.6700 H         1 UNK         0.3000 
    216 H216       -7.2872  -21.5060  -48.2518 H         1 UNK         0.0600 
    217 H217       -9.5854  -20.8117  -48.7597 H         1 UNK         0.0600 
    218 H218       -9.5993  -22.4636  -48.1627 H         1 UNK         0.0600 
    219 H219       -9.8031  -22.1416  -49.8841 H         1 UNK         0.0600 
    220 H220       -5.3840  -21.7624  -49.9195 H         1 UNK         0.3000 
    221 H221       -4.0186  -20.7161  -51.2778 H         1 UNK         0.0600 
    222 H222       -6.1521  -18.5514  -51.6240 H         1 UNK         0.0600 
    223 H223       -4.9020  -18.5872  -50.3812 H         1 UNK         0.0600 
    224 H224       -4.4664  -18.4114  -52.0708 H         1 UNK         0.0600 
    225 H225       -7.0796  -21.5939  -52.5595 H         1 UNK         0.3000 
    226 H226       -7.0511  -20.8418  -55.1607 H         1 UNK         0.0600 
    227 H227       -8.6657  -22.7274  -55.5140 H         1 UNK         0.0600 
    228 H228       -8.1640  -23.4409  -53.9842 H         1 UNK         0.0600 
    229 H229       -8.9763  -21.8768  -54.0079 H         1 UNK         0.0600 
    230 H230       -5.3060  -23.7275  -53.9325 H         1 UNK         0.3000 
    231 H231       -4.7785  -24.7848  -56.5814 H         1 UNK         0.0600 
    232 H232       -4.9437  -26.1926  -54.4930 H         1 UNK         0.0600 
    233 H233       -3.4370  -25.4746  -53.9218 H         1 UNK         0.0600 
    234 H234       -3.4488  -26.4498  -55.3816 H         1 UNK         0.0600 
    235 H235       -3.2722  -22.3060  -54.6797 H         1 UNK         0.3000 
    236 H236       -0.6809  -22.5063  -56.1798 H         1 UNK         0.0600 
    237 H237        0.1960  -21.1155  -54.2839 H         1 UNK         0.0600 
    238 H238       -1.3786  -21.2070  -53.5035 H         1 UNK         0.0600 
    239 H239       -0.4210  -22.6685  -53.7384 H         1 UNK         0.0600 
    240 H240       -3.2373  -20.2402  -55.0605 H         1 UNK         0.3000 
    241 H241       -2.2179  -18.1368  -56.9130 H         1 UNK         0.0600 
    242 H242       -4.7304  -20.3296  -56.9931 H         1 UNK         0.3800 
    243 H243       -5.9150  -19.2786  -57.7165 H         1 UNK         0.3800 
    244 H244       -3.0832  -16.5008  -55.2580 H         1 UNK         0.0800 
    245 H245       -3.6171  -17.7958  -54.2205 H         1 UNK         0.0800 
    246 H246       -2.2013  -17.3370  -51.9958 H         1 UNK         0.0800 
    247 H247       -2.1424  -19.0036  -52.5370 H         1 UNK         0.0800 
@<TRIPOS>BOND
     1    1    2 1    
     2    1  127 1    
     3    1  128 1    
     4    1  129 1    
     5    2    3 2    
     6    2    4 am   BACKBONE|DICT|INTERRES
     7    4    5 1    
     8    4  130 1    
     9    5    6 1    
    10    5   65 1    
    11    5  131 1    
    12    6    7 1    
    13    6  132 1    
    14    6  133 1    
    15    7    8 1    
    16    8    9 1    
    17    8  134 1    
    18    8  135 1    
    19    9   10 ar   
    20    9   14 ar   
    21   10   11 ar   
    22   10  136 1    
    23   11   12 ar   
    24   11  126 1    
    25   12   13 ar   
    26   12  137 1    
    27   13   14 ar   
    28   13   15 1    
    29   14  138 1    
    30   15   16 1    
    31   15  139 1    
    32   15  140 1    
    33   16   17 1    
    34   17   18 1    
    35   17  141 1    
    36   17  142 1    
    37   18   19 1    
    38   18   67 1    
    39   18  143 1    
    40   19   20 am   BACKBONE|DICT|INTERRES
    41   19  144 1    
    42   20   21 2    
    43   20   22 1    
    44   22   23 1    
    45   22   24 1    
    46   22  145 1    
    47   23  146 1    
    48   23  147 1    
    49   23  148 1    
    50   24   25 am   BACKBONE|DICT|INTERRES
    51   24  149 1    
    52   25   26 2    
    53   25   27 1    
    54   27   28 1    
    55   27   29 1    
    56   27  150 1    
    57   28  151 1    
    58   28  152 1    
    59   28  153 1    
    60   29   30 am   BACKBONE|DICT|INTERRES
    61   29  154 1    
    62   30   31 2    
    63   30   32 1    
    64   32   33 1    
    65   32   34 1    
    66   32  155 1    
    67   33  156 1    
    68   33  157 1    
    69   33  158 1    
    70   34   35 am   BACKBONE|DICT|INTERRES
    71   34  159 1    
    72   35   36 2    
    73   35   37 1    
    74   37   38 1    
    75   37   39 1    
    76   37  160 1    
    77   38  161 1    
    78   38  162 1    
    79   38  163 1    
    80   39   40 am   BACKBONE|DICT|INTERRES
    81   39  164 1    
    82   40   41 2    
    83   40   42 1    
    84   42   43 1    
    85   42   44 1    
    86   42  165 1    
    87   43  166 1    
    88   43  167 1    
    89   43  168 1    
    90   44   45 am   BACKBONE|DICT|INTERRES
    91   44  169 1    
    92   45   46 2    
    93   45   47 1    
    94   47   48 1    
    95   47   49 1    
    96   47  170 1    
    97   48  171 1    
    98   48  172 1    
    99   48  173 1    
   100   49   50 am   BACKBONE|DICT|INTERRES
   101   49  174 1    
   102   50   51 2    
   103   50   52 1    
   104   52   53 1    
   105   52   54 1    
   106   52  175 1    
   107   53  176 1    
   108   53  177 1    
   109   53  178 1    
   110   54   55 am   BACKBONE|DICT|INTERRES
   111   54  179 1    
   112   55   56 2    
   113   55   57 1    
   114   57   58 1    
   115   57   59 1    
   116   57  180 1    
   117   58  181 1    
   118   58  182 1    
   119   58  183 1    
   120   59   60 am   BACKBONE|DICT|INTERRES
   121   59  184 1    
   122   60   61 2    
   123   60   62 1    
   124   62   63 1    
   125   62   64 1    
   126   62  185 1    
   127   63  186 1    
   128   63  187 1    
   129   63  188 1    
   130   64   65 am   BACKBONE|DICT|INTERRES
   131   64  189 1    
   132   65   66 2    
   133   67   68 2    
   134   67   69 am   BACKBONE|DICT|INTERRES
   135   69   70 1    
   136   69  190 1    
   137   70   71 1    
   138   70   72 1    
   139   70  191 1    
   140   71  192 1    
   141   71  193 1    
   142   71  194 1    
   143   72   73 2    
   144   72   74 am   BACKBONE|DICT|INTERRES
   145   74   75 1    
   146   74  195 1    
   147   75   76 1    
   148   75   77 1    
   149   75  196 1    
   150   76  197 1    
   151   76  198 1    
   152   76  199 1    
   153   77   78 2    
   154   77   79 am   BACKBONE|DICT|INTERRES
   155   79   80 1    
   156   79  200 1    
   157   80   81 1    
   158   80   82 1    
   159   80  201 1    
   160   81  202 1    
   161   81  203 1    
   162   81  204 1    
   163   82   83 2    
   164   82   84 am   BACKBONE|DICT|INTERRES
   165   84   85 1    
   166   84  205 1    
   167   85   86 1    
   168   85   87 1    
   169   85  206 1    
   170   86  207 1    
   171   86  208 1    
   172   86  209 1    
   173   87   88 2    
   174   87   89 am   BACKBONE|DICT|INTERRES
   175   89   90 1    
   176   89  210 1    
   177   90   91 1    
   178   90   92 1    
   179   90  211 1    
   180   91  212 1    
   181   91  213 1    
   182   91  214 1    
   183   92   93 2    
   184   92   94 am   BACKBONE|DICT|INTERRES
   185   94   95 1    
   186   94  215 1    
   187   95   96 1    
   188   95   97 1    
   189   95  216 1    
   190   96  217 1    
   191   96  218 1    
   192   96  219 1    
   193   97   98 2    
   194   97   99 am   BACKBONE|DICT|INTERRES
   195   99  100 1    
   196   99  220 1    
   197  100  101 1    
   198  100  102 1    
   199  100  221 1    
   200  101  222 1    
   201  101  223 1    
   202  101  224 1    
   203  102  103 2    
   204  102  104 am   BACKBONE|DICT|INTERRES
   205  104  105 1    
   206  104  225 1    
   207  105  106 1    
   208  105  107 1    
   209  105  226 1    
   210  106  227 1    
   211  106  228 1    
   212  106  229 1    
   213  107  108 2    
   214  107  109 am   BACKBONE|DICT|INTERRES
   215  109  110 1    
   216  109  230 1    
   217  110  111 1    
   218  110  112 1    
   219  110  231 1    
   220  111  232 1    
   221  111  233 1    
   222  111  234 1    
   223  112  113 2    
   224  112  114 am   BACKBONE|DICT|INTERRES
   225  114  115 1    
   226  114  235 1    
   227  115  116 1    
   228  115  117 1    
   229  115  236 1    
   230  116  237 1    
   231  116  238 1    
   232  116  239 1    
   233  117  118 2    
   234  117  119 am   BACKBONE|DICT|INTERRES
   235  119  120 1    
   236  119  240 1    
   237  120  121 1    
   238  120  124 1    
   239  120  241 1    
   240  121  122 am   BACKBONE|DICT|INTERRES
   241  121  123 2    
   242  122  242 1    
   243  122  243 1    
   244  124  125 1    
   245  124  244 1    
   246  124  245 1    
   247  125  126 1    
   248  126  246 1    
   249  126  247 1    
@<TRIPOS>SUBSTRUCTURE
     1 UNK         1 GROUP             0       ****    0 ROOT    
