@<TRIPOS>MOLECULE
3R540
247   249    1
SMALL
USER_CHARGES


@<TRIPOS>ATOM
      1 CA          4.1338  -12.7939  -51.0626 C.3       0 UNK        -0.1800 
      2 C           3.1303  -13.2104  -49.9982 C.2       0 UNK         0.5000 
      3 O           3.5034  -13.3924  -48.8386 O.2       0 UNK        -0.5000 
      4 N           1.8512  -13.3460  -50.3732 N.am      1 UNK        -0.5000 
      5 CA          0.7663  -13.7867  -49.4855 C.3       1 UNK         0.1400 
      6 C6         -0.5389  -14.1126  -50.2477 C.3       23 UNK        -0.0398 
      7 S7         -0.3385  -15.5028  -51.4151 S.3       23 UNK        -0.2404 
      8 C8         -0.2090  -16.9415  -50.2988 C.3       23 UNK        -0.0205 
      9 C9         -1.4792  -17.1723  -49.4951 C.ar      23 UNK        -0.0193 
     10 C10        -2.5508  -17.8551  -50.0729 C.ar      23 UNK        -0.1150 
     11 C11        -3.7213  -18.0879  -49.3473 C.ar      23 UNK        -0.0193 
     12 C12        -3.8136  -17.6306  -48.0297 C.ar      23 UNK        -0.1150 
     13 C13        -2.7518  -16.9365  -47.4416 C.ar      23 UNK        -0.0193 
     14 C14        -1.5841  -16.7165  -48.1770 C.ar      23 UNK        -0.1150 
     15 C15        -2.8722  -16.4107  -46.0184 C.3       23 UNK        -0.0205 
     16 S16        -1.9781  -17.4457  -44.8165 S.3       23 UNK        -0.2404 
     17 C17        -2.8292  -19.0465  -44.9845 C.3       23 UNK        -0.0398 
     18 CA         -1.9926  -20.0448  -45.8155 C.3       11 UNK         0.1400 
     19 N          -0.6955  -20.3383  -45.1995 N.am      11 UNK        -0.5000 
     20 C           0.2907  -21.0287  -45.7863 C.2       10 UNK         0.5000 
     21 O           0.2365  -21.4615  -46.9361 O.2       10 UNK        -0.5000 
     22 CA          1.5177  -21.3434  -44.9168 C.3       10 UNK         0.1400 
     23 CB          2.5001  -20.1614  -44.8999 C.3       10 UNK        -0.1800 
     24 N           1.1237  -21.6963  -43.5516 N.am      10 UNK        -0.5000 
     25 C           0.5191  -22.8495  -43.2255 C.2       9 UNK         0.5000 
     26 O           0.2775  -23.7422  -44.0378 O.2       9 UNK        -0.5000 
     27 CA          0.0748  -23.0276  -41.7605 C.3       9 UNK         0.1400 
     28 CB          1.2138  -23.6276  -40.9232 C.3       9 UNK        -0.1800 
     29 N          -0.3751  -21.7826  -41.1382 N.am      9 UNK        -0.5000 
     30 C          -1.4507  -21.0793  -41.5199 C.2       8 UNK         0.5000 
     31 O          -2.2220  -21.4430  -42.4071 O.2       8 UNK        -0.5000 
     32 CA         -1.6690  -19.7141  -40.8343 C.3       8 UNK         0.1400 
     33 CB         -2.6106  -19.8618  -39.6304 C.3       8 UNK        -0.1800 
     34 N          -0.4277  -19.0585  -40.4022 N.am      8 UNK        -0.5000 
     35 C           0.5806  -18.7313  -41.2213 C.2       7 UNK         0.5000 
     36 O           0.5671  -18.9646  -42.4300 O.2       7 UNK        -0.5000 
     37 CA          1.8121  -18.0784  -40.5801 C.3       7 UNK         0.1400 
     38 CB          3.1153  -18.6927  -41.1204 C.3       7 UNK        -0.1800 
     39 N           1.8019  -16.6510  -40.8777 N.am      7 UNK        -0.5000 
     40 C           1.8714  -15.6698  -39.9670 C.2       6 UNK         0.5000 
     41 O           1.9496  -15.8747  -38.7547 O.2       6 UNK        -0.5000 
     42 CA          1.8638  -14.2094  -40.4721 C.3       6 UNK         0.1400 
     43 CB          3.2864  -13.6294  -40.4514 C.3       6 UNK        -0.1800 
     44 N           1.3149  -14.0510  -41.8180 N.am      6 UNK        -0.5000 
     45 C           0.0294  -14.2372  -42.1479 C.2       5 UNK         0.5000 
     46 O          -0.8580  -14.4462  -41.3198 O.2       5 UNK        -0.5000 
     47 CA         -0.3330  -14.2102  -43.6482 C.3       5 UNK         0.1400 
     48 CB         -1.0110  -12.8796  -44.0092 C.3       5 UNK        -0.1800 
     49 N           0.7825  -14.4393  -44.5740 N.am      5 UNK        -0.5000 
     50 C           1.6410  -15.4712  -44.5640 C.2       4 UNK         0.5000 
     51 O           1.5877  -16.3986  -43.7605 O.2       4 UNK        -0.5000 
     52 CA          2.8037  -15.4289  -45.5734 C.3       4 UNK         0.1400 
     53 CB          2.4566  -16.2547  -46.8194 C.3       4 UNK        -0.1800 
     54 N           3.1937  -14.0691  -45.9639 N.am      4 UNK        -0.5000 
     55 C           3.6749  -13.1404  -45.1209 C.2       3 UNK         0.5000 
     56 O           3.8377  -13.3305  -43.9149 O.2       3 UNK        -0.5000 
     57 CA          3.9876  -11.7583  -45.7168 C.3       3 UNK         0.1400 
     58 CB          5.3608  -11.7537  -46.4064 C.3       3 UNK        -0.1800 
     59 N           2.9542  -11.3550  -46.6696 N.am      3 UNK        -0.5000 
     60 C           1.8139  -10.7378  -46.3271 C.2       2 UNK         0.5000 
     61 O           1.5590  -10.3618  -45.1829 O.2       2 UNK        -0.5000 
     62 CA          0.7717  -10.5126  -47.4419 C.3       2 UNK         0.1400 
     63 CB          0.9573   -9.1280  -48.0806 C.3       2 UNK        -0.1800 
     64 N           0.8176  -11.5330  -48.4907 N.am      2 UNK        -0.5000 
     65 C           0.5018  -12.8233  -48.3103 C.2       1 UNK         0.5000 
     66 O           0.0734  -13.2764  -47.2497 O.2       1 UNK        -0.5000 
     67 C          -2.7945  -21.3305  -46.0895 C.2       11 UNK         0.5000 
     68 O          -3.3542  -21.4745  -47.1759 O.2       11 UNK        -0.5000 
     69 N          -2.7996  -22.2585  -45.1213 N.am      12 UNK        -0.5000 
     70 CA         -3.4111  -23.5811  -45.2445 C.3       12 UNK         0.1400 
     71 CB         -3.3681  -24.3014  -43.8889 C.3       12 UNK        -0.1800 
     72 C          -2.7534  -24.4337  -46.3437 C.2       12 UNK         0.5000 
     73 O          -3.4671  -25.0399  -47.1414 O.2       12 UNK        -0.5000 
     74 N          -1.4131  -24.4306  -46.3966 N.am      13 UNK        -0.5000 
     75 CA         -0.6273  -25.0994  -47.4351 C.3       13 UNK         0.1400 
     76 CB          0.8647  -25.0456  -47.0751 C.3       13 UNK        -0.1800 
     77 C          -0.8752  -24.5155  -48.8380 C.2       13 UNK         0.5000 
     78 O          -1.0219  -25.2797  -49.7909 O.2       13 UNK        -0.5000 
     79 N          -0.9538  -23.1803  -48.9323 N.am      14 UNK        -0.5000 
     80 CA         -1.2863  -22.4465  -50.1525 C.3       14 UNK         0.1400 
     81 CB         -1.0968  -20.9418  -49.9188 C.3       14 UNK        -0.1800 
     82 C          -2.7055  -22.7609  -50.6580 C.2       14 UNK         0.5000 
     83 O          -2.8746  -23.0596  -51.8425 O.2       14 UNK        -0.5000 
     84 N          -3.6884  -22.7326  -49.7467 N.am      15 UNK        -0.5000 
     85 CA         -5.0865  -23.0798  -50.0095 C.3       15 UNK         0.1400 
     86 CB         -5.9315  -22.7921  -48.7595 C.3       15 UNK        -0.1800 
     87 C          -5.2772  -24.5408  -50.4581 C.2       15 UNK         0.5000 
     88 O          -6.1328  -24.8060  -51.3036 O.2       15 UNK        -0.5000 
     89 N          -4.4570  -25.4573  -49.9247 N.am      16 UNK        -0.5000 
     90 CA         -4.4100  -26.8822  -50.2634 C.3       16 UNK         0.1400 
     91 CB         -3.7164  -27.6472  -49.1222 C.3       16 UNK        -0.1800 
     92 C          -3.7662  -27.1556  -51.6425 C.2       16 UNK         0.5000 
     93 O          -2.8179  -27.9344  -51.7473 O.2       16 UNK        -0.5000 
     94 N          -4.3124  -26.5076  -52.6788 N.am      17 UNK        -0.5000 
     95 CA         -4.0455  -26.6556  -54.1136 C.3       17 UNK         0.1400 
     96 CB         -4.3476  -28.0952  -54.5772 C.3       17 UNK        -0.1800 
     97 C          -2.6624  -26.1828  -54.6094 C.2       17 UNK         0.5000 
     98 O          -2.4469  -26.1858  -55.8224 O.2       17 UNK        -0.5000 
     99 N          -1.7546  -25.7719  -53.7118 N.am      18 UNK        -0.5000 
    100 CA        -0.4205  -25.2794  -54.0716 C.3       18 UNK         0.1400 
    101 CB         0.4791  -25.2484  -52.8293 C.3       18 UNK        -0.1800 
    102 C         -0.4736  -23.9014  -54.7572 C.2       18 UNK         0.5000 
    103 O          0.2313  -23.6845  -55.7437 O.2       18 UNK        -0.5000 
    104 N         -1.3398  -23.0207  -54.2438 N.am      19 UNK        -0.5000 
    105 CA        -1.7340  -21.7588  -54.8690 C.3       19 UNK         0.1400 
    106 CB        -1.4250  -20.5941  -53.9153 C.3       19 UNK        -0.1800 
    107 C         -3.2334  -21.7843  -55.2103 C.2       19 UNK         0.5000 
    108 O         -3.6273  -21.2321  -56.2385 O.2       19 UNK        -0.5000 
    109 N         -4.0352  -22.4318  -54.3480 N.am      20 UNK        -0.5000 
    110 CA        -5.4944  -22.5744  -54.3693 C.3       20 UNK         0.1400 
    111 CB        -5.9948  -23.2411  -55.6668 C.3       20 UNK        -0.1800 
    112 C         -6.2173  -21.2460  -54.0855 C.2       20 UNK         0.5000 
    113 O         -6.9254  -21.1401  -53.0839 O.2       20 UNK        -0.5000 
    114 N         -6.0041  -20.2545  -54.9561 N.am      21 UNK        -0.5000 
    115 CA        -6.4429  -18.8752  -54.7780 C.3       21 UNK         0.1400 
    116 CB        -6.5132  -18.1961  -56.1542 C.3       21 UNK        -0.1800 
    117 C         -5.4695  -18.1254  -53.8533 C.2       21 UNK         0.5000 
    118 O         -4.2666  -18.3977  -53.8791 O.2       21 UNK        -0.5000 
    119 N         -6.0060  -17.1828  -53.0732 N.am      22 UNK        -0.5000 
    120 CA        -5.2459  -16.3626  -52.1138 C.3       22 UNK         0.1400 
    121 C         -4.8743  -14.9485  -52.6497 C.2       22 UNK         0.5000 
    122 N         -5.1896  -14.6021  -53.8921 N.am      22 UNK        -0.7600 
    123 O         -4.2812  -14.1495  -51.9307 O.2       22 UNK        -0.5000 
    124 C124       -5.9575  -16.2770  -50.7368 C.3       23 UNK        -0.0398 
    125 S125       -6.4364  -17.8847  -50.0013 S.3       23 UNK        -0.2404 
    126 C126       -4.8786  -18.8372  -49.9926 C.3       23 UNK        -0.0205 
    127 H127        4.6130  -11.8570  -50.7790 H         1 UNK         0.0600 
    128 H128        3.6595  -12.6548  -52.0343 H         1 UNK         0.0600 
    129 H129        4.9063  -13.5558  -51.1659 H         1 UNK         0.0600 
    130 H130        1.5959  -13.1959  -51.3392 H         1 UNK         0.3000 
    131 H131        1.1142  -14.7087  -49.0260 H         1 UNK         0.0600 
    132 H132       -1.3531  -14.3491  -49.5615 H         1 UNK         0.0800 
    133 H133       -0.8752  -13.2407  -50.8110 H         1 UNK         0.0800 
    134 H134        0.6498  -16.8328  -49.6366 H         1 UNK         0.0800 
    135 H135       -0.0022  -17.8269  -50.9019 H         1 UNK         0.0800 
    136 H136       -2.4698  -18.2052  -51.0927 H         1 UNK         0.1150 
    137 H137       -4.7206  -17.8062  -47.4689 H         1 UNK         0.1150 
    138 H138       -0.7636  -16.1818  -47.7210 H         1 UNK         0.1150 
    139 H139       -2.4705  -15.3970  -45.9754 H         1 UNK         0.0800 
    140 H140       -3.9195  -16.3352  -45.7220 H         1 UNK         0.0800 
    141 H141       -3.8110  -18.8885  -45.4329 H         1 UNK         0.0800 
    142 H142       -3.0177  -19.4379  -43.9845 H         1 UNK         0.0800 
    143 H143       -1.7897  -19.5888  -46.7868 H         1 UNK         0.0600 
    144 H144       -0.5474  -19.9855  -44.2625 H         1 UNK         0.3000 
    145 H145        2.0322  -22.2006  -45.3564 H         1 UNK         0.0600 
    146 H146        3.3589  -20.3685  -44.2614 H         1 UNK         0.0600 
    147 H147        2.8797  -19.9619  -45.9026 H         1 UNK         0.0600 
    148 H148        2.0313  -19.2432  -44.5452 H         1 UNK         0.0600 
    149 H149        1.2048  -20.9640  -42.8576 H         1 UNK         0.3000 
    150 H150       -0.7620  -23.7288  -41.7507 H         1 UNK         0.0600 
    151 H151        1.5572  -24.5706  -41.3509 H         1 UNK         0.0600 
    152 H152        0.8877  -23.8345  -39.9038 H         1 UNK         0.0600 
    153 H153        2.0732  -22.9577  -40.8726 H         1 UNK         0.0600 
    154 H154        0.2014  -21.4092  -40.3990 H         1 UNK         0.3000 
    155 H155       -2.1479  -19.0585  -41.5645 H         1 UNK         0.0600 
    156 H156       -2.1704  -20.4818  -38.8484 H         1 UNK         0.0600 
    157 H157       -2.8508  -18.8913  -39.1957 H         1 UNK         0.0600 
    158 H158       -3.5527  -20.3256  -39.9261 H         1 UNK         0.0600 
    159 H159       -0.3548  -18.8342  -39.4201 H         1 UNK         0.3000 
    160 H160        1.7754  -18.2579  -39.5038 H         1 UNK         0.0600 
    161 H161        3.2327  -18.5141  -42.1904 H         1 UNK         0.0600 
    162 H162        3.1362  -19.7716  -40.9617 H         1 UNK         0.0600 
    163 H163        3.9851  -18.2714  -40.6163 H         1 UNK         0.0600 
    164 H164        1.6948  -16.4203  -41.8641 H         1 UNK         0.3000 
    165 H165        1.2475  -13.6276  -39.7837 H         1 UNK         0.0600 
    166 H166        3.2897  -12.5795  -40.7450 H         1 UNK         0.0600 
    167 H167        3.7199  -13.6889  -39.4522 H         1 UNK         0.0600 
    168 H168        3.9485  -14.1688  -41.1302 H         1 UNK         0.0600 
    169 H169        1.9830  -13.8847  -42.5601 H         1 UNK         0.3000 
    170 H170       -1.0558  -15.0079  -43.8054 H         1 UNK         0.0600 
    171 H171       -1.8515  -12.6728  -43.3455 H         1 UNK         0.0600 
    172 H172       -0.3162  -12.0428  -43.9313 H         1 UNK         0.0600 
    173 H173       -1.4029  -12.8986  -45.0260 H         1 UNK         0.0600 
    174 H174        0.8731  -13.7664  -45.3256 H         1 UNK         0.3000 
    175 H175        3.6713  -15.8880  -45.0951 H         1 UNK         0.0600 
    176 H176        1.5090  -15.9388  -47.2492 H         1 UNK         0.0600 
    177 H177        3.2271  -16.1733  -47.5864 H         1 UNK         0.0600 
    178 H178        2.3557  -17.3107  -46.5654 H         1 UNK         0.0600 
    179 H179        3.1388  -13.8422  -46.9519 H         1 UNK         0.3000 
    180 H180        4.0265  -11.0387  -44.8960 H         1 UNK         0.0600 
    181 H181        5.4088  -12.4686  -47.2280 H         1 UNK         0.0600 
    182 H182        6.1499  -12.0147  -45.7003 H         1 UNK         0.0600 
    183 H183        5.5963  -10.7676  -46.8069 H         1 UNK         0.0600 
    184 H184        3.0701  -11.6816  -47.6206 H         1 UNK         0.3000 
    185 H185       -0.2172  -10.5472  -46.9795 H         1 UNK         0.0600 
    186 H186        0.9029   -8.3404  -47.3278 H         1 UNK         0.0600 
    187 H187        1.9240   -9.0403  -48.5783 H         1 UNK         0.0600 
    188 H188        0.1797   -8.9256  -48.8173 H         1 UNK         0.0600 
    189 H189        1.1743  -11.2468  -49.3908 H         1 UNK         0.3000 
    190 H190       -2.3688  -22.0377  -44.2278 H         1 UNK         0.3000 
    191 H191       -4.4583  -23.4368  -45.5182 H         1 UNK         0.0600 
    192 H192       -2.3450  -24.4668  -43.5518 H         1 UNK         0.0600 
    193 H193       -3.8551  -25.2754  -43.9499 H         1 UNK         0.0600 
    194 H194       -3.8845  -23.7263  -43.1202 H         1 UNK         0.0600 
    195 H195       -0.8920  -23.9442  -45.6743 H         1 UNK         0.3000 
    196 H196       -0.9312  -26.1480  -47.4556 H         1 UNK         0.0600 
    197 H197        1.4664  -25.5569  -47.8275 H         1 UNK         0.0600 
    198 H198        1.0568  -25.5324  -46.1189 H         1 UNK         0.0600 
    199 H199        1.2269  -24.0198  -47.0063 H         1 UNK         0.0600 
    200 H200       -0.7579  -22.6196  -48.1074 H         1 UNK         0.3000 
    201 H201       -0.5813  -22.7473  -50.9274 H         1 UNK         0.0600 
    202 H202       -0.0733  -20.7140  -49.6211 H         1 UNK         0.0600 
    203 H203       -1.7601  -20.5649  -49.1407 H         1 UNK         0.0600 
    204 H204       -1.2998  -20.3763  -50.8268 H         1 UNK         0.0600 
    205 H205       -3.4674  -22.4402  -48.7974 H         1 UNK         0.3000 
    206 H206       -5.4403  -22.4361  -50.8176 H         1 UNK         0.0600 
    207 H207       -5.8699  -21.7442  -48.4684 H         1 UNK         0.0600 
    208 H208       -6.9836  -23.0172  -48.9386 H         1 UNK         0.0600 
    209 H209       -5.6065  -23.3923  -47.9091 H         1 UNK         0.0600 
    210 H210       -3.8083  -25.1535  -49.2069 H         1 UNK         0.3000 
    211 H211       -5.4368  -27.2490  -50.3209 H         1 UNK         0.0600 
    212 H212       -2.6838  -27.3233  -48.9911 H         1 UNK         0.0600 
    213 H213       -3.7036  -28.7201  -49.3177 H         1 UNK         0.0600 
    214 H214       -4.2364  -27.4989  -48.1757 H         1 UNK         0.0600 
    215 H215       -5.0639  -25.8636  -52.4445 H         1 UNK         0.3000 
    216 H216       -4.7689  -26.0041  -54.6030 H         1 UNK         0.0600 
    217 H217       -4.2979  -28.1762  -55.6637 H         1 UNK         0.0600 
    218 H218       -5.3486  -28.4050  -54.2771 H         1 UNK         0.0600 
    219 H219       -3.6360  -28.8118  -54.1662 H         1 UNK         0.0600 
    220 H220       -1.9849  -25.8182  -52.7287 H         1 UNK         0.3000 
    221 H221        0.0196  -25.9847  -54.7800 H         1 UNK         0.0600 
    222 H222        0.1060  -24.5516  -52.0822 H         1 UNK         0.0600 
    223 H223        0.5456  -26.2322  -52.3641 H         1 UNK         0.0600 
    224 H224        1.4924  -24.9396  -53.0886 H         1 UNK         0.0600 
    225 H225       -1.8591  -23.2853  -53.4125 H         1 UNK         0.3000 
    226 H226       -1.1827  -21.6000  -55.7981 H         1 UNK         0.0600 
    227 H227       -0.3784  -20.5949  -53.6108 H         1 UNK         0.0600 
    228 H228       -1.6262  -19.6363  -54.3968 H         1 UNK         0.0600 
    229 H229       -2.0400  -20.6370  -53.0166 H         1 UNK         0.0600 
    230 H230       -3.6070  -22.7634  -53.4873 H         1 UNK         0.3000 
    231 H231       -5.7335  -23.2491  -53.5463 H         1 UNK         0.0600 
    232 H232       -7.0558  -23.4812  -55.5910 H         1 UNK         0.0600 
    233 H233       -5.4633  -24.1702  -55.8672 H         1 UNK         0.0600 
    234 H234       -5.8715  -22.5980  -56.5382 H         1 UNK         0.0600 
    235 H235       -5.3118  -20.4204  -55.6805 H         1 UNK         0.3000 
    236 H236       -7.4402  -18.8700  -54.3327 H         1 UNK         0.0600 
    237 H237       -7.2036  -18.7190  -56.8163 H         1 UNK         0.0600 
    238 H238       -6.8643  -17.1674  -56.0664 H         1 UNK         0.0600 
    239 H239       -5.5369  -18.1711  -56.6405 H         1 UNK         0.0600 
    240 H240       -7.0000  -17.0092  -53.1125 H         1 UNK         0.3000 
    241 H241       -4.2797  -16.8339  -51.9417 H         1 UNK         0.0600 
    242 H242       -4.9405  -13.6852  -54.2288 H         1 UNK         0.3800 
    243 H243       -5.6645  -15.2481  -54.5013 H         1 UNK         0.3800 
    244 H244       -5.3228  -15.7589  -50.0154 H         1 UNK         0.0800 
    245 H245       -6.8633  -15.6749  -50.8228 H         1 UNK         0.0800 
    246 H246       -4.6347  -19.1282  -51.0154 H         1 UNK         0.0800 
    247 H247       -5.0364  -19.7666  -49.4458 H         1 UNK         0.0800 
@<TRIPOS>BOND
     1    1    2 1    
     2    1  127 1    
     3    1  128 1    
     4    1  129 1    
     5    2    3 2    
     6    2    4 am   BACKBONE|DICT|INTERRES
     7    4    5 1    
     8    4  130 1    
     9    5    6 1    
    10    5   65 1    
    11    5  131 1    
    12    6    7 1    
    13    6  132 1    
    14    6  133 1    
    15    7    8 1    
    16    8    9 1    
    17    8  134 1    
    18    8  135 1    
    19    9   10 ar   
    20    9   14 ar   
    21   10   11 ar   
    22   10  136 1    
    23   11   12 ar   
    24   11  126 1    
    25   12   13 ar   
    26   12  137 1    
    27   13   14 ar   
    28   13   15 1    
    29   14  138 1    
    30   15   16 1    
    31   15  139 1    
    32   15  140 1    
    33   16   17 1    
    34   17   18 1    
    35   17  141 1    
    36   17  142 1    
    37   18   19 1    
    38   18   67 1    
    39   18  143 1    
    40   19   20 am   BACKBONE|DICT|INTERRES
    41   19  144 1    
    42   20   21 2    
    43   20   22 1    
    44   22   23 1    
    45   22   24 1    
    46   22  145 1    
    47   23  146 1    
    48   23  147 1    
    49   23  148 1    
    50   24   25 am   BACKBONE|DICT|INTERRES
    51   24  149 1    
    52   25   26 2    
    53   25   27 1    
    54   27   28 1    
    55   27   29 1    
    56   27  150 1    
    57   28  151 1    
    58   28  152 1    
    59   28  153 1    
    60   29   30 am   BACKBONE|DICT|INTERRES
    61   29  154 1    
    62   30   31 2    
    63   30   32 1    
    64   32   33 1    
    65   32   34 1    
    66   32  155 1    
    67   33  156 1    
    68   33  157 1    
    69   33  158 1    
    70   34   35 am   BACKBONE|DICT|INTERRES
    71   34  159 1    
    72   35   36 2    
    73   35   37 1    
    74   37   38 1    
    75   37   39 1    
    76   37  160 1    
    77   38  161 1    
    78   38  162 1    
    79   38  163 1    
    80   39   40 am   BACKBONE|DICT|INTERRES
    81   39  164 1    
    82   40   41 2    
    83   40   42 1    
    84   42   43 1    
    85   42   44 1    
    86   42  165 1    
    87   43  166 1    
    88   43  167 1    
    89   43  168 1    
    90   44   45 am   BACKBONE|DICT|INTERRES
    91   44  169 1    
    92   45   46 2    
    93   45   47 1    
    94   47   48 1    
    95   47   49 1    
    96   47  170 1    
    97   48  171 1    
    98   48  172 1    
    99   48  173 1    
   100   49   50 am   BACKBONE|DICT|INTERRES
   101   49  174 1    
   102   50   51 2    
   103   50   52 1    
   104   52   53 1    
   105   52   54 1    
   106   52  175 1    
   107   53  176 1    
   108   53  177 1    
   109   53  178 1    
   110   54   55 am   BACKBONE|DICT|INTERRES
   111   54  179 1    
   112   55   56 2    
   113   55   57 1    
   114   57   58 1    
   115   57   59 1    
   116   57  180 1    
   117   58  181 1    
   118   58  182 1    
   119   58  183 1    
   120   59   60 am   BACKBONE|DICT|INTERRES
   121   59  184 1    
   122   60   61 2    
   123   60   62 1    
   124   62   63 1    
   125   62   64 1    
   126   62  185 1    
   127   63  186 1    
   128   63  187 1    
   129   63  188 1    
   130   64   65 am   BACKBONE|DICT|INTERRES
   131   64  189 1    
   132   65   66 2    
   133   67   68 2    
   134   67   69 am   BACKBONE|DICT|INTERRES
   135   69   70 1    
   136   69  190 1    
   137   70   71 1    
   138   70   72 1    
   139   70  191 1    
   140   71  192 1    
   141   71  193 1    
   142   71  194 1    
   143   72   73 2    
   144   72   74 am   BACKBONE|DICT|INTERRES
   145   74   75 1    
   146   74  195 1    
   147   75   76 1    
   148   75   77 1    
   149   75  196 1    
   150   76  197 1    
   151   76  198 1    
   152   76  199 1    
   153   77   78 2    
   154   77   79 am   BACKBONE|DICT|INTERRES
   155   79   80 1    
   156   79  200 1    
   157   80   81 1    
   158   80   82 1    
   159   80  201 1    
   160   81  202 1    
   161   81  203 1    
   162   81  204 1    
   163   82   83 2    
   164   82   84 am   BACKBONE|DICT|INTERRES
   165   84   85 1    
   166   84  205 1    
   167   85   86 1    
   168   85   87 1    
   169   85  206 1    
   170   86  207 1    
   171   86  208 1    
   172   86  209 1    
   173   87   88 2    
   174   87   89 am   BACKBONE|DICT|INTERRES
   175   89   90 1    
   176   89  210 1    
   177   90   91 1    
   178   90   92 1    
   179   90  211 1    
   180   91  212 1    
   181   91  213 1    
   182   91  214 1    
   183   92   93 2    
   184   92   94 am   BACKBONE|DICT|INTERRES
   185   94   95 1    
   186   94  215 1    
   187   95   96 1    
   188   95   97 1    
   189   95  216 1    
   190   96  217 1    
   191   96  218 1    
   192   96  219 1    
   193   97   98 2    
   194   97   99 am   BACKBONE|DICT|INTERRES
   195   99  100 1    
   196   99  220 1    
   197  100  101 1    
   198  100  102 1    
   199  100  221 1    
   200  101  222 1    
   201  101  223 1    
   202  101  224 1    
   203  102  103 2    
   204  102  104 am   BACKBONE|DICT|INTERRES
   205  104  105 1    
   206  104  225 1    
   207  105  106 1    
   208  105  107 1    
   209  105  226 1    
   210  106  227 1    
   211  106  228 1    
   212  106  229 1    
   213  107  108 2    
   214  107  109 am   BACKBONE|DICT|INTERRES
   215  109  110 1    
   216  109  230 1    
   217  110  111 1    
   218  110  112 1    
   219  110  231 1    
   220  111  232 1    
   221  111  233 1    
   222  111  234 1    
   223  112  113 2    
   224  112  114 am   BACKBONE|DICT|INTERRES
   225  114  115 1    
   226  114  235 1    
   227  115  116 1    
   228  115  117 1    
   229  115  236 1    
   230  116  237 1    
   231  116  238 1    
   232  116  239 1    
   233  117  118 2    
   234  117  119 am   BACKBONE|DICT|INTERRES
   235  119  120 1    
   236  119  240 1    
   237  120  121 1    
   238  120  124 1    
   239  120  241 1    
   240  121  122 am   BACKBONE|DICT|INTERRES
   241  121  123 2    
   242  122  242 1    
   243  122  243 1    
   244  124  125 1    
   245  124  244 1    
   246  124  245 1    
   247  125  126 1    
   248  126  246 1    
   249  126  247 1    
@<TRIPOS>SUBSTRUCTURE
     1 UNK         1 GROUP             0       ****    0 ROOT    
