@<TRIPOS>MOLECULE
3R540
247   249    1
SMALL
USER_CHARGES


@<TRIPOS>ATOM
      1 CA         -5.0168  -17.9993  -48.6568 C.3       0 UNK        -0.1800 
      2 C          -3.9582  -16.9083  -48.5659 C.2       0 UNK         0.5000 
      3 O          -3.8419  -16.0917  -49.4796 O.2       0 UNK        -0.5000 
      4 N          -3.1861  -16.8937  -47.4720 N.am      1 UNK        -0.5000 
      5 CA         -2.1831  -15.8662  -47.1724 C.3       1 UNK         0.1400 
      6 C6         -1.2249  -16.2864  -46.0296 C.3       23 UNK        -0.0398 
      7 S7         -0.3276  -17.8384  -46.3660 S.3       23 UNK        -0.2404 
      8 C8          1.0191  -17.2697  -47.4525 C.3       23 UNK        -0.0205 
      9 C9          0.9451  -17.9577  -48.8052 C.ar      23 UNK        -0.0193 
     10 C10         0.2850  -17.3531  -49.8782 C.ar      23 UNK        -0.1150 
     11 C11         0.1748  -18.0131  -51.1054 C.ar      23 UNK        -0.0193 
     12 C12         0.7354  -19.2851  -51.2569 C.ar      23 UNK        -0.1150 
     13 C13         1.3860  -19.9053  -50.1867 C.ar      23 UNK        -0.0193 
     14 C14         1.5120  -19.2226  -48.9737 C.ar      23 UNK        -0.1150 
     15 C15         1.9232  -21.3229  -50.3290 C.3       23 UNK        -0.0205 
     16 S16         0.6890  -22.5741  -49.8331 S.3       23 UNK        -0.2404 
     17 C17         0.6488  -22.3182  -48.0291 C.3       23 UNK        -0.0398 
     18 CA         -0.2736  -23.2871  -47.2526 C.3       11 UNK         0.1400 
     19 N           0.1779  -23.4086  -45.8650 N.am      11 UNK        -0.5000 
     20 C          -0.2744  -24.2981  -44.9700 C.2       10 UNK         0.5000 
     21 O          -1.1071  -25.1646  -45.2310 O.2       10 UNK        -0.5000 
     22 CA          0.2534  -24.1601  -43.5266 C.3       10 UNK         0.1400 
     23 CB          1.5113  -25.0185  -43.3313 C.3       10 UNK        -0.1800 
     24 N           0.5537  -22.7751  -43.1559 N.am      10 UNK        -0.5000 
     25 C          -0.3391  -21.7749  -43.1376 C.2       9 UNK         0.5000 
     26 O          -1.5431  -21.9424  -43.3297 O.2       9 UNK        -0.5000 
     27 CA          0.2028  -20.3455  -42.9379 C.3       9 UNK         0.1400 
     28 CB         -0.0316  -19.8718  -41.4964 C.3       9 UNK        -0.1800 
     29 N           1.6226  -20.1863  -43.2674 N.am      9 UNK        -0.5000 
     30 C           2.1816  -20.3714  -44.4709 C.2       8 UNK         0.5000 
     31 O           1.5491  -20.7788  -45.4456 O.2       8 UNK        -0.5000 
     32 CA          3.6964  -20.0859  -44.5930 C.3       8 UNK         0.1400 
     33 CB          4.1652  -20.0005  -46.0566 C.3       8 UNK        -0.1800 
     34 N           4.1219  -18.8678  -43.8982 N.am      8 UNK        -0.5000 
     35 C           4.2727  -18.7089  -42.5790 C.2       7 UNK         0.5000 
     36 O           4.0275  -19.5985  -41.7633 O.2       7 UNK        -0.5000 
     37 CA          4.7340  -17.3303  -42.0697 C.3       7 UNK         0.1400 
     38 CB          6.2701  -17.2535  -41.9899 C.3       7 UNK        -0.1800 
     39 N           4.1762  -16.1772  -42.7895 N.am      7 UNK        -0.5000 
     40 C           4.4099  -15.7543  -44.0428 C.2       6 UNK         0.5000 
     41 O           5.1085  -16.3679  -44.8499 O.2       6 UNK        -0.5000 
     42 CA          3.7402  -14.4344  -44.4863 C.3       6 UNK         0.1400 
     43 CB          2.5949  -14.7228  -45.4675 C.3       6 UNK        -0.1800 
     44 N           3.2183  -13.6406  -43.3719 N.am      6 UNK        -0.5000 
     45 C           3.9738  -13.0110  -42.4579 C.2       5 UNK         0.5000 
     46 O           5.1999  -12.9273  -42.5339 O.2       5 UNK        -0.5000 
     47 CA          3.2540  -12.4019  -41.2349 C.3       5 UNK         0.1400 
     48 CB          3.1802  -10.8725  -41.3632 C.3       5 UNK        -0.1800 
     49 N           1.9006  -12.9174  -41.0115 N.am      5 UNK        -0.5000 
     50 C           1.5602  -14.1934  -40.7735 C.2       4 UNK         0.5000 
     51 O           2.3775  -15.1061  -40.6508 O.2       4 UNK        -0.5000 
     52 CA          0.0504  -14.5098  -40.7296 C.3       4 UNK         0.1400 
     53 CB         -0.4315  -14.6341  -39.2767 C.3       4 UNK        -0.1800 
     54 N          -0.7755  -13.5160  -41.4279 N.am      4 UNK        -0.5000 
     55 C          -0.7291  -13.2742  -42.7448 C.2       3 UNK         0.5000 
     56 O          -0.0035  -13.8914  -43.5306 O.2       3 UNK        -0.5000 
     57 CA         -1.5825  -12.1059  -43.2534 C.3       3 UNK         0.1400 
     58 CB         -0.9026  -10.7601  -42.9360 C.3       3 UNK        -0.1800 
     59 N          -1.7476  -12.2558  -44.6926 N.am      3 UNK        -0.5000 
     60 C          -2.6831  -11.6703  -45.4474 C.2       2 UNK         0.5000 
     61 O          -3.5154  -10.8729  -45.0131 O.2       2 UNK        -0.5000 
     62 CA         -2.7016  -12.0510  -46.9413 C.3       2 UNK         0.1400 
     63 CB         -1.8604  -11.0578  -47.7579 C.3       2 UNK        -0.1800 
     64 N          -2.2225  -13.4123  -47.2037 N.am      2 UNK        -0.5000 
     65 C          -2.8643  -14.5263  -46.8249 C.2       1 UNK         0.5000 
     66 O          -3.9304  -14.5237  -46.2036 O.2       1 UNK        -0.5000 
     67 C          -1.7494  -22.8366  -47.3227 C.2       11 UNK         0.5000 
     68 O          -2.5055  -23.3354  -48.1573 O.2       11 UNK        -0.5000 
     69 N          -2.1410  -21.9201  -46.4253 N.am      12 UNK        -0.5000 
     70 CA         -3.5149  -21.4458  -46.2737 C.3       12 UNK         0.1400 
     71 CB         -3.5246  -20.1134  -45.5110 C.3       12 UNK        -0.1800 
     72 C          -4.4099  -22.4895  -45.5890 C.2       12 UNK         0.5000 
     73 O          -5.5385  -22.6935  -46.0339 O.2       12 UNK        -0.5000 
     74 N          -3.8821  -23.1648  -44.5577 N.am      13 UNK        -0.5000 
     75 CA         -4.5608  -24.2423  -43.8305 C.3       13 UNK         0.1400 
     76 CB         -3.7134  -24.6577  -42.6193 C.3       13 UNK        -0.1800 
     77 C          -4.8771  -25.4627  -44.7175 C.2       13 UNK         0.5000 
     78 O          -5.9536  -26.0464  -44.5900 O.2       13 UNK        -0.5000 
     79 N          -3.9521  -25.7971  -45.6275 N.am      14 UNK        -0.5000 
     80 CA         -4.1147  -26.8329  -46.6500 C.3       14 UNK         0.1400 
     81 CB         -2.7220  -27.2300  -47.1666 C.3       14 UNK        -0.1800 
     82 C          -5.0099  -26.4004  -47.8305 C.2       14 UNK         0.5000 
     83 O          -5.3615  -27.2468  -48.6526 O.2       14 UNK        -0.5000 
     84 N          -5.3232  -25.0978  -47.9189 N.am      15 UNK        -0.5000 
     85 CA         -6.0358  -24.4066  -49.0016 C.3       15 UNK         0.1400 
     86 CB         -7.4744  -24.9383  -49.1604 C.3       15 UNK        -0.1800 
     87 C          -5.2628  -24.3793  -50.3382 C.2       15 UNK         0.5000 
     88 O          -5.8393  -24.0403  -51.3719 O.2       15 UNK        -0.5000 
     89 N          -3.9605  -24.6877  -50.2936 N.am      16 UNK        -0.5000 
     90 CA         -3.0402  -24.6435  -51.4265 C.3       16 UNK         0.1400 
     91 CB         -1.7418  -25.3718  -51.0493 C.3       16 UNK        -0.1800 
     92 C          -2.7544  -23.2011  -51.8740 C.2       16 UNK         0.5000 
     93 O          -2.6435  -22.9518  -53.0729 O.2       16 UNK        -0.5000 
     94 N          -2.6980  -22.2724  -50.9079 N.am      17 UNK        -0.5000 
     95 CA         -2.5338  -20.8372  -51.1427 C.3       17 UNK         0.1400 
     96 CB         -2.3504  -20.1153  -49.8004 C.3       17 UNK        -0.1800 
     97 C          -3.7155  -20.2271  -51.9166 C.2       17 UNK         0.5000 
     98 O          -3.5111  -19.3928  -52.7988 O.2       17 UNK        -0.5000 
     99 N          -4.9290  -20.6823  -51.5761 N.am      18 UNK        -0.5000 
    100 CA        -6.1857  -20.2612  -52.1913 C.3       18 UNK         0.1400 
    101 CB        -7.3473  -20.6588  -51.2679 C.3       18 UNK        -0.1800 
    102 C         -6.3906  -20.8408  -53.6033 C.2       18 UNK         0.5000 
    103 O         -7.1027  -20.2356  -54.4051 O.2       18 UNK        -0.5000 
    104 N         -5.7515  -21.9802  -53.9026 N.am      19 UNK        -0.5000 
    105 CA        -5.8221  -22.7035  -55.1753 C.3       19 UNK         0.1400 
    106 CB        -5.4663  -24.1802  -54.9238 C.3       19 UNK        -0.1800 
    107 C         -4.9626  -22.0639  -56.2911 C.2       19 UNK         0.5000 
    108 O         -4.2497  -22.7720  -57.0043 O.2       19 UNK        -0.5000 
    109 N         -5.0563  -20.7330  -56.4260 N.am      20 UNK        -0.5000 
    110 CA        -4.4204  -19.8790  -57.4365 C.3       20 UNK         0.1400 
    111 CB        -5.0160  -20.1643  -58.8312 C.3       20 UNK        -0.1800 
    112 C         -2.8758  -19.9191  -57.4283 C.2       20 UNK         0.5000 
    113 O         -2.2516  -19.7106  -58.4706 O.2       20 UNK        -0.5000 
    114 N         -2.2781  -20.1690  -56.2543 N.am      21 UNK        -0.5000 
    115 CA        -0.8248  -20.1927  -56.0601 C.3       21 UNK         0.1400 
    116 CB        -0.5036  -20.9086  -54.7422 C.3       21 UNK        -0.1800 
    117 C         -0.1888  -18.7889  -56.0840 C.2       21 UNK         0.5000 
    118 O          0.9938  -18.6668  -56.4063 O.2       21 UNK        -0.5000 
    119 N         -0.9866  -17.7665  -55.7589 N.am      22 UNK        -0.5000 
    120 CA        -0.6386  -16.3434  -55.8372 C.3       22 UNK         0.1400 
    121 C         -1.5679  -15.6376  -56.8587 C.2       22 UNK         0.5000 
    122 N         -1.0641  -14.6511  -57.5872 N.am      22 UNK        -0.7600 
    123 O         -2.7513  -15.9523  -56.9745 O.2       22 UNK        -0.5000 
    124 C124       -0.7401  -15.6530  -54.4537 C.3       23 UNK        -0.0398 
    125 S125        0.4710  -16.2963  -53.2491 S.3       23 UNK        -0.2404 
    126 C126       -0.5961  -17.3714  -52.2462 C.3       23 UNK        -0.0205 
    127 H127       -6.0085  -17.5700  -48.5151 H         1 UNK         0.0600 
    128 H128       -4.8689  -18.7731  -47.9039 H         1 UNK         0.0600 
    129 H129       -4.9894  -18.4700  -49.6389 H         1 UNK         0.0600 
    130 H130       -3.3368  -17.5756  -46.7449 H         1 UNK         0.3000 
    131 H131       -1.5889  -15.7136  -48.0743 H         1 UNK         0.0600 
    132 H132       -0.4944  -15.5021  -45.8251 H         1 UNK         0.0800 
    133 H133       -1.7804  -16.4223  -45.0997 H         1 UNK         0.0800 
    134 H134        1.9740  -17.4899  -46.9742 H         1 UNK         0.0800 
    135 H135        0.9839  -16.1877  -47.5825 H         1 UNK         0.0800 
    136 H136       -0.1588  -16.3758  -49.7587 H         1 UNK         0.1150 
    137 H137        0.6399  -19.8056  -52.1984 H         1 UNK         0.1150 
    138 H138        2.0119  -19.6954  -48.1408 H         1 UNK         0.1150 
    139 H139        2.8308  -21.4451  -49.7359 H         1 UNK         0.0800 
    140 H140        2.2107  -21.5060  -51.3653 H         1 UNK         0.0800 
    141 H141        0.3700  -21.2880  -47.8102 H         1 UNK         0.0800 
    142 H142        1.6774  -22.4282  -47.6821 H         1 UNK         0.0800 
    143 H143       -0.2041  -24.2790  -47.7042 H         1 UNK         0.0600 
    144 H144        0.8199  -22.6884  -45.5516 H         1 UNK         0.3000 
    145 H145       -0.5194  -24.5267  -42.8496 H         1 UNK         0.0600 
    146 H146        1.3131  -26.0625  -43.5780 H         1 UNK         0.0600 
    147 H147        1.8520  -24.9898  -42.2961 H         1 UNK         0.0600 
    148 H148        2.3321  -24.6811  -43.9655 H         1 UNK         0.0600 
    149 H149        1.5216  -22.5500  -42.9802 H         1 UNK         0.3000 
    150 H150       -0.3628  -19.6941  -43.6075 H         1 UNK         0.0600 
    151 H151        0.5385  -20.4659  -40.7810 H         1 UNK         0.0600 
    152 H152       -1.0852  -19.9502  -41.2247 H         1 UNK         0.0600 
    153 H153        0.2579  -18.8279  -41.3726 H         1 UNK         0.0600 
    154 H154        2.2393  -19.9048  -42.5123 H         1 UNK         0.3000 
    155 H155        4.2071  -20.9347  -44.1344 H         1 UNK         0.0600 
    156 H156        5.2484  -19.8924  -46.1154 H         1 UNK         0.0600 
    157 H157        3.7190  -19.1488  -46.5695 H         1 UNK         0.0600 
    158 H158        3.9019  -20.9004  -46.6140 H         1 UNK         0.0600 
    159 H159        4.3633  -18.0721  -44.4819 H         1 UNK         0.3000 
    160 H160        4.3538  -17.2393  -41.0509 H         1 UNK         0.0600 
    161 H161        6.7367  -17.3636  -42.9691 H         1 UNK         0.0600 
    162 H162        6.6655  -18.0447  -41.3518 H         1 UNK         0.0600 
    163 H163        6.5952  -16.3025  -41.5678 H         1 UNK         0.0600 
    164 H164        3.5419  -15.6200  -42.2261 H         1 UNK         0.3000 
    165 H165        4.4951  -13.8397  -45.0046 H         1 UNK         0.0600 
    166 H166        2.1012  -13.8043  -45.7854 H         1 UNK         0.0600 
    167 H167        2.9707  -15.2166  -46.3640 H         1 UNK         0.0600 
    168 H168        1.8416  -15.3734  -45.0215 H         1 UNK         0.0600 
    169 H169        2.2132  -13.6536  -43.2482 H         1 UNK         0.3000 
    170 H170        3.8506  -12.6468  -40.3539 H         1 UNK         0.0600 
    171 H171        2.7512  -10.4207  -40.4685 H         1 UNK         0.0600 
    172 H172        2.5733  -10.5699  -42.2175 H         1 UNK         0.0600 
    173 H173        4.1735  -10.4419  -41.4973 H         1 UNK         0.0600 
    174 H174        1.1531  -12.2449  -41.0915 H         1 UNK         0.3000 
    175 H175       -0.0937  -15.4735  -41.2228 H         1 UNK         0.0600 
    176 H176        0.1452  -15.3864  -38.7367 H         1 UNK         0.0600 
    177 H177       -0.3294  -13.6920  -38.7365 H         1 UNK         0.0600 
    178 H178       -1.4780  -14.9363  -39.2323 H         1 UNK         0.0600 
    179 H179       -1.3930  -12.9635  -40.8501 H         1 UNK         0.3000 
    180 H180       -2.5614  -12.1534  -42.7719 H         1 UNK         0.0600 
    181 H181        0.0777  -10.6854  -43.4087 H         1 UNK         0.0600 
    182 H182       -0.7619  -10.6312  -41.8624 H         1 UNK         0.0600 
    183 H183       -1.5034   -9.9190  -43.2821 H         1 UNK         0.0600 
    184 H184       -1.1109  -12.9226  -45.1095 H         1 UNK         0.3000 
    185 H185       -3.7362  -11.9843  -47.2848 H         1 UNK         0.0600 
    186 H186       -1.9286  -11.2665  -48.8257 H         1 UNK         0.0600 
    187 H187       -2.2074  -10.0349  -47.6056 H         1 UNK         0.0600 
    188 H188       -0.8077  -11.0924  -47.4741 H         1 UNK         0.0600 
    189 H189       -1.3559  -13.4884  -47.7162 H         1 UNK         0.3000 
    190 H190       -1.4703  -21.5852  -45.7486 H         1 UNK         0.3000 
    191 H191       -3.9317  -21.2669  -47.2654 H         1 UNK         0.0600 
    192 H192       -2.9039  -19.3738  -46.0139 H         1 UNK         0.0600 
    193 H193       -4.5351  -19.7078  -45.4489 H         1 UNK         0.0600 
    194 H194       -3.1536  -20.2215  -44.4921 H         1 UNK         0.0600 
    195 H195       -2.9656  -22.8878  -44.2170 H         1 UNK         0.3000 
    196 H196       -5.5082  -23.8437  -43.4620 H         1 UNK         0.0600 
    197 H197       -4.2463  -25.3829  -42.0032 H         1 UNK         0.0600 
    198 H198       -3.4777  -23.8018  -41.9863 H         1 UNK         0.0600 
    199 H199       -2.7754  -25.1188  -42.9264 H         1 UNK         0.0600 
    200 H200       -3.0564  -25.3184  -45.6111 H         1 UNK         0.3000 
    201 H201       -4.5749  -27.7104  -46.1912 H         1 UNK         0.0600 
    202 H202       -2.7883  -28.0234  -47.9121 H         1 UNK         0.0600 
    203 H203       -2.0922  -27.5992  -46.3570 H         1 UNK         0.0600 
    204 H204       -2.2099  -26.3852  -47.6298 H         1 UNK         0.0600 
    205 H205       -5.0049  -24.4921  -47.1730 H         1 UNK         0.3000 
    206 H206       -6.1095  -23.3651  -48.6863 H         1 UNK         0.0600 
    207 H207       -7.9999  -24.9438  -48.2054 H         1 UNK         0.0600 
    208 H208       -8.0493  -24.3103  -49.8421 H         1 UNK         0.0600 
    209 H209       -7.4924  -25.9519  -49.5612 H         1 UNK         0.0600 
    210 H210       -3.5465  -24.8453  -49.3844 H         1 UNK         0.3000 
    211 H211       -3.5005  -25.1706  -52.2649 H         1 UNK         0.0600 
    212 H212       -1.2632  -24.9185  -50.1808 H         1 UNK         0.0600 
    213 H213       -1.0252  -25.3448  -51.8711 H         1 UNK         0.0600 
    214 H214       -1.9322  -26.4194  -50.8160 H         1 UNK         0.0600 
    215 H215       -2.7537  -22.5836  -49.9429 H         1 UNK         0.3000 
    216 H216       -1.6307  -20.6979  -51.7350 H         1 UNK         0.0600 
    217 H217       -2.2415  -19.0406  -49.9458 H         1 UNK         0.0600 
    218 H218       -1.4579  -20.4588  -49.2801 H         1 UNK         0.0600 
    219 H219       -3.2034  -20.2700  -49.1437 H         1 UNK         0.0600 
    220 H220       -4.9907  -21.3975  -50.8677 H         1 UNK         0.3000 
    221 H221       -6.1769  -19.1726  -52.2794 H         1 UNK         0.0600 
    222 H222       -7.4062  -21.7399  -51.1358 H         1 UNK         0.0600 
    223 H223       -7.2418  -20.2046  -50.2824 H         1 UNK         0.0600 
    224 H224       -8.3021  -20.3266  -51.6773 H         1 UNK         0.0600 
    225 H225       -5.1725  -22.4008  -53.1889 H         1 UNK         0.3000 
    226 H226       -6.8560  -22.6745  -55.5251 H         1 UNK         0.0600 
    227 H227       -5.6030  -24.7768  -55.8265 H         1 UNK         0.0600 
    228 H228       -4.4295  -24.2956  -54.6076 H         1 UNK         0.0600 
    229 H229       -6.1021  -24.6140  -54.1518 H         1 UNK         0.0600 
    230 H230       -5.6909  -20.2616  -55.7888 H         1 UNK         0.3000 
    231 H231       -4.6880  -18.8548  -57.1724 H         1 UNK         0.0600 
    232 H232       -4.7391  -21.1547  -59.1937 H         1 UNK         0.0600 
    233 H233       -4.6654  -19.4375  -59.5649 H         1 UNK         0.0600 
    234 H234       -6.1042  -20.1049  -58.8151 H         1 UNK         0.0600 
    235 H235       -2.8530  -20.3436  -55.4419 H         1 UNK         0.3000 
    236 H236       -0.3766  -20.7681  -56.8729 H         1 UNK         0.0600 
    237 H237       -0.9939  -20.4226  -53.9008 H         1 UNK         0.0600 
    238 H238       -0.8324  -21.9472  -54.7709 H         1 UNK         0.0600 
    239 H239        0.5691  -20.9135  -54.5450 H         1 UNK         0.0600 
    240 H240       -1.9583  -17.9613  -55.5662 H         1 UNK         0.3000 
    241 H241        0.3864  -16.2329  -56.1965 H         1 UNK         0.0600 
    242 H242       -1.6616  -14.1759  -58.2462 H         1 UNK         0.3800 
    243 H243       -0.0990  -14.3691  -57.5051 H         1 UNK         0.3800 
    244 H244       -1.7500  -15.7430  -54.0495 H         1 UNK         0.0800 
    245 H245       -0.5518  -14.5825  -54.5529 H         1 UNK         0.0800 
    246 H246       -1.4304  -16.7926  -51.8459 H         1 UNK         0.0800 
    247 H247       -1.0350  -18.1410  -52.8816 H         1 UNK         0.0800 
@<TRIPOS>BOND
     1    1    2 1    
     2    1  127 1    
     3    1  128 1    
     4    1  129 1    
     5    2    3 2    
     6    2    4 am   BACKBONE|DICT|INTERRES
     7    4    5 1    
     8    4  130 1    
     9    5    6 1    
    10    5   65 1    
    11    5  131 1    
    12    6    7 1    
    13    6  132 1    
    14    6  133 1    
    15    7    8 1    
    16    8    9 1    
    17    8  134 1    
    18    8  135 1    
    19    9   10 ar   
    20    9   14 ar   
    21   10   11 ar   
    22   10  136 1    
    23   11   12 ar   
    24   11  126 1    
    25   12   13 ar   
    26   12  137 1    
    27   13   14 ar   
    28   13   15 1    
    29   14  138 1    
    30   15   16 1    
    31   15  139 1    
    32   15  140 1    
    33   16   17 1    
    34   17   18 1    
    35   17  141 1    
    36   17  142 1    
    37   18   19 1    
    38   18   67 1    
    39   18  143 1    
    40   19   20 am   BACKBONE|DICT|INTERRES
    41   19  144 1    
    42   20   21 2    
    43   20   22 1    
    44   22   23 1    
    45   22   24 1    
    46   22  145 1    
    47   23  146 1    
    48   23  147 1    
    49   23  148 1    
    50   24   25 am   BACKBONE|DICT|INTERRES
    51   24  149 1    
    52   25   26 2    
    53   25   27 1    
    54   27   28 1    
    55   27   29 1    
    56   27  150 1    
    57   28  151 1    
    58   28  152 1    
    59   28  153 1    
    60   29   30 am   BACKBONE|DICT|INTERRES
    61   29  154 1    
    62   30   31 2    
    63   30   32 1    
    64   32   33 1    
    65   32   34 1    
    66   32  155 1    
    67   33  156 1    
    68   33  157 1    
    69   33  158 1    
    70   34   35 am   BACKBONE|DICT|INTERRES
    71   34  159 1    
    72   35   36 2    
    73   35   37 1    
    74   37   38 1    
    75   37   39 1    
    76   37  160 1    
    77   38  161 1    
    78   38  162 1    
    79   38  163 1    
    80   39   40 am   BACKBONE|DICT|INTERRES
    81   39  164 1    
    82   40   41 2    
    83   40   42 1    
    84   42   43 1    
    85   42   44 1    
    86   42  165 1    
    87   43  166 1    
    88   43  167 1    
    89   43  168 1    
    90   44   45 am   BACKBONE|DICT|INTERRES
    91   44  169 1    
    92   45   46 2    
    93   45   47 1    
    94   47   48 1    
    95   47   49 1    
    96   47  170 1    
    97   48  171 1    
    98   48  172 1    
    99   48  173 1    
   100   49   50 am   BACKBONE|DICT|INTERRES
   101   49  174 1    
   102   50   51 2    
   103   50   52 1    
   104   52   53 1    
   105   52   54 1    
   106   52  175 1    
   107   53  176 1    
   108   53  177 1    
   109   53  178 1    
   110   54   55 am   BACKBONE|DICT|INTERRES
   111   54  179 1    
   112   55   56 2    
   113   55   57 1    
   114   57   58 1    
   115   57   59 1    
   116   57  180 1    
   117   58  181 1    
   118   58  182 1    
   119   58  183 1    
   120   59   60 am   BACKBONE|DICT|INTERRES
   121   59  184 1    
   122   60   61 2    
   123   60   62 1    
   124   62   63 1    
   125   62   64 1    
   126   62  185 1    
   127   63  186 1    
   128   63  187 1    
   129   63  188 1    
   130   64   65 am   BACKBONE|DICT|INTERRES
   131   64  189 1    
   132   65   66 2    
   133   67   68 2    
   134   67   69 am   BACKBONE|DICT|INTERRES
   135   69   70 1    
   136   69  190 1    
   137   70   71 1    
   138   70   72 1    
   139   70  191 1    
   140   71  192 1    
   141   71  193 1    
   142   71  194 1    
   143   72   73 2    
   144   72   74 am   BACKBONE|DICT|INTERRES
   145   74   75 1    
   146   74  195 1    
   147   75   76 1    
   148   75   77 1    
   149   75  196 1    
   150   76  197 1    
   151   76  198 1    
   152   76  199 1    
   153   77   78 2    
   154   77   79 am   BACKBONE|DICT|INTERRES
   155   79   80 1    
   156   79  200 1    
   157   80   81 1    
   158   80   82 1    
   159   80  201 1    
   160   81  202 1    
   161   81  203 1    
   162   81  204 1    
   163   82   83 2    
   164   82   84 am   BACKBONE|DICT|INTERRES
   165   84   85 1    
   166   84  205 1    
   167   85   86 1    
   168   85   87 1    
   169   85  206 1    
   170   86  207 1    
   171   86  208 1    
   172   86  209 1    
   173   87   88 2    
   174   87   89 am   BACKBONE|DICT|INTERRES
   175   89   90 1    
   176   89  210 1    
   177   90   91 1    
   178   90   92 1    
   179   90  211 1    
   180   91  212 1    
   181   91  213 1    
   182   91  214 1    
   183   92   93 2    
   184   92   94 am   BACKBONE|DICT|INTERRES
   185   94   95 1    
   186   94  215 1    
   187   95   96 1    
   188   95   97 1    
   189   95  216 1    
   190   96  217 1    
   191   96  218 1    
   192   96  219 1    
   193   97   98 2    
   194   97   99 am   BACKBONE|DICT|INTERRES
   195   99  100 1    
   196   99  220 1    
   197  100  101 1    
   198  100  102 1    
   199  100  221 1    
   200  101  222 1    
   201  101  223 1    
   202  101  224 1    
   203  102  103 2    
   204  102  104 am   BACKBONE|DICT|INTERRES
   205  104  105 1    
   206  104  225 1    
   207  105  106 1    
   208  105  107 1    
   209  105  226 1    
   210  106  227 1    
   211  106  228 1    
   212  106  229 1    
   213  107  108 2    
   214  107  109 am   BACKBONE|DICT|INTERRES
   215  109  110 1    
   216  109  230 1    
   217  110  111 1    
   218  110  112 1    
   219  110  231 1    
   220  111  232 1    
   221  111  233 1    
   222  111  234 1    
   223  112  113 2    
   224  112  114 am   BACKBONE|DICT|INTERRES
   225  114  115 1    
   226  114  235 1    
   227  115  116 1    
   228  115  117 1    
   229  115  236 1    
   230  116  237 1    
   231  116  238 1    
   232  116  239 1    
   233  117  118 2    
   234  117  119 am   BACKBONE|DICT|INTERRES
   235  119  120 1    
   236  119  240 1    
   237  120  121 1    
   238  120  124 1    
   239  120  241 1    
   240  121  122 am   BACKBONE|DICT|INTERRES
   241  121  123 2    
   242  122  242 1    
   243  122  243 1    
   244  124  125 1    
   245  124  244 1    
   246  124  245 1    
   247  125  126 1    
   248  126  246 1    
   249  126  247 1    
@<TRIPOS>SUBSTRUCTURE
     1 UNK         1 GROUP             0       ****    0 ROOT    
